REMARK  Name = ZINC04488905
REMARK  5 active torsions:
REMARK  status: ('A' for Active; 'I' for Inactive)
REMARK    1  A    between atoms: C_1  and  C_2
REMARK    2  A    between atoms: C_2  and  C_3
REMARK    3  A    between atoms: C_6  and  C_9
REMARK    4  A    between atoms: C_20  and  C_22
REMARK    5  A    between atoms: C_20  and  C_23
REMARK                            x       y       z     vdW  Elec       q    Type
REMARK                         _______ _______ _______ _____ _____    ______ ____
ROOT
ATOM      1  C   UNL     1       1.326  -0.733  -0.032  0.00  0.00    +0.063 C 
ATOM      2  C   UNL     1       2.304   0.057  -0.907  0.00  0.00    +0.109 C 
ATOM      3  C   UNL     1       2.295   1.499  -0.466  0.00  0.00    +0.218 C 
ATOM      4  O   UNL     1       3.309   2.160  -0.532  0.00  0.00    -0.275 OA
ATOM      5  N   UNL     1       1.161   2.052   0.002  0.00  0.00    -0.289 N 
ATOM      6  C   UNL     1      -0.016   1.346   0.009  0.00  0.00    +0.018 C 
ATOM      7  C   UNL     1       0.002  -0.004   0.002  0.00  0.00    +0.020 C 
ATOM      8  C   UNL     1      -1.186  -0.753   0.020  0.00  0.00    +0.162 C 
ATOM      9  O   UNL     1      -1.129  -1.966   0.033  0.00  0.00    -0.292 OA
ATOM     10  C   UNL     1      -2.529  -0.072   0.023  0.00  0.00    +0.086 C 
ATOM     11  C   UNL     1      -2.401   1.283  -0.679  0.00  0.00    -0.023 C 
ATOM     12  C   UNL     1      -1.320   2.102   0.032  0.00  0.00    +0.058 C 
ATOM     13  C   UNL     1      -2.004   1.069  -2.142  0.00  0.00    +0.011 C 
ATOM     14  C   UNL     1      -3.737   2.026  -0.610  0.00  0.00    +0.011 C 
ATOM     15  H   UNL     1       1.175   2.961   0.339  0.00  0.00    +0.155 HD
ENDROOT
BRANCH   1  19
ATOM     16  C   UNL     1       2.888  -1.047   3.932  0.00  0.00    -0.048 A 
ATOM     17  C   UNL     1       2.619  -2.190   3.202  0.00  0.00    +0.004 A 
ATOM     18  C   UNL     1       2.114  -2.088   1.919  0.00  0.00    +0.004 A 
ATOM     19  C   UNL     1       1.877  -0.844   1.367  0.00  0.00    -0.039 A 
ATOM     20  C   UNL     1       2.151   0.299   2.094  0.00  0.00    +0.004 A 
ATOM     21  C   UNL     1       2.652   0.197   3.379  0.00  0.00    +0.004 A 
BRANCH  16  23
ATOM     22  C   UNL     1       4.967  -1.175   5.277  0.00  0.00    +0.009 C 
ATOM     23  C   UNL     1       3.438  -1.158   5.330  0.00  0.00    +0.032 C 
ENDBRANCH  16  23
ENDBRANCH   1  19
TORSDOF 2
