REMARK  Name = ZINC05738719
REMARK  4 active torsions:
REMARK  status: ('A' for Active; 'I' for Inactive)
REMARK    1  A    between atoms: C_4  and  N_7
REMARK    2  A    between atoms: C_9  and  C_23
REMARK    3  A    between atoms: C_10  and  C_12
REMARK    4  A    between atoms: N_24  and  O_25
REMARK                            x       y       z     vdW  Elec       q    Type
REMARK                         _______ _______ _______ _____ _____    ______ ____
ROOT
ATOM      1  N   UNL     1      -6.593   5.344   0.315  0.00  0.00    -0.239 N 
ATOM      2  C   UNL     1      -7.236   4.179   0.097  0.00  0.00    +0.124 A 
ATOM      3  C   UNL     1      -6.300   3.183   0.039  0.00  0.00    +0.042 A 
ATOM      4  C   UNL     1      -4.996   3.821   0.241  0.00  0.00    +0.109 A 
ATOM      5  N   UNL     1      -5.218   5.108   0.407  0.00  0.00    -0.165 NA
ENDROOT
BRANCH   4   6
ATOM      6  C   UNL     1      -3.679   3.145   0.261  0.00  0.00    +0.088 A 
ATOM      7  C   UNL     1      -3.318   2.296  -0.751  0.00  0.00    +0.028 A 
ATOM      8  C   UNL     1      -2.006   1.651  -0.678  0.00  0.00    +0.018 A 
ATOM      9  C   UNL     1      -1.595   0.760  -1.678  0.00  0.00    +0.011 A 
ATOM     10  C   UNL     1      -0.368   0.165  -1.596  0.00  0.00    +0.001 A 
ATOM     11  C   UNL     1       0.475   0.438  -0.528  0.00  0.00    +0.004 A 
ATOM     12  C   UNL     1       0.090   1.312   0.467  0.00  0.00    +0.047 A 
ATOM     13  C   UNL     1      -1.157   1.924   0.408  0.00  0.00    +0.139 A 
ATOM     14  O   UNL     1      -1.541   2.776   1.383  0.00  0.00    -0.422 OA
ATOM     15  C   UNL     1      -2.736   3.385   1.358  0.00  0.00    +0.347 A 
ATOM     16  O   UNL     1      -3.042   4.145   2.258  0.00  0.00    -0.244 OA
ENDBRANCH   4   6
BRANCH   1  20
ATOM     17  C   UNL     1      -8.424   9.070   0.677  0.00  0.00    +0.000 A 
ATOM     18  C   UNL     1      -7.049   8.964   0.781  0.00  0.00    +0.002 A 
ATOM     19  C   UNL     1      -6.439   7.730   0.661  0.00  0.00    +0.028 A 
ATOM     20  C   UNL     1      -7.208   6.596   0.436  0.00  0.00    +0.065 A 
ATOM     21  C   UNL     1      -8.588   6.707   0.327  0.00  0.00    +0.028 A 
ATOM     22  C   UNL     1      -9.193   7.942   0.454  0.00  0.00    +0.002 A 
ENDBRANCH   1  20
BRANCH   3  23
ATOM     23  C   UNL     1      -6.554   1.749  -0.183  0.00  0.00    +0.164 C 
ATOM     24  N   UNL     1      -5.577   0.901  -0.120  0.00  0.00    -0.095 NA
BRANCH  24  25
ATOM     25  O   UNL     1      -5.818  -0.475  -0.350  0.00  0.00    -0.409 OA
ATOM     26  H   UNL     1      -4.988  -1.195  -0.297  0.00  0.00    +0.328 HD
ENDBRANCH  24  25
ENDBRANCH   3  23
TORSDOF 4
