REMARK  Name = ZINC13518983
REMARK  11 active torsions:
REMARK  status: ('A' for Active; 'I' for Inactive)
REMARK    1  A    between atoms: C_1  and  C_2
REMARK    2  A    between atoms: C_5  and  N_9
REMARK    3  A    between atoms: C_7  and  C_8
REMARK    4  A    between atoms: C_11  and  C_16
REMARK    5  A    between atoms: N_18  and  C_19
REMARK    6  A    between atoms: C_22  and  S_25
REMARK    7  A    between atoms: S_25  and  N_28
REMARK    8  A    between atoms: N_28  and  C_29
REMARK    9  A    between atoms: C_29  and  C_30
REMARK   10  A    between atoms: C_29  and  C_31
REMARK   11  A    between atoms: C_29  and  C_32
REMARK                            x       y       z     vdW  Elec       q    Type
REMARK                         _______ _______ _______ _____ _____    ______ ____
ROOT
ATOM      1  C   UNL     1      -6.262   4.304  -0.614  0.00  0.00    +0.222 C 
ATOM      2  O   UNL     1      -6.359   4.148  -1.813  0.00  0.00    -0.275 OA
ATOM      3  N   UNL     1      -7.330   4.708   0.101  0.00  0.00    -0.285 N 
ATOM      4  H   UNL     1      -7.231   4.920   1.043  0.00  0.00    +0.155 HD
ENDROOT
BRANCH   1   7
ATOM      5  N   UNL     1      -2.620   4.367  -0.409  0.00  0.00    -0.271 N 
ATOM      6  C   UNL     1      -3.834   3.751  -0.957  0.00  0.00    +0.127 C 
ATOM      7  C   UNL     1      -4.946   4.048   0.075  0.00  0.00    +0.102 C 
ATOM      8  C   UNL     1      -4.414   5.334   0.748  0.00  0.00    +0.110 C 
ATOM      9  C   UNL     1      -2.917   5.267   0.544  0.00  0.00    +0.221 C 
ATOM     10  O   UNL     1      -2.102   5.929   1.153  0.00  0.00    -0.275 OA
BRANCH   5  15
ATOM     11  C   UNL     1       2.648   3.128  -2.112  0.00  0.00    +0.044 C 
ATOM     12  C   UNL     1       1.249   3.457  -1.660  0.00  0.00    -0.047 A 
ATOM     13  C   UNL     1       0.176   2.738  -2.155  0.00  0.00    +0.005 A 
ATOM     14  C   UNL     1      -1.107   3.040  -1.746  0.00  0.00    +0.024 A 
ATOM     15  C   UNL     1      -1.320   4.062  -0.829  0.00  0.00    +0.037 A 
ATOM     16  C   UNL     1      -0.241   4.782  -0.333  0.00  0.00    +0.027 A 
ATOM     17  C   UNL     1       1.040   4.477  -0.750  0.00  0.00    -0.046 A 
ATOM     18  C   UNL     1       2.211   5.258  -0.212  0.00  0.00    +0.044 C 
ENDBRANCH   5  15
ENDBRANCH   1   7
BRANCH   3  19
ATOM     19  C   UNL     1      -8.582   4.822  -0.513  0.00  0.00    +0.034 A 
ATOM     20  C   UNL     1      -9.479   5.794  -0.091  0.00  0.00    +0.025 A 
ATOM     21  C   UNL     1     -10.712   5.906  -0.703  0.00  0.00    +0.030 A 
ATOM     22  C   UNL     1     -11.058   5.045  -1.728  0.00  0.00    +0.105 A 
ATOM     23  C   UNL     1     -10.168   4.072  -2.148  0.00  0.00    +0.030 A 
ATOM     24  C   UNL     1      -8.932   3.958  -1.544  0.00  0.00    +0.025 A 
BRANCH  22  25
ATOM     25  S   UNL     1     -12.635   5.186  -2.502  0.00  0.00    +0.059 S 
ATOM     26  O   UNL     1     -12.918   6.576  -2.596  0.00  0.00    -0.153 OA
ATOM     27  O   UNL     1     -12.607   4.336  -3.640  0.00  0.00    -0.153 OA
BRANCH  25  28
ATOM     28  N   UNL     1     -13.750   4.545  -1.459  0.00  0.00    -0.185 NA
ATOM     29  H   UNL     1     -14.421   5.118  -1.055  0.00  0.00    +0.149 HD
BRANCH  28  30
ATOM     30  C   UNL     1     -13.724   3.114  -1.147  0.00  0.00    +0.032 C 
ATOM     31  C   UNL     1     -12.399   2.765  -0.466  0.00  0.00    +0.029 C 
ATOM     32  C   UNL     1     -14.884   2.776  -0.208  0.00  0.00    +0.029 C 
ATOM     33  C   UNL     1     -13.861   2.308  -2.439  0.00  0.00    +0.029 C 
ENDBRANCH  28  30
ENDBRANCH  25  28
ENDBRANCH  22  25
ENDBRANCH   3  19
TORSDOF 6
