REMARK  Name = ZINC59390254
REMARK  6 active torsions:
REMARK  status: ('A' for Active; 'I' for Inactive)
REMARK    1  A    between atoms: C_1  and  C_2
REMARK    2  A    between atoms: C_8  and  N_10
REMARK    3  A    between atoms: C_14  and  C_16
REMARK    4  A    between atoms: C_16  and  N_17
REMARK    5  A    between atoms: N_17  and  C_18
REMARK    6  A    between atoms: N_17  and  C_19
REMARK                            x       y       z     vdW  Elec       q    Type
REMARK                         _______ _______ _______ _____ _____    ______ ____
ROOT
ATOM      1  N   UNL     1       0.056  -0.038   2.447  0.00  0.00    -0.296 N 
ATOM      2  C   UNL     1       0.738   0.093   3.602  0.00  0.00    +0.306 C 
ATOM      3  O   UNL     1       1.921  -0.180   3.644  0.00  0.00    -0.252 OA
ATOM      4  N   UNL     1       0.107   0.528   4.711  0.00  0.00    -0.239 N 
ATOM      5  C   UNL     1       0.789   0.659   5.866  0.00  0.00    +0.238 C 
ATOM      6  O   UNL     1       1.969   0.387   5.908  0.00  0.00    -0.274 OA
ATOM      7  H   UNL     1      -0.888   0.180   2.413  0.00  0.00    +0.151 HD
ATOM      8  H   UNL     1      -0.838   0.746   4.678  0.00  0.00    +0.159 HD
ENDROOT
BRANCH   1  15
ATOM      9  C   UNL     1      -0.019   1.526   0.010  0.00  0.00    +0.009 C 
ATOM     10  C   UNL     1       0.002  -0.004   0.002  0.00  0.00    +0.006 C 
ATOM     11  C   UNL     1      -1.433  -0.534   0.013  0.00  0.00    +0.005 C 
ATOM     12  C   UNL     1      -1.413  -2.063   0.004  0.00  0.00    +0.000 C 
ATOM     13  C   UNL     1      -0.673  -2.570   1.244  0.00  0.00    +0.002 C 
ATOM     14  C   UNL     1       0.763  -2.041   1.233  0.00  0.00    +0.022 C 
ATOM     15  C   UNL     1       0.742  -0.511   1.242  0.00  0.00    +0.077 C 
ENDBRANCH   1  15
BRANCH   5  16
ATOM     16  C   UNL     1       0.083   1.145   7.106  0.00  0.00    +0.200 C 
BRANCH  16  17
ATOM     17  N   UNL     1       1.035   1.202   8.219  0.00  0.00    -0.324 N 
ATOM     18  C   UNL     1       1.798   2.427   8.469  0.00  0.00    +0.130 C 
BRANCH  17  19
ATOM     19  C   UNL     1       1.214   0.086   9.042  0.00  0.00    +0.030 A 
ATOM     20  C   UNL     1       0.496  -1.079   8.802  0.00  0.00    +0.026 A 
ATOM     21  C   UNL     1       0.675  -2.180   9.616  0.00  0.00    +0.040 A 
ATOM     22  C   UNL     1       1.571  -2.124  10.670  0.00  0.00    +0.124 A 
ATOM     23  C   UNL     1       2.288  -0.965  10.912  0.00  0.00    +0.040 A 
ATOM     24  C   UNL     1       2.116   0.138  10.097  0.00  0.00    +0.026 A 
ATOM     25  F   UNL     1       1.745  -3.202  11.466  0.00  0.00    -0.205 F 
ENDBRANCH  17  19
ENDBRANCH  16  17
ENDBRANCH   5  16
TORSDOF 4
