REMARK  Name = ZINC39133296
REMARK  2 active torsions:
REMARK  status: ('A' for Active; 'I' for Inactive)
REMARK    1  A    between atoms: N_7  and  C_8
REMARK    2  A    between atoms: C_8  and  C_10
REMARK                            x       y       z     vdW  Elec       q    Type
REMARK                         _______ _______ _______ _____ _____    ______ ____
ROOT
ATOM      1  C   UNL     1      -0.017   1.379   0.010  0.00  0.00    +0.103 A 
ATOM      2  C   UNL     1       1.243   1.808  -0.000  0.00  0.00    +0.103 A 
ATOM      3  N   UNL     1       2.072   0.701  -0.014  0.00  0.00    -0.333 N 
ATOM      4  C   UNL     1       1.293  -0.404  -0.013  0.00  0.00    +0.198 A 
ATOM      5  N   UNL     1       0.002  -0.004   0.002  0.00  0.00    -0.333 N 
ATOM      6  H   UNL     1      -0.775  -0.585   0.007  0.00  0.00    +0.168 HD
ATOM      7  N   UNL     1       1.723  -1.667  -0.024  0.00  0.00    -0.139 NA
ATOM      8  H   UNL     1       3.042   0.715  -0.024  0.00  0.00    +0.168 HD
ENDROOT
BRANCH   7   9
ATOM      9  C   UNL     1       0.849  -2.666  -0.021  0.00  0.00    +0.343 C 
ATOM     10  O   UNL     1      -0.344  -2.429  -0.008  0.00  0.00    -0.264 OA
BRANCH   9  11
ATOM     11  C   UNL     1       1.335  -4.092  -0.034  0.00  0.00    +0.472 C 
ATOM     12  F   UNL     1       0.237  -4.959  -0.028  0.00  0.00    -0.162 F 
ATOM     13  F   UNL     1       2.098  -4.314  -1.185  0.00  0.00    -0.162 F 
ATOM     14  F   UNL     1       2.121  -4.327   1.100  0.00  0.00    -0.162 F 
ENDBRANCH   9  11
ENDBRANCH   7   9
TORSDOF 2
