REMARK  Name = ZINC40823379
REMARK  10 active torsions:
REMARK  status: ('A' for Active; 'I' for Inactive)
REMARK    1  A    between atoms: C_1  and  C_2
REMARK    2  A    between atoms: C_6  and  C_7
REMARK    3  A    between atoms: N_9  and  C_10
REMARK    4  A    between atoms: C_12  and  O_18
REMARK    5  A    between atoms: C_15  and  O_16
REMARK    6  A    between atoms: O_16  and  C_17
REMARK    7  A    between atoms: O_18  and  C_19
REMARK    8  A    between atoms: N_24  and  N_25
REMARK    9  A    between atoms: C_26  and  C_28
REMARK   10  A    between atoms: C_32  and  C_33
REMARK                            x       y       z     vdW  Elec       q    Type
REMARK                         _______ _______ _______ _____ _____    ______ ____
ROOT
ATOM      1  C   UNL     1      -0.042   1.504   0.012  0.00  0.00    +0.048 C 
ATOM      2  C   UNL     1      -0.024  -0.003   0.003  0.00  0.00    +0.009 A 
ATOM      3  C   UNL     1      -0.027  -0.837  -1.122  0.00  0.00    +0.042 A 
ATOM      4  C   UNL     1      -0.008  -2.136  -0.672  0.00  0.00    +0.115 A 
ATOM      5  O   UNL     1       0.011  -2.111   0.658  0.00  0.00    -0.454 OA
ATOM      6  C   UNL     1       0.006  -0.830   1.091  0.00  0.00    +0.193 A 
ATOM      7  C   UNL     1      -0.010  -3.325  -1.600  0.00  0.00    +0.075 C 
ATOM      8  C   UNL     1      -0.545  -2.900  -2.970  0.00  0.00    +0.014 C 
ATOM      9  C   UNL     1       0.224  -1.683  -3.496  0.00  0.00    +0.058 C 
ATOM     10  C   UNL     1      -0.046  -0.510  -2.565  0.00  0.00    +0.070 C 
ATOM     11  N   UNL     1      -0.276   0.689  -3.005  0.00  0.00    -0.184 NA
ENDROOT
BRANCH   6  12
ATOM     12  C   UNL     1       0.025  -0.399   2.494  0.00  0.00    +0.284 C 
ATOM     13  O   UNL     1       0.016   0.787   2.767  0.00  0.00    -0.266 OA
ATOM     14  N   UNL     1       0.054  -1.317   3.480  0.00  0.00    -0.276 N 
ATOM     15  H   UNL     1      -0.003  -2.262   3.265  0.00  0.00    +0.155 HD
BRANCH  14  16
ATOM     16  C   UNL     1       0.168  -0.908   4.814  0.00  0.00    +0.079 A 
ATOM     17  C   UNL     1      -0.435   0.269   5.234  0.00  0.00    +0.072 A 
ATOM     18  C   UNL     1      -0.322   0.671   6.556  0.00  0.00    +0.122 A 
ATOM     19  C   UNL     1       0.394  -0.102   7.458  0.00  0.00    +0.049 A 
ATOM     20  C   UNL     1       0.996  -1.276   7.042  0.00  0.00    +0.051 A 
ATOM     21  C   UNL     1       0.881  -1.685   5.724  0.00  0.00    +0.141 A 
BRANCH  21  22
ATOM     22  O   UNL     1       1.469  -2.843   5.317  0.00  0.00    -0.493 OA
ATOM     23  C   UNL     1       2.184  -3.589   6.304  0.00  0.00    +0.277 C 
ENDBRANCH  21  22
BRANCH  18  24
ATOM     24  O   UNL     1      -0.912   1.824   6.968  0.00  0.00    -0.495 OA
ATOM     25  C   UNL     1      -0.754   2.178   8.343  0.00  0.00    +0.277 C 
ENDBRANCH  18  24
ENDBRANCH  14  16
ENDBRANCH   6  12
BRANCH  11  26
ATOM     26  N   UNL     1      -0.281   0.940  -4.383  0.00  0.00    -0.203 N 
ATOM     27  C   UNL     1      -0.520   2.186  -4.839  0.00  0.00    +0.267 C 
ATOM     28  O   UNL     1      -0.731   3.091  -4.055  0.00  0.00    -0.268 OA
ATOM     29  H   UNL     1      -0.113   0.218  -5.008  0.00  0.00    +0.178 HD
BRANCH  27  30
ATOM     30  C   UNL     1      -0.526   2.451  -6.289  0.00  0.00    +0.079 A 
ATOM     31  C   UNL     1      -0.299   1.481  -7.370  0.00  0.00    +0.054 A 
ATOM     32  C   UNL     1      -0.400   2.175  -8.515  0.00  0.00    +0.196 A 
ATOM     33  O   UNL     1      -0.664   3.459  -8.229  0.00  0.00    -0.467 OA
ATOM     34  C   UNL     1      -0.749   3.646  -6.908  0.00  0.00    +0.114 A 
ATOM     35  C   UNL     1      -1.039   4.955  -6.220  0.00  0.00    +0.087 C 
ENDBRANCH  27  30
ENDBRANCH  11  26
TORSDOF 6
