REMARK  Name = ZINC24269924
REMARK  8 active torsions:
REMARK  status: ('A' for Active; 'I' for Inactive)
REMARK    1  A    between atoms: C_1  and  C_2
REMARK    2  A    between atoms: C_2  and  C_4
REMARK    3  A    between atoms: C_2  and  S_18
REMARK    4  A    between atoms: C_4  and  C_6
REMARK    5  A    between atoms: C_6  and  C_16
REMARK    6  A    between atoms: S_18  and  C_19
REMARK    7  A    between atoms: N_27  and  C_28
REMARK    8  A    between atoms: C_28  and  C_29
REMARK                            x       y       z     vdW  Elec       q    Type
REMARK                         _______ _______ _______ _____ _____    ______ ____
ROOT
ATOM      1  C   UNL     1      -5.555  -1.566   0.171  0.00  0.00    +0.189 C 
ATOM      2  O   UNL     1      -6.385  -0.751  -0.182  0.00  0.00    -0.290 OA
ENDROOT
BRANCH   1   3
ATOM      3  C   UNL     1      -5.963  -2.799   0.706  0.00  0.00    +0.131 C 
ATOM      4  C   UNL     1      -7.333  -3.091   0.834  0.00  0.00    +0.114 C 
ATOM      5  N   UNL     1      -8.350  -2.263   0.481  0.00  0.00    -0.300 N 
ATOM      6  C   UNL     1      -9.552  -2.906   0.756  0.00  0.00    +0.054 A 
ATOM      7  C   UNL     1     -10.881  -2.539   0.598  0.00  0.00    +0.025 A 
ATOM      8  C   UNL     1     -11.884  -3.409   0.976  0.00  0.00    +0.002 A 
ATOM      9  C   UNL     1     -11.570  -4.647   1.512  0.00  0.00    +0.002 A 
ATOM     10  C   UNL     1     -10.251  -5.021   1.674  0.00  0.00    +0.025 A 
ATOM     11  C   UNL     1      -9.235  -4.154   1.297  0.00  0.00    +0.054 A 
ATOM     12  N   UNL     1      -7.848  -4.244   1.334  0.00  0.00    -0.300 N 
ATOM     13  H   UNL     1      -8.130  -1.271   0.059  0.00  0.00    +0.153 HD
ATOM     14  H   UNL     1      -7.175  -5.043   1.679  0.00  0.00    +0.153 HD
BRANCH   3  15
ATOM     15  C   UNL     1      -4.985  -3.759   1.122  0.00  0.00    +0.106 C 
ATOM     16  N   UNL     1      -4.209  -4.520   1.452  0.00  0.00    -0.191 NA
ENDBRANCH   3  15
ENDBRANCH   1   3
BRANCH   1  18
ATOM     17  C   UNL     1      -3.562  -1.831  -1.281  0.00  0.00    +0.028 C 
ATOM     18  C   UNL     1      -4.087  -1.253   0.035  0.00  0.00    +0.123 C 
BRANCH  18  19
ATOM     19  S   UNL     1      -3.849   0.541   0.042  0.00  0.00    -0.077 S 
BRANCH  19  20
ATOM     20  C   UNL     1      -2.089   0.617   0.025  0.00  0.00    +0.171 A 
ATOM     21  N   UNL     1      -1.291  -0.422   0.012  0.00  0.00    -0.222 NA
ATOM     22  C   UNL     1       0.002  -0.004   0.002  0.00  0.00    +0.090 A 
ATOM     23  C   UNL     1       1.228  -0.675  -0.013  0.00  0.00    +0.030 A 
ATOM     24  C   UNL     1       2.401   0.045  -0.020  0.00  0.00    +0.002 A 
ATOM     25  C   UNL     1       2.377   1.431  -0.012  0.00  0.00    +0.002 A 
ATOM     26  C   UNL     1       1.175   2.109   0.002  0.00  0.00    +0.028 A 
ATOM     27  C   UNL     1      -0.017   1.400   0.010  0.00  0.00    +0.070 A 
ATOM     28  N   UNL     1      -1.353   1.768   0.030  0.00  0.00    -0.315 N 
BRANCH  28  29
ATOM     29  C   UNL     1      -1.877   3.135   0.044  0.00  0.00    +0.151 C 
BRANCH  29  30
ATOM     30  C   UNL     1      -2.077   3.612  -1.371  0.00  0.00    -0.013 C 
ATOM     31  C   UNL     1      -3.248   4.058  -1.754  0.00  0.00    +0.005 C 
ENDBRANCH  29  30
ENDBRANCH  28  29
ENDBRANCH  19  20
ENDBRANCH  18  19
ENDBRANCH   1  18
TORSDOF 7
