REMARK  Name = ZINC51587194
REMARK  9 active torsions:
REMARK  status: ('A' for Active; 'I' for Inactive)
REMARK    1  A    between atoms: C_1  and  C_2
REMARK    2  A    between atoms: C_2  and  C_3
REMARK    3  A    between atoms: C_3  and  N_4
REMARK    4  A    between atoms: C_5  and  C_7
REMARK    5  A    between atoms: N_16  and  C_17
REMARK    6  A    between atoms: C_22  and  O_23
REMARK    7  A    between atoms: O_23  and  C_24
REMARK    8  A    between atoms: C_24  and  C_25
REMARK    9  A    between atoms: C_27  and  C_30
REMARK                            x       y       z     vdW  Elec       q    Type
REMARK                         _______ _______ _______ _____ _____    ______ ____
ROOT
ATOM      1  C   UNL     1      -2.633  -4.477  -0.535  0.00  0.00    +0.092 C 
ATOM      2  C   UNL     1      -4.068  -4.932  -0.260  0.00  0.00    +0.016 C 
ATOM      3  C   UNL     1      -4.088  -6.443  -0.017  0.00  0.00    +0.020 C 
ATOM      4  C   UNL     1      -3.233  -6.770   1.211  0.00  0.00    +0.109 C 
ATOM      5  N   UNL     1      -1.890  -6.208   1.016  0.00  0.00    -0.285 N 
ATOM      6  C   UNL     1      -1.761  -4.782   0.687  0.00  0.00    +0.122 C 
ATOM      7  C   UNL     1      -0.796  -6.986   1.136  0.00  0.00    +0.307 C 
ATOM      8  O   UNL     1       0.303  -6.533   0.881  0.00  0.00    -0.252 OA
ATOM      9  N   UNL     1      -0.920  -8.266   1.538  0.00  0.00    -0.266 N 
ATOM     10  H   UNL     1      -1.801  -8.647   1.679  0.00  0.00    +0.156 HD
ENDROOT
BRANCH   9  11
ATOM     11  C   UNL     1       0.224  -9.047   1.754  0.00  0.00    +0.080 A 
ATOM     12  C   UNL     1       1.454  -8.436   1.931  0.00  0.00    +0.073 A 
ATOM     13  C   UNL     1       2.594  -9.205   2.144  0.00  0.00    +0.126 A 
ATOM     14  C   UNL     1       2.479 -10.589   2.170  0.00  0.00    +0.001 A 
ATOM     15  C   UNL     1       1.256 -11.201   2.000  0.00  0.00    +0.055 A 
ATOM     16  C   UNL     1       0.119 -10.435   1.796  0.00  0.00    +0.142 A 
ATOM     17  C   UNL     1       3.872 -11.146   2.393  0.00  0.00    +0.083 C 
ATOM     18  C   UNL     1       4.762  -9.920   2.082  0.00  0.00    +0.175 C 
ATOM     19  O   UNL     1       3.883  -8.813   2.350  0.00  0.00    -0.488 OA
ATOM     20  C   UNL     1       5.980  -9.885   3.007  0.00  0.00    +0.052 C 
BRANCH  16  21
ATOM     21  O   UNL     1      -1.091 -11.036   1.632  0.00  0.00    -0.490 OA
BRANCH  21  22
ATOM     22  C   UNL     1      -1.119 -12.463   1.688  0.00  0.00    +0.226 C 
ATOM     23  C   UNL     1      -2.554 -12.953   1.484  0.00  0.00    +0.048 C 
ENDBRANCH  21  22
ENDBRANCH  16  21
ENDBRANCH   9  11
BRANCH   1  25
ATOM     24  N   UNL     1      -1.456  -2.369  -1.074  0.00  0.00    -0.315 N 
ATOM     25  C   UNL     1      -2.619  -2.994  -0.806  0.00  0.00    +0.218 C 
ATOM     26  O   UNL     1      -3.655  -2.364  -0.783  0.00  0.00    -0.275 OA
ATOM     27  H   UNL     1      -0.627  -2.874  -1.093  0.00  0.00    +0.149 HD
BRANCH  24  28
ATOM     28  C   UNL     1      -1.442  -0.928  -1.338  0.00  0.00    +0.104 C 
BRANCH  28  30
ATOM     29  C   UNL     1       0.007   1.031  -1.886  0.00  0.00    +0.005 C 
ATOM     30  C   UNL     1      -0.007  -0.474  -1.611  0.00  0.00    +0.015 C 
ENDBRANCH  28  30
ENDBRANCH  24  28
ENDBRANCH   1  25
TORSDOF 6
