REMARK  Name = ZINC00305800
REMARK  4 active torsions:
REMARK  status: ('A' for Active; 'I' for Inactive)
REMARK    1  A    between atoms: C_1  and  C_2
REMARK    2  A    between atoms: C_2  and  C_3
REMARK    3  A    between atoms: N_5  and  C_6
REMARK    4  A    between atoms: C_7  and  C_21
REMARK                            x       y       z     vdW  Elec       q    Type
REMARK                         _______ _______ _______ _____ _____    ______ ____
ROOT
ATOM      1  C   UNL     1      -2.508   1.028   0.025  0.00  0.00    +0.055 C 
ATOM      2  C   UNL     1      -3.662   1.729  -0.128  0.00  0.00    +0.057 C 
ATOM      3  C   UNL     1      -3.632   3.180  -0.530  0.00  0.00    +0.011 C 
ATOM      4  C   UNL     1      -3.517   3.280  -2.054  0.00  0.00    +0.012 C 
ATOM      5  C   UNL     1      -3.497   4.752  -2.468  0.00  0.00    +0.001 C 
ATOM      6  C   UNL     1      -4.791   5.429  -2.012  0.00  0.00    +0.000 C 
ATOM      7  C   UNL     1      -4.910   5.327  -0.490  0.00  0.00    +0.001 C 
ATOM      8  C   UNL     1      -4.931   3.854  -0.078  0.00  0.00    +0.012 C 
ATOM      9  C   UNL     1      -2.443   3.889   0.115  0.00  0.00    +0.048 C 
ATOM     10  C   UNL     1      -1.176   3.112  -0.125  0.00  0.00    -0.038 A 
ATOM     11  C   UNL     1      -1.215   1.715  -0.161  0.00  0.00    +0.000 A 
ATOM     12  C   UNL     1      -0.038   0.991  -0.340  0.00  0.00    +0.010 A 
ATOM     13  C   UNL     1       1.158   1.660  -0.511  0.00  0.00    +0.001 A 
ATOM     14  C   UNL     1       1.187   3.043  -0.498  0.00  0.00    +0.000 A 
ATOM     15  C   UNL     1       0.023   3.767  -0.302  0.00  0.00    +0.004 A 
ENDROOT
BRANCH   1  18
ATOM     16  C   UNL     1      -1.937  -0.761   1.464  0.00  0.00    +0.217 C 
ATOM     17  O   UNL     1      -1.435   0.029   2.236  0.00  0.00    -0.275 OA
ATOM     18  N   UNL     1      -2.546  -0.318   0.347  0.00  0.00    -0.284 N 
ATOM     19  H   UNL     1      -3.010  -0.943  -0.232  0.00  0.00    +0.155 HD
BRANCH  16  21
ATOM     20  C   UNL     1      -1.139  -2.469   3.075  0.00  0.00    +0.013 C 
ATOM     21  C   UNL     1      -1.879  -2.239   1.756  0.00  0.00    +0.093 C 
ENDBRANCH  16  21
ENDBRANCH   1  18
BRANCH   2  22
ATOM     22  C   UNL     1      -4.919   1.081   0.097  0.00  0.00    +0.097 C 
ATOM     23  N   UNL     1      -5.917   0.567   0.276  0.00  0.00    -0.191 NA
ENDBRANCH   2  22
TORSDOF 3
