REMARK  Name = ZINC39533334
REMARK  11 active torsions:
REMARK  status: ('A' for Active; 'I' for Inactive)
REMARK    1  A    between atoms: C_1  and  C_2
REMARK    2  A    between atoms: C_2  and  C_3
REMARK    3  A    between atoms: C_2  and  C_4
REMARK    4  A    between atoms: C_4  and  C_5
REMARK    5  A    between atoms: C_8  and  C_11
REMARK    6  A    between atoms: C_11  and  C_13
REMARK    7  A    between atoms: C_11  and  N_16
REMARK    8  A    between atoms: C_13  and  N_14
REMARK    9  A    between atoms: N_14  and  O_15
REMARK   10  A    between atoms: C_20  and  C_23
REMARK   11  A    between atoms: C_28  and  O_29
REMARK                            x       y       z     vdW  Elec       q    Type
REMARK                         _______ _______ _______ _____ _____    ______ ____
ROOT
ATOM      1  C   UNL     1       6.260   1.167  -1.083  0.00  0.00    +0.103 C 
ENDROOT
BRANCH   1   2
ATOM      2  N   UNL     1       7.122   0.002  -1.323  0.00  0.00    -0.297 NA
ATOM      3  C   UNL     1       7.299  -0.785  -0.095  0.00  0.00    +0.066 C 
ATOM      4  C   UNL     1       8.152  -2.018  -0.401  0.00  0.00    -0.066 C 
ATOM      5  N   UNL     1       9.457  -1.594  -0.924  0.00  0.00    +0.385 N 
ATOM      6  C   UNL     1       9.265  -0.830  -2.164  0.00  0.00    -0.023 C 
ATOM      7  C   UNL     1       8.422   0.413  -1.872  0.00  0.00    +0.074 C 
ATOM      8  H   UNL     1       9.920  -1.014  -0.240  0.00  0.00    -0.085 HD
ATOM      9  H   UNL     1      10.024  -2.407  -1.114  0.00  0.00    -0.085 HD
BRANCH   6  10
ATOM     10  C   UNL     1      10.607  -0.411  -2.708  0.00  0.00    -0.019 A 
ATOM     11  C   UNL     1      11.712  -0.387  -1.879  0.00  0.00    +0.005 A 
ATOM     12  C   UNL     1      12.943  -0.002  -2.378  0.00  0.00    +0.000 A 
ATOM     13  C   UNL     1      13.071   0.359  -3.707  0.00  0.00    +0.004 A 
ATOM     14  C   UNL     1      11.969   0.337  -4.539  0.00  0.00    +0.045 A 
ATOM     15  C   UNL     1      10.734  -0.054  -4.042  0.00  0.00    +0.118 A 
BRANCH  15  16
ATOM     16  O   UNL     1       9.649  -0.083  -4.861  0.00  0.00    -0.507 OA
ATOM     17  H   UNL     1       9.156   0.748  -4.890  0.00  0.00    +0.292 HD
ENDBRANCH  15  16
ENDBRANCH   6  10
ENDBRANCH   1   2
BRANCH   1  21
ATOM     18  C   UNL     1       2.165   0.004  -1.436  0.00  0.00    -0.047 A 
ATOM     19  C   UNL     1       2.516   1.337  -1.539  0.00  0.00    +0.004 A 
ATOM     20  C   UNL     1       3.841   1.713  -1.424  0.00  0.00    +0.005 A 
ATOM     21  C   UNL     1       4.815   0.757  -1.207  0.00  0.00    -0.029 A 
ATOM     22  C   UNL     1       4.463  -0.576  -1.103  0.00  0.00    +0.005 A 
ATOM     23  C   UNL     1       3.138  -0.952  -1.213  0.00  0.00    +0.004 A 
BRANCH  18  24
ATOM     24  C   UNL     1       0.720  -0.406  -1.560  0.00  0.00    +0.038 C 
BRANCH  24  26
ATOM     25  C   UNL     1       0.032   1.052   0.348  0.00  0.00    +0.007 C 
ATOM     26  C   UNL     1       0.062  -0.384  -0.179  0.00  0.00    -0.013 C 
ATOM     27  C   UNL     1      -1.367  -0.919  -0.286  0.00  0.00    +0.007 C 
ENDBRANCH  24  26
ENDBRANCH  18  24
ENDBRANCH   1  21
BRANCH   1  28
ATOM     28  C   UNL     1       6.517   1.710   0.324  0.00  0.00    +0.134 C 
BRANCH  28  29
ATOM     29  N   UNL     1       7.925   2.114   0.443  0.00  0.00    -0.202 NA
ATOM     30  H   UNL     1       8.539   1.321   0.338  0.00  0.00    +0.154 HD
BRANCH  29  31
ATOM     31  O   UNL     1       8.167   2.801   1.712  0.00  0.00    -0.315 OA
ATOM     32  H   UNL     1       9.083   3.087   1.836  0.00  0.00    +0.236 HD
ENDBRANCH  29  31
ENDBRANCH  28  29
ENDBRANCH   1  28
TORSDOF 9
