REMARK  Name = ZINC15670975
REMARK  5 active torsions:
REMARK  status: ('A' for Active; 'I' for Inactive)
REMARK    1  A    between atoms: C_7  and  N_27
REMARK    2  A    between atoms: C_8  and  C_17
REMARK    3  A    between atoms: C_11  and  N_12
REMARK    4  A    between atoms: N_19  and  C_20
REMARK    5  A    between atoms: C_20  and  C_21
REMARK                            x       y       z     vdW  Elec       q    Type
REMARK                         _______ _______ _______ _____ _____    ______ ____
ROOT
ATOM      1  C   UNL     1      -2.432  -0.043   0.677  0.00  0.00    +0.005 C 
ATOM      2  C   UNL     1      -2.484   1.286  -0.086  0.00  0.00    +0.005 C 
ATOM      3  C   UNL     1      -1.289   2.136   0.342  0.00  0.00    +0.039 C 
ATOM      4  C   UNL     1      -0.010   1.345   0.230  0.00  0.00    -0.005 A 
ATOM      5  C   UNL     1       0.006  -0.008   0.159  0.00  0.00    -0.030 A 
ATOM      6  C   UNL     1       1.254  -0.687   0.073  0.00  0.00    +0.031 A 
ATOM      7  C   UNL     1       1.496  -2.119  -0.004  0.00  0.00    +0.054 A 
ATOM      8  C   UNL     1       2.800  -2.558  -0.084  0.00  0.00    +0.097 A 
ATOM      9  S   UNL     1       3.746  -1.048  -0.056  0.00  0.00    -0.064 S 
ATOM     10  C   UNL     1       2.413   0.119   0.059  0.00  0.00    +0.089 A 
ATOM     11  C   UNL     1       1.197   2.061   0.208  0.00  0.00    +0.103 A 
ATOM     12  C   UNL     1      -1.241  -0.848   0.158  0.00  0.00    +0.036 C 
ATOM     13  N   UNL     1       2.420   1.471   0.122  0.00  0.00    -0.337 N 
ATOM     14  H   UNL     1       3.291   2.016   0.107  0.00  0.00    +0.168 HD
ENDROOT
BRANCH  11  15
ATOM     15  N   UNL     1       1.173   3.447   0.276  0.00  0.00    -0.316 N 
ATOM     16  C   UNL     1       0.585   3.907   1.559  0.00  0.00    +0.106 C 
ATOM     17  C   UNL     1       1.108   5.359   1.689  0.00  0.00    +0.020 C 
ATOM     18  C   UNL     1       2.545   5.260   1.127  0.00  0.00    +0.020 C 
ATOM     19  C   UNL     1       2.543   4.003   0.238  0.00  0.00    +0.106 C 
ENDBRANCH  11  15
BRANCH   8  20
ATOM     20  C   UNL     1       3.274  -3.889  -0.167  0.00  0.00    +0.253 C 
ATOM     21  O   UNL     1       2.486  -4.817  -0.174  0.00  0.00    -0.270 OA
ATOM     22  N   UNL     1       4.599  -4.130  -0.238  0.00  0.00    -0.308 N 
ATOM     23  H   UNL     1       5.227  -3.391  -0.233  0.00  0.00    +0.149 HD
BRANCH  22  24
ATOM     24  C   UNL     1       5.089  -5.508  -0.325  0.00  0.00    +0.136 C 
BRANCH  24  25
ATOM     25  C   UNL     1       6.618  -5.501  -0.394  0.00  0.00    +0.135 C 
ATOM     26  C   UNL     1       7.152  -6.934  -0.611  0.00  0.00    +0.035 C 
ATOM     27  C   UNL     1       8.442  -6.987   0.237  0.00  0.00    +0.031 C 
ATOM     28  C   UNL     1       8.534  -5.579   0.867  0.00  0.00    +0.160 C 
ATOM     29  O   UNL     1       7.177  -5.087   0.872  0.00  0.00    -0.375 OA
ENDBRANCH  24  25
ENDBRANCH  22  24
ENDBRANCH   8  20
BRANCH   7  30
ATOM     30  N   UNL     1       0.441  -3.020   0.002  0.00  0.00    -0.356 N 
ATOM     31  H   UNL     1      -0.425  -2.756  -0.348  0.00  0.00    +0.142 HD
ATOM     32  H   UNL     1       0.568  -3.914   0.356  0.00  0.00    +0.142 HD
ENDBRANCH   7  30
TORSDOF 5
