REMARK  Name = ZINC03238415
REMARK  11 active torsions:
REMARK  status: ('A' for Active; 'I' for Inactive)
REMARK    1  A    between atoms: C_1  and  C_2
REMARK    2  A    between atoms: C_2  and  O_3
REMARK    3  A    between atoms: O_3  and  C_4
REMARK    4  A    between atoms: C_4  and  C_6
REMARK    5  A    between atoms: C_10  and  N_11
REMARK    6  A    between atoms: C_12  and  C_13
REMARK    7  A    between atoms: C_14  and  C_15
REMARK    8  A    between atoms: C_22  and  C_27
REMARK    9  A    between atoms: C_22  and  C_28
REMARK   10  A    between atoms: C_23  and  C_25
REMARK   11  A    between atoms: C_23  and  C_26
REMARK                            x       y       z     vdW  Elec       q    Type
REMARK                         _______ _______ _______ _____ _____    ______ ____
ROOT
ATOM      1  C   UNL     1      -4.377   1.106  -0.178  0.00  0.00    +0.095 A 
ATOM      2  C   UNL     1      -3.551   1.834   0.688  0.00  0.00    -0.024 A 
ATOM      3  C   UNL     1      -3.404   3.162   0.437  0.00  0.00    -0.016 A 
ATOM      4  S   UNL     1      -4.388   3.452  -1.008  0.00  0.00    -0.075 S 
ATOM      5  C   UNL     1      -4.989   1.787  -1.244  0.00  0.00    +0.116 A 
ATOM      6  C   UNL     1      -2.591   4.138   1.221  0.00  0.00    -0.041 C 
ATOM      7  C   UNL     1      -1.518   2.053   2.074  0.00  0.00    -0.069 C 
ATOM      8  C   UNL     1      -2.806   1.247   1.883  0.00  0.00    +0.024 C 
ATOM      9  C   UNL     1      -0.580   1.794   0.891  0.00  0.00    -0.010 C 
ATOM     10  C   UNL     1      -0.824   1.535   3.348  0.00  0.00    -0.010 C 
ATOM     11  C   UNL     1      -3.551   5.122   1.915  0.00  0.00    -0.005 C 
ATOM     12  C   UNL     1      -1.700   4.942   0.264  0.00  0.00    -0.005 C 
ATOM     13  N   UNL     1      -1.756   3.504   2.281  0.00  0.00    +0.389 N 
ATOM     14  H   UNL     1      -2.231   3.628   3.183  0.00  0.00    -0.084 HD
ATOM     15  H   UNL     1      -0.847   3.981   2.305  0.00  0.00    -0.084 HD
ENDROOT
BRANCH   1  16
ATOM     16  C   UNL     1      -4.610  -0.328   0.010  0.00  0.00    +0.342 C 
ATOM     17  O   UNL     1      -5.537  -0.708   0.700  0.00  0.00    -0.245 OA
BRANCH  16  18
ATOM     18  O   UNL     1      -3.796  -1.226  -0.582  0.00  0.00    -0.461 OA
BRANCH  18  20
ATOM     19  C   UNL     1      -3.065  -3.491  -1.099  0.00  0.00    +0.048 C 
ATOM     20  C   UNL     1      -4.087  -2.630  -0.352  0.00  0.00    +0.229 C 
ENDBRANCH  18  20
ENDBRANCH  16  18
ENDBRANCH   1  16
BRANCH   5  21
ATOM     21  N   UNL     1      -5.814   1.307  -2.195  0.00  0.00    -0.247 NA
ATOM     22  C   UNL     1      -6.289   2.110  -3.119  0.00  0.00    +0.127 C 
BRANCH  22  23
ATOM     23  C   UNL     1      -7.152   1.607  -4.114  0.00  0.00    +0.037 C 
ATOM     24  C   UNL     1      -7.643   2.435  -5.067  0.00  0.00    +0.024 C 
ATOM     25 BR   UNL     1      -7.625  -0.224  -4.118  0.00  0.00    -0.049 Br
BRANCH  24  26
ATOM     26  C   UNL     1      -8.669   1.952  -6.003  0.00  0.00    -0.024 A 
ATOM     27  C   UNL     1      -8.676   2.398  -7.330  0.00  0.00    +0.008 A 
ATOM     28  C   UNL     1      -9.638   1.937  -8.203  0.00  0.00    +0.001 A 
ATOM     29  C   UNL     1     -10.602   1.044  -7.767  0.00  0.00    +0.000 A 
ATOM     30  C   UNL     1     -10.605   0.603  -6.455  0.00  0.00    +0.001 A 
ATOM     31  C   UNL     1      -9.647   1.050  -5.571  0.00  0.00    +0.008 A 
ENDBRANCH  24  26
ENDBRANCH  22  23
ENDBRANCH   5  21
TORSDOF 6
