REMARK  Name = ZINC08881728
REMARK  11 active torsions:
REMARK  status: ('A' for Active; 'I' for Inactive)
REMARK    1  A    between atoms: C_1  and  C_2
REMARK    2  A    between atoms: C_2  and  C_35
REMARK    3  A    between atoms: C_5  and  C_33
REMARK    4  A    between atoms: C_6  and  N_13
REMARK    5  A    between atoms: C_9  and  C_11
REMARK    6  A    between atoms: C_9  and  C_12
REMARK    7  A    between atoms: C_14  and  C_16
REMARK    8  A    between atoms: C_19  and  S_22
REMARK    9  A    between atoms: S_22  and  N_25
REMARK   10  A    between atoms: N_25  and  C_26
REMARK   11  A    between atoms: N_25  and  C_27
REMARK                            x       y       z     vdW  Elec       q    Type
REMARK                         _______ _______ _______ _____ _____    ______ ____
ROOT
ATOM      1  N   UNL     1      -1.320   3.464   0.027  0.00  0.00    -0.275 N 
ATOM      2  C   UNL     1      -1.305   2.117   0.020  0.00  0.00    +0.249 C 
ATOM      3  O   UNL     1      -2.351   1.497   0.021  0.00  0.00    -0.270 OA
ATOM      4  H   UNL     1      -0.373   4.025   0.025  0.00  0.00    +0.156 HD
ENDROOT
BRANCH   1  10
ATOM      5  C   UNL     1      -5.685   7.148  -2.178  0.00  0.00    -0.010 C 
ATOM      6  C   UNL     1      -5.915   7.481  -0.701  0.00  0.00    -0.069 C 
ATOM      7  C   UNL     1      -4.577   7.426   0.044  0.00  0.00    +0.024 C 
ATOM      8  C   UNL     1      -4.116   5.974   0.051  0.00  0.00    -0.021 A 
ATOM      9  C   UNL     1      -2.744   5.517   0.045  0.00  0.00    +0.084 A 
ATOM     10  C   UNL     1      -2.528   4.144   0.037  0.00  0.00    +0.090 A 
ATOM     11  S   UNL     1      -4.133   3.490   0.042  0.00  0.00    -0.078 S 
ATOM     12  C   UNL     1      -5.056   4.999   0.056  0.00  0.00    -0.015 A 
ATOM     13  C   UNL     1      -6.538   5.192   0.078  0.00  0.00    -0.041 C 
ATOM     14  N   UNL     1      -6.903   6.591  -0.113  0.00  0.00    +0.389 N 
ATOM     15  C   UNL     1      -7.181   4.319  -1.009  0.00  0.00    -0.005 C 
ATOM     16  C   UNL     1      -7.067   4.717   1.444  0.00  0.00    -0.005 C 
ATOM     17  C   UNL     1      -6.442   8.926  -0.619  0.00  0.00    -0.010 C 
ATOM     18  H   UNL     1      -7.174   6.955   0.889  0.00  0.00    -0.084 HD
ATOM     19  H   UNL     1      -7.800   6.568  -0.750  0.00  0.00    -0.084 HD
BRANCH   9  20
ATOM     20  C   UNL     1      -1.642   6.432   0.051  0.00  0.00    +0.102 C 
ATOM     21  N   UNL     1      -0.768   7.158   0.056  0.00  0.00    -0.191 NA
ENDBRANCH   9  20
ENDBRANCH   1  10
BRANCH   2  22
ATOM     22  C   UNL     1      -0.017   1.392   0.010  0.00  0.00    +0.037 A 
ATOM     23  C   UNL     1       1.186   2.100   0.002  0.00  0.00    +0.015 A 
ATOM     24  C   UNL     1       2.385   1.417  -0.013  0.00  0.00    +0.029 A 
ATOM     25  C   UNL     1       2.396   0.034  -0.020  0.00  0.00    +0.106 A 
ATOM     26  C   UNL     1       1.208  -0.674  -0.013  0.00  0.00    +0.029 A 
ATOM     27  C   UNL     1       0.002  -0.004   0.002  0.00  0.00    +0.015 A 
BRANCH  25  28
ATOM     28  S   UNL     1       3.932  -0.830  -0.040  0.00  0.00    +0.061 S 
ATOM     29  O   UNL     1       4.902   0.053   0.507  0.00  0.00    -0.153 OA
ATOM     30  O   UNL     1       3.680  -2.118   0.506  0.00  0.00    -0.153 OA
BRANCH  28  31
ATOM     31  N   UNL     1       4.344  -1.061  -1.627  0.00  0.00    -0.177 NA
ATOM     32  C   UNL     1       5.148  -0.058  -2.328  0.00  0.00    +0.132 C 
BRANCH  31  33
ATOM     33  C   UNL     1       3.904  -2.269  -2.329  0.00  0.00    +0.080 C 
ATOM     34  C   UNL     1       5.126  -3.050  -2.816  0.00  0.00    +0.020 C 
ATOM     35  C   UNL     1       4.667  -4.311  -3.550  0.00  0.00    +0.002 C 
ATOM     36  C   UNL     1       3.802  -3.917  -4.749  0.00  0.00    +0.000 C 
ATOM     37  C   UNL     1       2.580  -3.137  -4.262  0.00  0.00    +0.002 C 
ATOM     38  C   UNL     1       3.039  -1.875  -3.529  0.00  0.00    +0.020 C 
ENDBRANCH  31  33
ENDBRANCH  28  31
ENDBRANCH  25  28
ENDBRANCH   2  22
TORSDOF 6
