REMARK  Name = ZINC34993217
REMARK  11 active torsions:
REMARK  status: ('A' for Active; 'I' for Inactive)
REMARK    1  A    between atoms: C_1  and  C_2
REMARK    2  A    between atoms: C_2  and  C_3
REMARK    3  A    between atoms: C_3  and  N_4
REMARK    4  A    between atoms: C_5  and  C_7
REMARK    5  A    between atoms: C_7  and  C_9
REMARK    6  A    between atoms: C_7  and  N_10
REMARK    7  A    between atoms: N_10  and  C_11
REMARK    8  A    between atoms: C_11  and  C_12
REMARK    9  A    between atoms: C_17  and  O_18
REMARK   10  A    between atoms: O_18  and  C_19
REMARK   11  A    between atoms: C_19  and  C_20
REMARK                            x       y       z     vdW  Elec       q    Type
REMARK                         _______ _______ _______ _____ _____    ______ ____
ROOT
ATOM      1  N   UNL     1      -3.929  -4.704   0.014  0.00  0.00    +0.389 N 
ATOM      2  H   UNL     1      -4.426  -4.312   0.800  0.00  0.00    -0.084 HD
ATOM      3  H   UNL     1      -4.392  -4.438  -0.842  0.00  0.00    -0.084 HD
ENDROOT
BRANCH   1   4
ATOM      4  C   UNL     1      -2.551  -4.195   0.004  0.00  0.00    +0.013 C 
ATOM      5  C   UNL     1      -1.835  -4.688  -1.255  0.00  0.00    -0.004 C 
BRANCH   4   7
ATOM      6  N   UNL     1      -1.413  -1.998   0.005  0.00  0.00    -0.317 N 
ATOM      7  C   UNL     1      -2.571  -2.688   0.012  0.00  0.00    +0.199 C 
ATOM      8  O   UNL     1      -3.630  -2.096   0.025  0.00  0.00    -0.278 OA
ATOM      9  H   UNL     1      -0.567  -2.472  -0.006  0.00  0.00    +0.149 HD
BRANCH   6  10
ATOM     10  C   UNL     1      -1.433  -0.534   0.013  0.00  0.00    +0.104 C 
BRANCH  10  12
ATOM     11  C   UNL     1      -0.019   1.526   0.010  0.00  0.00    +0.005 C 
ATOM     12  C   UNL     1       0.002  -0.004   0.002  0.00  0.00    +0.015 C 
ENDBRANCH  10  12
ENDBRANCH   6  10
ENDBRANCH   4   7
ENDBRANCH   1   4
BRANCH   1  13
ATOM     13  C   UNL     1      -3.910  -6.168   0.127  0.00  0.00    -0.042 C 
BRANCH  13  14
ATOM     14  C   UNL     1      -5.324  -6.690   0.138  0.00  0.00    -0.021 A 
ATOM     15  C   UNL     1      -5.927  -7.028   1.334  0.00  0.00    +0.020 A 
ATOM     16  C   UNL     1      -7.224  -7.507   1.345  0.00  0.00    +0.019 A 
ATOM     17  C   UNL     1      -7.921  -7.648   0.158  0.00  0.00    +0.034 A 
ATOM     18  C   UNL     1      -7.322  -7.312  -1.040  0.00  0.00    +0.061 A 
ATOM     19  C   UNL     1      -6.022  -6.825  -1.053  0.00  0.00    +0.136 A 
ATOM     20 BR   UNL     1      -8.275  -7.507  -2.662  0.00  0.00    -0.046 Br
ATOM     21 BR   UNL     1      -8.046  -7.969   2.984  0.00  0.00    -0.050 Br
BRANCH  19  22
ATOM     22  O   UNL     1      -5.433  -6.487  -2.230  0.00  0.00    -0.491 OA
BRANCH  22  23
ATOM     23  C   UNL     1      -4.713  -7.515  -2.914  0.00  0.00    +0.226 C 
ATOM     24  C   UNL     1      -4.124  -6.951  -4.208  0.00  0.00    +0.048 C 
ENDBRANCH  22  23
ENDBRANCH  19  22
ENDBRANCH  13  14
ENDBRANCH   1  13
TORSDOF 8
