REMARK  Name = ZINC39636594
REMARK  9 active torsions:
REMARK  status: ('A' for Active; 'I' for Inactive)
REMARK    1  A    between atoms: C_1  and  C_2
REMARK    2  A    between atoms: C_2  and  C_3
REMARK    3  A    between atoms: C_3  and  C_5
REMARK    4  A    between atoms: C_3  and  C_11
REMARK    5  A    between atoms: C_15  and  C_24
REMARK    6  A    between atoms: N_26  and  C_27
REMARK    7  A    between atoms: C_27  and  C_28
REMARK    8  A    between atoms: C_30  and  C_35
REMARK    9  A    between atoms: C_33  and  C_34
REMARK                            x       y       z     vdW  Elec       q    Type
REMARK                         _______ _______ _______ _____ _____    ______ ____
ROOT
ATOM      1  C   UNL     1      -1.954  -0.167  -0.922  0.00  0.00    +0.223 C 
ATOM      2  O   UNL     1      -2.648  -0.896  -1.600  0.00  0.00    -0.275 OA
ATOM      3  N   UNL     1      -1.987   1.166  -1.117  0.00  0.00    -0.300 N 
ATOM      4  C   UNL     1      -1.295   2.216  -0.332  0.00  0.00    +0.121 C 
ATOM      5  C   UNL     1      -0.817   3.239  -1.386  0.00  0.00    +0.100 C 
ATOM      6  C   UNL     1      -1.760   3.038  -2.584  0.00  0.00    -0.004 C 
ATOM      7  C   UNL     1      -2.719   1.914  -2.167  0.00  0.00    +0.115 C 
ATOM      8  C   UNL     1      -2.537   4.320  -2.867  0.00  0.00    -0.010 C 
ATOM      9  C   UNL     1      -3.424   4.113  -4.098  0.00  0.00    -0.082 C 
ATOM     10  N   UNL     1      -2.588   3.760  -5.252  0.00  0.00    +0.379 N 
ATOM     11  C   UNL     1      -1.916   2.478  -5.009  0.00  0.00    -0.082 C 
ATOM     12  C   UNL     1      -0.965   2.616  -3.817  0.00  0.00    -0.010 C 
ATOM     13  H   UNL     1      -3.168   3.684  -6.074  0.00  0.00    -0.086 HD
ATOM     14  H   UNL     1      -1.896   4.479  -5.397  0.00  0.00    -0.086 HD
ENDROOT
BRANCH   5  15
ATOM     15  C   UNL     1       0.609   2.956  -1.784  0.00  0.00    +0.218 C 
ATOM     16  O   UNL     1       1.015   1.814  -1.811  0.00  0.00    -0.275 OA
ATOM     17  N   UNL     1       1.433   3.973  -2.108  0.00  0.00    -0.311 N 
ATOM     18  H   UNL     1       1.131   4.890  -2.016  0.00  0.00    +0.149 HD
BRANCH  17  19
ATOM     19  C   UNL     1       2.783   3.692  -2.601  0.00  0.00    +0.139 C 
BRANCH  19  20
ATOM     20  C   UNL     1       3.534   4.987  -2.774  0.00  0.00    -0.027 A 
ATOM     21  C   UNL     1       3.707   5.522  -4.037  0.00  0.00    +0.008 A 
ATOM     22  C   UNL     1       4.395   6.710  -4.197  0.00  0.00    -0.050 A 
ATOM     23  C   UNL     1       4.911   7.363  -3.093  0.00  0.00    +0.003 A 
ATOM     24  C   UNL     1       4.737   6.829  -1.830  0.00  0.00    +0.004 A 
ATOM     25  C   UNL     1       4.045   5.643  -1.670  0.00  0.00    -0.046 A 
ATOM     26  C   UNL     1       3.852   5.063  -0.293  0.00  0.00    +0.044 C 
ATOM     27  C   UNL     1       4.584   7.293  -5.573  0.00  0.00    +0.044 C 
ENDBRANCH  19  20
ENDBRANCH  17  19
ENDBRANCH   5  15
BRANCH   1  28
ATOM     28  C   UNL     1      -1.056  -0.752   0.137  0.00  0.00    +0.105 C 
BRANCH  28  29
ATOM     29  C   UNL     1      -1.835  -0.928   1.415  0.00  0.00    -0.036 A 
ATOM     30  C   UNL     1      -2.949  -1.747   1.438  0.00  0.00    +0.004 A 
ATOM     31  C   UNL     1      -3.664  -1.909   2.611  0.00  0.00    +0.000 A 
ATOM     32  C   UNL     1      -3.264  -1.252   3.760  0.00  0.00    +0.000 A 
ATOM     33  C   UNL     1      -2.150  -0.434   3.736  0.00  0.00    +0.000 A 
ATOM     34  C   UNL     1      -1.433  -0.276   2.565  0.00  0.00    +0.004 A 
ENDBRANCH  28  29
BRANCH  28  36
ATOM     35  C   UNL     1       0.373  -1.915  -1.550  0.00  0.00    +0.005 C 
ATOM     36  C   UNL     1      -0.532  -2.111  -0.332  0.00  0.00    +0.014 C 
ENDBRANCH  28  36
ENDBRANCH   1  28
TORSDOF 6
