REMARK  Name = ZINC08790814
REMARK  7 active torsions:
REMARK  status: ('A' for Active; 'I' for Inactive)
REMARK    1  A    between atoms: C_1  and  C_2
REMARK    2  A    between atoms: C_2  and  C_3
REMARK    3  A    between atoms: C_3  and  C_5
REMARK    4  A    between atoms: C_3  and  N_6
REMARK    5  A    between atoms: C_7  and  C_9
REMARK    6  A    between atoms: C_14  and  N_15
REMARK    7  A    between atoms: C_31  and  C_36
REMARK                            x       y       z     vdW  Elec       q    Type
REMARK                         _______ _______ _______ _____ _____    ______ ____
ROOT
ATOM      1  N   UNL     1       1.351   2.431   4.846  0.00  0.00    -0.192 N 
ATOM      2  C   UNL     1       2.342   3.313   4.601  0.00  0.00    +0.248 C 
ATOM      3  O   UNL     1       2.223   4.479   4.290  0.00  0.00    -0.273 OA
ATOM      4  C   UNL     1       3.635   2.549   4.801  0.00  0.00    +0.169 C 
ATOM      5  C   UNL     1       4.409   2.502   3.478  0.00  0.00    +0.069 C 
ATOM      6  C   UNL     1       5.302   1.287   3.462  0.00  0.00    -0.015 A 
ATOM      7  C   UNL     1       6.461   1.055   2.620  0.00  0.00    +0.003 A 
ATOM      8  C   UNL     1       7.080   1.826   1.632  0.00  0.00    +0.010 A 
ATOM      9  C   UNL     1       8.183   1.282   1.022  0.00  0.00    +0.001 A 
ATOM     10  C   UNL     1       8.669   0.030   1.360  0.00  0.00    +0.002 A 
ATOM     11  C   UNL     1       8.076  -0.754   2.335  0.00  0.00    +0.026 A 
ATOM     12  C   UNL     1       6.954  -0.227   2.972  0.00  0.00    +0.047 A 
ATOM     13  N   UNL     1       6.144  -0.717   3.956  0.00  0.00    -0.356 N 
ATOM     14  H   UNL     1       6.248  -1.580   4.386  0.00  0.00    +0.166 HD
ATOM     15  C   UNL     1       5.164   0.195   4.243  0.00  0.00    +0.041 A 
ATOM     16  C   UNL     1       4.074   0.040   5.285  0.00  0.00    +0.122 C 
ATOM     17  N   UNL     1       3.166   1.179   5.102  0.00  0.00    -0.265 N 
ATOM     18  C   UNL     1       1.833   1.216   5.143  0.00  0.00    +0.317 C 
ATOM     19  O   UNL     1       1.135   0.259   5.418  0.00  0.00    -0.252 OA
ATOM     20  C   UNL     1       3.320  -1.274   5.066  0.00  0.00    +0.035 C 
ENDROOT
BRANCH   1  26
ATOM     21  C   UNL     1      -0.714   2.606   3.585  0.00  0.00    +0.059 A 
ATOM     22  C   UNL     1      -2.072   2.926   3.540  0.00  0.00    +0.015 A 
ATOM     23  C   UNL     1      -2.713   3.365   4.679  0.00  0.00    +0.001 A 
ATOM     24  C   UNL     1      -2.013   3.501   5.867  0.00  0.00    +0.002 A 
ATOM     25  C   UNL     1      -0.668   3.193   5.924  0.00  0.00    +0.025 A 
ATOM     26  C   UNL     1      -0.008   2.744   4.789  0.00  0.00    +0.058 A 
BRANCH  21  28
ATOM     27  N   UNL     1      -0.704   1.998   1.216  0.00  0.00    -0.309 N 
ATOM     28  C   UNL     1      -0.023   2.130   2.371  0.00  0.00    +0.246 C 
ATOM     29  O   UNL     1       1.161   1.857   2.413  0.00  0.00    -0.270 OA
ATOM     30  H   UNL     1      -1.649   2.216   1.182  0.00  0.00    +0.149 HD
BRANCH  27  31
ATOM     31  C   UNL     1      -0.019   1.526   0.010  0.00  0.00    +0.070 C 
ATOM     32  C   UNL     1       0.002  -0.004   0.002  0.00  0.00    +0.028 C 
BRANCH  31  34
ATOM     33  C   UNL     1      -0.672   3.559  -1.286  0.00  0.00    +0.005 C 
ATOM     34  C   UNL     1      -0.759   2.033  -1.229  0.00  0.00    +0.018 C 
ENDBRANCH  31  34
ENDBRANCH  27  31
ENDBRANCH  21  28
ENDBRANCH   1  26
TORSDOF 4
