REMARK  Name = ZINC09116672
REMARK  9 active torsions:
REMARK  status: ('A' for Active; 'I' for Inactive)
REMARK    1  A    between atoms: C_4  and  S_7
REMARK    2  A    between atoms: S_7  and  N_10
REMARK    3  A    between atoms: N_10  and  C_11
REMARK    4  A    between atoms: C_11  and  C_12
REMARK    5  A    between atoms: C_12  and  C_13
REMARK    6  A    between atoms: C_19  and  S_22
REMARK    7  A    between atoms: S_22  and  C_23
REMARK    8  A    between atoms: C_23  and  C_24
REMARK    9  A    between atoms: N_26  and  C_27
REMARK                            x       y       z     vdW  Elec       q    Type
REMARK                         _______ _______ _______ _____ _____    ______ ____
ROOT
ATOM      1  C   UNL     1      -5.354   5.206   0.057  0.00  0.00    +0.156 A 
ATOM      2  N   UNL     1      -6.647   5.420   0.065  0.00  0.00    -0.132 NA
ATOM      3  N   UNL     1      -7.282   4.301   0.061  0.00  0.00    -0.128 NA
ATOM      4  C   UNL     1      -6.411   3.305   0.051  0.00  0.00    +0.178 A 
ATOM      5  N   UNL     1      -5.160   3.870   0.049  0.00  0.00    -0.196 N 
ATOM      6  N   UNL     1      -4.024   3.058   0.043  0.00  0.00    -0.157 NA
ATOM      7  C   UNL     1      -4.141   1.750   0.031  0.00  0.00    +0.118 A 
ATOM      8  C   UNL     1      -5.410   1.138   0.034  0.00  0.00    +0.040 A 
ATOM      9  C   UNL     1      -6.535   1.902   0.044  0.00  0.00    +0.053 A 
ENDROOT
BRANCH   1  10
ATOM     10  C   UNL     1      -4.278   6.261   0.058  0.00  0.00    +0.095 C 
BRANCH  10  11
ATOM     11  C   UNL     1      -3.906   6.609   1.501  0.00  0.00    +0.113 C 
BRANCH  11  12
ATOM     12  N   UNL     1      -2.860   7.635   1.502  0.00  0.00    -0.190 NA
ATOM     13  H   UNL     1      -2.365   7.824   0.689  0.00  0.00    +0.148 HD
BRANCH  12  14
ATOM     14  S   UNL     1      -2.521   8.471   2.890  0.00  0.00    +0.058 S 
ATOM     15  O   UNL     1      -1.458   9.361   2.579  0.00  0.00    -0.153 OA
ATOM     16  O   UNL     1      -3.766   8.922   3.406  0.00  0.00    -0.153 OA
BRANCH  14  20
ATOM     17  C   UNL     1      -0.883   5.493   5.880  0.00  0.00    +0.000 A 
ATOM     18  C   UNL     1      -0.024   6.159   5.026  0.00  0.00    +0.002 A 
ATOM     19  C   UNL     1      -0.524   7.068   4.113  0.00  0.00    +0.028 A 
ATOM     20  C   UNL     1      -1.883   7.312   4.054  0.00  0.00    +0.105 A 
ATOM     21  C   UNL     1      -2.742   6.650   4.912  0.00  0.00    +0.028 A 
ATOM     22  C   UNL     1      -2.243   5.737   5.822  0.00  0.00    +0.002 A 
ENDBRANCH  14  20
ENDBRANCH  12  14
ENDBRANCH  11  12
ENDBRANCH  10  11
ENDBRANCH   1  10
BRANCH   7  23
ATOM     23  S   UNL     1      -2.692   0.747   0.019  0.00  0.00    -0.095 S 
BRANCH  23  24
ATOM     24  C   UNL     1      -1.330   1.944   0.019  0.00  0.00    +0.171 C 
BRANCH  24  25
ATOM     25  C   UNL     1      -0.014   1.209   0.009  0.00  0.00    +0.223 C 
ATOM     26  O   UNL     1       0.002  -0.004   0.002  0.00  0.00    -0.275 OA
ATOM     27  N   UNL     1       1.143   1.898   0.001  0.00  0.00    -0.312 N 
ATOM     28  H   UNL     1       1.130   2.868   0.007  0.00  0.00    +0.149 HD
BRANCH  27  29
ATOM     29  C   UNL     1       2.422   1.183  -0.015  0.00  0.00    +0.073 C 
ATOM     30  C   UNL     1       2.819   0.817   1.417  0.00  0.00    +0.022 C 
ATOM     31  C   UNL     1       4.155   0.070   1.400  0.00  0.00    +0.002 C 
ATOM     32  C   UNL     1       5.232   0.965   0.785  0.00  0.00    +0.000 C 
ATOM     33  C   UNL     1       4.835   1.332  -0.647  0.00  0.00    +0.002 C 
ATOM     34  C   UNL     1       3.499   2.078  -0.630  0.00  0.00    +0.022 C 
ENDBRANCH  27  29
ENDBRANCH  24  25
ENDBRANCH  23  24
ENDBRANCH   7  23
TORSDOF 9
