REMARK  Name = ZINC02766721
REMARK  4 active torsions:
REMARK  status: ('A' for Active; 'I' for Inactive)
REMARK    1  A    between atoms: C_3  and  C_8
REMARK    2  A    between atoms: C_5  and  O_7
REMARK    3  A    between atoms: C_10  and  C_21
REMARK    4  A    between atoms: C_13  and  C_18
REMARK                            x       y       z     vdW  Elec       q    Type
REMARK                         _______ _______ _______ _____ _____    ______ ____
ROOT
ATOM      1  C   UNL     1      -1.246  -0.871   0.226  0.00  0.00    +0.025 C 
ATOM      2  C   UNL     1      -2.403  -0.164   0.234  0.00  0.00    +0.044 C 
ATOM      3  C   UNL     1      -3.709  -0.851   0.246  0.00  0.00    +0.108 C 
ATOM      4  N   UNL     1      -4.762  -0.342   0.825  0.00  0.00    -0.162 NA
ATOM      5  N   UNL     1      -4.749   0.897   1.459  0.00  0.00    -0.185 N 
ATOM      6  C   UNL     1      -5.636   1.439   2.335  0.00  0.00    +0.221 A 
ATOM      7  N   UNL     1      -5.188   2.625   2.659  0.00  0.00    -0.126 NA
ATOM      8  N   UNL     1      -4.079   2.868   2.044  0.00  0.00    -0.120 NA
ATOM      9  C   UNL     1      -3.768   1.851   1.298  0.00  0.00    +0.217 A 
ATOM     10  S   UNL     1      -2.383   1.609   0.238  0.00  0.00    -0.046 S 
ENDROOT
BRANCH   3  11
ATOM     11  C   UNL     1      -3.829  -2.165  -0.424  0.00  0.00    +0.039 A 
ATOM     12  C   UNL     1      -4.093  -3.312   0.325  0.00  0.00    +0.016 A 
ATOM     13  C   UNL     1      -4.209  -4.533  -0.304  0.00  0.00    +0.039 A 
ATOM     14  C   UNL     1      -4.053  -4.627  -1.678  0.00  0.00    +0.126 A 
ATOM     15  C   UNL     1      -3.786  -3.493  -2.429  0.00  0.00    +0.077 A 
ATOM     16  C   UNL     1      -3.673  -2.263  -1.809  0.00  0.00    +0.135 A 
ATOM     17  F   UNL     1      -3.413  -1.158  -2.541  0.00  0.00    -0.205 F 
ATOM     18  F   UNL     1      -4.162  -5.827  -2.288  0.00  0.00    -0.205 F 
ENDBRANCH   3  11
BRANCH   1  21
ATOM     19  C   UNL     1       2.383   0.029   0.525  0.00  0.00    +0.004 A 
ATOM     20  C   UNL     1       1.182  -0.624   0.707  0.00  0.00    +0.008 A 
ATOM     21  C   UNL     1       0.037  -0.180   0.035  0.00  0.00    -0.020 A 
ATOM     22  C   UNL     1       0.120   0.926  -0.818  0.00  0.00    +0.053 A 
ATOM     23  C   UNL     1       1.331   1.571  -0.991  0.00  0.00    +0.117 A 
ATOM     24  C   UNL     1       2.461   1.121  -0.320  0.00  0.00    +0.045 A 
BRANCH  23  25
ATOM     25  O   UNL     1       1.416   2.645  -1.819  0.00  0.00    -0.507 OA
ATOM     26  H   UNL     1       1.252   3.492  -1.383  0.00  0.00    +0.292 HD
ENDBRANCH  23  25
ENDBRANCH   1  21
BRANCH   6  27
ATOM     27  C   UNL     1      -6.901   0.794   2.840  0.00  0.00    +0.410 C 
ATOM     28  F   UNL     1      -7.847   1.784   3.127  0.00  0.00    -0.200 F 
ATOM     29  F   UNL     1      -7.408  -0.067   1.861  0.00  0.00    -0.200 F 
ENDBRANCH   6  27
TORSDOF 4
