REMARK  Name = ZINC00857732
REMARK  4 active torsions:
REMARK  status: ('A' for Active; 'I' for Inactive)
REMARK    1  A    between atoms: C_10  and  N_11
REMARK    2  A    between atoms: N_11  and  C_12
REMARK    3  A    between atoms: C_15  and  S_18
REMARK    4  A    between atoms: S_18  and  N_21
REMARK                            x       y       z     vdW  Elec       q    Type
REMARK                         _______ _______ _______ _____ _____    ______ ____
ROOT
ATOM      1  C   UNL     1       1.044   4.088  -0.099  0.00  0.00    +0.031 A 
ATOM      2  C   UNL     1       1.254   2.744  -0.380  0.00  0.00    +0.025 A 
ATOM      3  C   UNL     1       0.196   1.948  -0.772  0.00  0.00    +0.031 A 
ATOM      4  C   UNL     1      -1.071   2.489  -0.891  0.00  0.00    +0.111 A 
ATOM      5  C   UNL     1      -1.285   3.826  -0.607  0.00  0.00    +0.031 A 
ATOM      6  C   UNL     1      -0.232   4.627  -0.214  0.00  0.00    +0.025 A 
ENDROOT
BRANCH   4   7
ATOM      7  S   UNL     1      -2.417   1.472  -1.399  0.00  0.00    +0.080 S 
ATOM      8  O   UNL     1      -3.393   2.340  -1.959  0.00  0.00    -0.148 OA
ATOM      9  O   UNL     1      -1.855   0.388  -2.126  0.00  0.00    -0.148 OA
BRANCH   7  10
ATOM     10  N   UNL     1      -3.087   0.827  -0.029  0.00  0.00    -0.228 N 
ATOM     11  C   UNL     1      -3.693   1.648   0.892  0.00  0.00    +0.186 C 
ATOM     12  N   UNL     1      -4.249   1.112   2.030  0.00  0.00    -0.370 N 
ATOM     13  H   UNL     1      -3.053  -0.131   0.123  0.00  0.00    +0.191 HD
ATOM     14  H   UNL     1      -4.144   3.596   1.280  0.00  0.00    +0.159 HD
ATOM     15  H   UNL     1      -4.215   0.154   2.182  0.00  0.00    +0.159 HD
ATOM     16  H   UNL     1      -4.676   1.691   2.680  0.00  0.00    +0.159 HD
ATOM     17  N   UNL     1      -3.707   2.946   0.626  0.00  0.00    -0.370 N 
ATOM     18  H   UNL     1      -3.277   3.297  -0.238  0.00  0.00    +0.159 HD
ENDBRANCH   7  10
ENDBRANCH   4   7
BRANCH   1  19
ATOM     19  N   UNL     1       2.112   4.896   0.299  0.00  0.00    -0.320 N 
ATOM     20  H   UNL     1       3.002   4.519   0.380  0.00  0.00    +0.152 HD
BRANCH  19  30
ATOM     21  C   UNL     1       7.489   9.080   1.805  0.00  0.00    +0.000 A 
ATOM     22  C   UNL     1       7.739   7.984   0.999  0.00  0.00    +0.001 A 
ATOM     23  C   UNL     1       6.702   7.157   0.616  0.00  0.00    +0.012 A 
ATOM     24  C   UNL     1       5.403   7.436   1.037  0.00  0.00    +0.025 A 
ATOM     25  C   UNL     1       5.160   8.523   1.877  0.00  0.00    -0.036 A 
ATOM     26  C   UNL     1       6.205   9.348   2.245  0.00  0.00    +0.004 A 
ATOM     27  C   UNL     1       3.775   8.782   2.404  0.00  0.00    +0.040 C 
ATOM     28  C   UNL     1       2.722   8.424   1.355  0.00  0.00    +0.045 C 
ATOM     29  C   UNL     1       2.954   7.028   0.839  0.00  0.00    +0.014 C 
ATOM     30  C   UNL     1       1.903   6.218   0.575  0.00  0.00    +0.079 C 
ATOM     31  C   UNL     1       4.275   6.570   0.626  0.00  0.00    +0.191 C 
ATOM     32  O   UNL     1       4.480   5.484   0.114  0.00  0.00    -0.287 OA
ENDBRANCH  19  30
ENDBRANCH   1  19
TORSDOF 4
