REMARK  Name = ZINC39665042
REMARK  8 active torsions:
REMARK  status: ('A' for Active; 'I' for Inactive)
REMARK    1  A    between atoms: C_1  and  C_2
REMARK    2  A    between atoms: C_2  and  C_4
REMARK    3  A    between atoms: C_2  and  O_31
REMARK    4  A    between atoms: C_4  and  N_5
REMARK    5  A    between atoms: C_6  and  C_8
REMARK    6  A    between atoms: C_19  and  C_21
REMARK    7  A    between atoms: C_24  and  C_27
REMARK    8  A    between atoms: O_31  and  C_32
REMARK                            x       y       z     vdW  Elec       q    Type
REMARK                         _______ _______ _______ _____ _____    ______ ____
ROOT
ATOM      1  C   UNL     1      -0.898  -4.906   1.341  0.00  0.00    +0.100 C 
ATOM      2  C   UNL     1      -0.206  -5.068   2.713  0.00  0.00    +0.121 C 
ATOM      3  N   UNL     1      -1.237  -5.684   3.581  0.00  0.00    -0.296 N 
ATOM      4  C   UNL     1      -1.920  -6.664   2.704  0.00  0.00    +0.115 C 
ATOM      5  C   UNL     1      -2.020  -5.958   1.337  0.00  0.00    -0.004 C 
ATOM      6  C   UNL     1      -1.802  -6.960   0.208  0.00  0.00    -0.010 C 
ATOM      7  C   UNL     1      -2.961  -7.960   0.188  0.00  0.00    -0.082 C 
ATOM      8  N   UNL     1      -4.226  -7.243  -0.005  0.00  0.00    +0.379 N 
ATOM      9  C   UNL     1      -4.474  -6.349   1.133  0.00  0.00    -0.082 C 
ATOM     10  C   UNL     1      -3.379  -5.280   1.192  0.00  0.00    -0.010 C 
ATOM     11  C   UNL     1      -1.494  -5.414   4.877  0.00  0.00    +0.247 C 
ATOM     12  O   UNL     1      -0.916  -4.502   5.434  0.00  0.00    -0.270 OA
ATOM     13  H   UNL     1      -4.177  -6.699  -0.854  0.00  0.00    -0.086 HD
ATOM     14  H   UNL     1      -4.981  -7.908  -0.079  0.00  0.00    -0.086 HD
ENDROOT
BRANCH  11  15
ATOM     15  C   UNL     1      -2.480  -6.228   5.619  0.00  0.00    +0.037 A 
ATOM     16  C   UNL     1      -2.810  -7.509   5.173  0.00  0.00    +0.013 A 
ATOM     17  C   UNL     1      -3.731  -8.263   5.871  0.00  0.00    +0.013 A 
ATOM     18  C   UNL     1      -4.326  -7.753   7.011  0.00  0.00    +0.055 A 
ATOM     19  C   UNL     1      -4.004  -6.484   7.458  0.00  0.00    +0.013 A 
ATOM     20  C   UNL     1      -3.080  -5.721   6.773  0.00  0.00    +0.013 A 
BRANCH  18  21
ATOM     21  C   UNL     1      -5.331  -8.582   7.768  0.00  0.00    +0.417 C 
ATOM     22  F   UNL     1      -4.670  -9.345   8.737  0.00  0.00    -0.166 F 
ATOM     23  F   UNL     1      -6.258  -7.739   8.390  0.00  0.00    -0.166 F 
ATOM     24  F   UNL     1      -5.998  -9.432   6.879  0.00  0.00    -0.166 F 
ENDBRANCH  18  21
ENDBRANCH  11  15
BRANCH   1  26
ATOM     25  N   UNL     1      -1.605  -2.961  -0.014  0.00  0.00    -0.312 N 
ATOM     26  C   UNL     1      -1.476  -3.521   1.205  0.00  0.00    +0.218 C 
ATOM     27  O   UNL     1      -1.826  -2.911   2.193  0.00  0.00    -0.275 OA
ATOM     28  H   UNL     1      -1.325  -3.449  -0.804  0.00  0.00    +0.149 HD
BRANCH  25  29
ATOM     29  C   UNL     1      -2.167  -1.615  -0.146  0.00  0.00    +0.148 C 
BRANCH  29  31
ATOM     30  C   UNL     1      -2.790   0.187  -1.761  0.00  0.00    +0.053 C 
ATOM     31  C   UNL     1      -2.202  -1.219  -1.623  0.00  0.00    +0.187 C 
BRANCH  31  32
ATOM     32  O   UNL     1      -0.875  -1.235  -2.152  0.00  0.00    -0.488 OA
BRANCH  32  33
ATOM     33  C   UNL     1      -0.747  -1.429  -3.491  0.00  0.00    +0.121 A 
ATOM     34  C   UNL     1       0.513  -1.577  -4.054  0.00  0.00    +0.045 A 
ATOM     35  C   UNL     1       0.640  -1.775  -5.415  0.00  0.00    +0.004 A 
ATOM     36  C   UNL     1      -0.485  -1.826  -6.216  0.00  0.00    +0.000 A 
ATOM     37  C   UNL     1      -1.741  -1.678  -5.658  0.00  0.00    +0.004 A 
ATOM     38  C   UNL     1      -1.875  -1.486  -4.296  0.00  0.00    +0.045 A 
ENDBRANCH  32  33
ENDBRANCH  31  32
ENDBRANCH  29  31
ENDBRANCH  25  29
ENDBRANCH   1  26
TORSDOF 7
