REMARK  Name = ZINC11350721
REMARK  13 active torsions:
REMARK  status: ('A' for Active; 'I' for Inactive)
REMARK    1  A    between atoms: C_1  and  C_2
REMARK    2  A    between atoms: C_2  and  C_3
REMARK    3  A    between atoms: C_3  and  C_4
REMARK    4  A    between atoms: C_4  and  N_5
REMARK    5  A    between atoms: C_6  and  N_34
REMARK    6  A    between atoms: C_7  and  N_14
REMARK    7  A    between atoms: N_14  and  C_15
REMARK    8  A    between atoms: N_14  and  C_18
REMARK    9  A    between atoms: C_15  and  C_16
REMARK   10  A    between atoms: C_16  and  C_17
REMARK   11  A    between atoms: C_18  and  C_19
REMARK   12  A    between atoms: N_21  and  C_22
REMARK   13  A    between atoms: C_25  and  N_28
REMARK                            x       y       z     vdW  Elec       q    Type
REMARK                         _______ _______ _______ _____ _____    ______ ____
ROOT
ATOM      1  N   UNL     1       3.676   6.188  -0.091  0.00  0.00    -0.314 N 
ENDROOT
BRANCH   1   4
ATOM      2  N   UNL     1       4.133   9.569  -1.442  0.00  0.00    -0.280 N 
ATOM      3  C   UNL     1       4.135   8.196  -1.353  0.00  0.00    +0.127 A 
ATOM      4  C   UNL     1       3.685   7.597  -0.208  0.00  0.00    +0.134 A 
ATOM      5  C   UNL     1       3.225   8.404   0.848  0.00  0.00    +0.277 A 
ATOM      6  O   UNL     1       2.814   7.893   1.876  0.00  0.00    -0.266 OA
ATOM      7  N   UNL     1       3.247   9.745   0.719  0.00  0.00    -0.273 N 
ATOM      8  H   UNL     1       2.929  10.320   1.473  0.00  0.00    +0.173 HD
ATOM      9  C   UNL     1       3.692  10.317  -0.414  0.00  0.00    +0.331 A 
ATOM     10  O   UNL     1       3.697  11.529  -0.510  0.00  0.00    -0.246 OA
BRANCH   3  11
ATOM     11  N   UNL     1       4.586   7.432  -2.406  0.00  0.00    -0.343 N 
ATOM     12  H   UNL     1       4.585   6.465  -2.338  0.00  0.00    +0.144 HD
ATOM     13  H   UNL     1       4.904   7.862  -3.215  0.00  0.00    +0.144 HD
ENDBRANCH   3  11
BRANCH   2  14
ATOM     14  C   UNL     1       4.612  10.221  -2.664  0.00  0.00    +0.128 C 
BRANCH  14  15
ATOM     15  C   UNL     1       3.444  10.411  -3.633  0.00  0.00    +0.021 C 
BRANCH  15  17
ATOM     16  C   UNL     1       2.777  11.281  -5.878  0.00  0.00    +0.004 C 
ATOM     17  C   UNL     1       3.945  11.091  -4.909  0.00  0.00    -0.002 C 
ENDBRANCH  15  17
ENDBRANCH  14  15
ENDBRANCH   2  14
ENDBRANCH   1   4
BRANCH   1  18
ATOM     18  C   UNL     1       4.513   5.748   1.033  0.00  0.00    +0.105 C 
BRANCH  18  19
ATOM     19  C   UNL     1       5.978   6.080   0.739  0.00  0.00    +0.015 C 
ATOM     20  C   UNL     1       6.849   5.622   1.910  0.00  0.00    +0.005 C 
ENDBRANCH  18  19
ENDBRANCH   1  18
BRANCH   1  21
ATOM     21  C   UNL     1       2.305   5.679   0.043  0.00  0.00    +0.201 C 
BRANCH  21  22
ATOM     22  C   UNL     1       2.312   4.177  -0.082  0.00  0.00    +0.235 C 
ATOM     23  O   UNL     1       3.357   3.588  -0.264  0.00  0.00    -0.274 OA
ATOM     24  N   UNL     1       1.157   3.487   0.010  0.00  0.00    -0.284 N 
ATOM     25  H   UNL     1       0.315   3.961   0.089  0.00  0.00    +0.155 HD
BRANCH  24  26
ATOM     26  C   UNL     1       1.174   2.087  -0.010  0.00  0.00    +0.034 A 
ATOM     27  C   UNL     1       0.271   1.371   0.764  0.00  0.00    +0.025 A 
ATOM     28  C   UNL     1       0.288  -0.010   0.745  0.00  0.00    +0.025 A 
ATOM     29  C   UNL     1       1.208  -0.682  -0.049  0.00  0.00    +0.036 A 
ATOM     30  C   UNL     1       2.111   0.035  -0.824  0.00  0.00    +0.025 A 
ATOM     31  C   UNL     1       2.094   1.415  -0.804  0.00  0.00    +0.025 A 
BRANCH  29  32
ATOM     32  N   UNL     1       1.225  -2.082  -0.069  0.00  0.00    -0.271 N 
ATOM     33  C   UNL     1       0.402  -2.933   0.799  0.00  0.00    +0.114 C 
ATOM     34  C   UNL     1       1.054  -4.332   0.743  0.00  0.00    +0.029 C 
ATOM     35  C   UNL     1       1.768  -4.293  -0.628  0.00  0.00    +0.098 C 
ATOM     36  C   UNL     1       1.994  -2.820  -0.888  0.00  0.00    +0.220 C 
ATOM     37  O   UNL     1       2.759  -2.370  -1.715  0.00  0.00    -0.275 OA
ENDBRANCH  29  32
ENDBRANCH  24  26
ENDBRANCH  21  22
ENDBRANCH   1  21
TORSDOF 11
