REMARK  Name = ZINC36810319
REMARK  3 active torsions:
REMARK  status: ('A' for Active; 'I' for Inactive)
REMARK    1  A    between atoms: C_16  and  C_18
REMARK    2  A    between atoms: C_18  and  C_19
REMARK    3  A    between atoms: C_19  and  C_20
REMARK                            x       y       z     vdW  Elec       q    Type
REMARK                         _______ _______ _______ _____ _____    ______ ____
ROOT
ATOM      1  C   UNL     1      -0.012   1.524   0.022  0.00  0.00    +0.000 C 
ATOM      2  C   UNL     1       1.424   2.051   0.008  0.00  0.00    +0.000 C 
ATOM      3  C   UNL     1       2.134   1.560  -1.255  0.00  0.00    +0.005 C 
ATOM      4  C   UNL     1       2.155   0.030  -1.269  0.00  0.00    +0.010 C 
ATOM      5  C   UNL     1       2.856  -0.450  -2.544  0.00  0.00    +0.113 C 
ATOM      6  N   UNL     1       2.752  -1.913  -2.621  0.00  0.00    -0.285 N 
ATOM      7  C   UNL     1       1.423  -2.532  -2.524  0.00  0.00    +0.109 C 
ATOM      8  C   UNL     1       0.740  -2.032  -1.247  0.00  0.00    +0.023 C 
ATOM      9  C   UNL     1       0.720  -0.501  -1.242  0.00  0.00    -0.005 C 
ATOM     10  C   UNL     1       0.009  -0.005   0.012  0.00  0.00    +0.004 C 
ATOM     11  C   UNL     1       3.854  -2.673  -2.777  0.00  0.00    +0.308 C 
ATOM     12  O   UNL     1       4.936  -2.147  -2.947  0.00  0.00    -0.252 OA
ATOM     13  N   UNL     1       3.756  -4.017  -2.743  0.00  0.00    -0.240 N 
ATOM     14  C   UNL     1       4.870  -4.775  -2.795  0.00  0.00    +0.221 C 
ATOM     15  O   UNL     1       5.959  -4.248  -2.872  0.00  0.00    -0.275 OA
ATOM     16  H   UNL     1       2.885  -4.439  -2.682  0.00  0.00    +0.159 HD
ENDROOT
BRANCH  14  17
ATOM     17  C   UNL     1       4.760  -6.278  -2.758  0.00  0.00    +0.107 C 
BRANCH  17  18
ATOM     18  C   UNL     1       6.159  -6.893  -2.830  0.00  0.00    +0.134 C 
BRANCH  18  19
ATOM     19  C   UNL     1       6.050  -8.396  -2.793  0.00  0.00    +0.356 C 
ATOM     20  O   UNL     1       4.955  -8.925  -2.716  0.00  0.00    -0.246 OA
ATOM     21  O   UNL     1       7.057  -9.081  -2.840  0.00  0.00    -0.246 OA
ENDBRANCH  18  19
ENDBRANCH  17  18
ENDBRANCH  14  17
TORSDOF 3
