REMARK  Name = ZINC20392646
REMARK  5 active torsions:
REMARK  status: ('A' for Active; 'I' for Inactive)
REMARK    1  A    between atoms: C_1  and  C_2
REMARK    2  A    between atoms: C_8  and  C_14
REMARK    3  A    between atoms: C_9  and  C_11
REMARK    4  A    between atoms: C_11  and  C_12
REMARK    5  A    between atoms: C_12  and  N_13
REMARK                            x       y       z     vdW  Elec       q    Type
REMARK                         _______ _______ _______ _____ _____    ______ ____
ROOT
ATOM      1  C   UNL     1       0.680   5.760  -2.219  0.00  0.00    +0.064 C 
ATOM      2  C   UNL     1       2.065   6.233  -1.859  0.00  0.00    +0.023 A 
ATOM      3  C   UNL     1       2.618   7.261  -2.537  0.00  0.00    +0.021 A 
ATOM      4  C   UNL     1       3.908   7.711  -2.211  0.00  0.00    +0.005 A 
ATOM      5  C   UNL     1       4.600   7.106  -1.208  0.00  0.00    +0.047 A 
ATOM      6  C   UNL     1       4.009   6.034  -0.511  0.00  0.00    +0.139 A 
ATOM      7  N   UNL     1       2.751   5.614  -0.855  0.00  0.00    -0.296 N 
ATOM      8  C   UNL     1       2.432   4.571  -0.016  0.00  0.00    +0.077 A 
ATOM      9  C   UNL     1       3.507   4.383   0.806  0.00  0.00    +0.066 A 
ATOM     10  N   UNL     1       4.442   5.275   0.489  0.00  0.00    -0.232 NA
ENDROOT
BRANCH   8  11
ATOM     11  C   UNL     1       1.173   3.799  -0.009  0.00  0.00    +0.002 A 
ATOM     12  C   UNL     1       0.742   3.150  -1.168  0.00  0.00    +0.011 A 
ATOM     13  C   UNL     1      -0.434   2.430  -1.155  0.00  0.00    +0.022 A 
ATOM     14  C   UNL     1      -1.186   2.346   0.004  0.00  0.00    +0.059 A 
ATOM     15  C   UNL     1      -0.768   2.993   1.157  0.00  0.00    +0.060 A 
ATOM     16  C   UNL     1       0.408   3.716   1.157  0.00  0.00    +0.031 A 
ATOM     17 CL   UNL     1      -1.720   2.887   2.604  0.00  0.00    -0.082 Cl
ATOM     18 CL   UNL     1      -2.662   1.432   0.014  0.00  0.00    -0.082 Cl
ENDBRANCH   8  11
BRANCH   9  19
ATOM     19  C   UNL     1       3.615   3.342   1.890  0.00  0.00    +0.038 C 
BRANCH  19  20
ATOM     20  C   UNL     1       4.328   2.105   1.340  0.00  0.00    -0.080 C 
BRANCH  20  21
ATOM     21  N   UNL     1       4.539   1.138   2.425  0.00  0.00    +0.378 N 
ATOM     22  H   UNL     1       5.051   0.249   2.029  0.00  0.00    -0.090 HD
ATOM     23  H   UNL     1       3.567   0.843   2.848  0.00  0.00    -0.090 HD
ATOM     24  H   UNL     1       5.157   1.598   3.211  0.00  0.00    -0.090 HD
ENDBRANCH  20  21
ENDBRANCH  19  20
ENDBRANCH   9  19
TORSDOF 4
