REMARK  Name = ZINC12070163
REMARK  16 active torsions:
REMARK  status: ('A' for Active; 'I' for Inactive)
REMARK    1  A    between atoms: C_1  and  C_2
REMARK    2  A    between atoms: C_2  and  O_3
REMARK    3  A    between atoms: O_3  and  C_4
REMARK    4  A    between atoms: C_6  and  C_16
REMARK    5  A    between atoms: C_8  and  O_13
REMARK    6  A    between atoms: C_9  and  O_10
REMARK    7  A    between atoms: O_10  and  C_11
REMARK    8  A    between atoms: C_11  and  C_12
REMARK    9  A    between atoms: O_13  and  C_14
REMARK   10  A    between atoms: C_14  and  C_15
REMARK   11  A    between atoms: C_22  and  C_24
REMARK   12  A    between atoms: C_24  and  C_25
REMARK   13  A    between atoms: C_28  and  S_31
REMARK   14  A    between atoms: S_31  and  C_34
REMARK   15  A    between atoms: C_34  and  C_35
REMARK   16  A    between atoms: C_34  and  C_36
REMARK                            x       y       z     vdW  Elec       q    Type
REMARK                         _______ _______ _______ _____ _____    ______ ____
ROOT
ATOM      1  C   UNL     1       1.718   5.653   0.015  0.00  0.00    +0.250 A 
ATOM      2  N   UNL     1       0.408   5.576   0.027  0.00  0.00    -0.106 NA
ATOM      3  N   UNL     1       0.053   4.339   0.019  0.00  0.00    -0.092 NA
ATOM      4  C   UNL     1       1.121   3.579   0.011  0.00  0.00    +0.314 A 
ATOM      5  O   UNL     1       2.195   4.390   0.005  0.00  0.00    -0.405 OA
ATOM      6  N   UNL     1       1.139   2.192   0.003  0.00  0.00    -0.238 N 
ATOM      7  C   UNL     1      -0.018   1.503   0.010  0.00  0.00    +0.225 C 
ATOM      8  O   UNL     1      -1.077   2.095   0.018  0.00  0.00    -0.275 OA
ATOM      9  H   UNL     1       1.986   1.719  -0.008  0.00  0.00    +0.159 HD
ENDROOT
BRANCH   1  12
ATOM     10  C   UNL     1       2.643   9.296   0.025  0.00  0.00    +0.166 A 
ATOM     11  C   UNL     1       1.888   8.136   0.026  0.00  0.00    +0.063 A 
ATOM     12  C   UNL     1       2.521   6.892   0.014  0.00  0.00    +0.046 A 
ATOM     13  C   UNL     1       3.916   6.822   0.007  0.00  0.00    +0.063 A 
ATOM     14  C   UNL     1       4.666   7.984  -0.001  0.00  0.00    +0.166 A 
ATOM     15  C   UNL     1       4.032   9.223   0.012  0.00  0.00    +0.204 A 
BRANCH  10  16
ATOM     16  O   UNL     1       2.027  10.508   0.038  0.00  0.00    -0.488 OA
BRANCH  16  18
ATOM     17  C   UNL     1       0.089  11.952   0.064  0.00  0.00    +0.048 C 
ATOM     18  C   UNL     1       0.598  10.509   0.051  0.00  0.00    +0.226 C 
ENDBRANCH  16  18
ENDBRANCH  10  16
BRANCH  15  19
ATOM     19  O   UNL     1       4.773  10.364   0.011  0.00  0.00    -0.485 OA
BRANCH  19  20
ATOM     20  C   UNL     1       5.138  10.902   1.283  0.00  0.00    +0.226 C 
ATOM     21  C   UNL     1       5.961  12.175   1.082  0.00  0.00    +0.048 C 
ENDBRANCH  19  20
ENDBRANCH  15  19
BRANCH  14  22
ATOM     22  O   UNL     1       6.024   7.916  -0.014  0.00  0.00    -0.488 OA
BRANCH  22  23
ATOM     23  C   UNL     1       6.608   6.612  -0.026  0.00  0.00    +0.226 C 
ATOM     24  C   UNL     1       8.133   6.736  -0.040  0.00  0.00    +0.048 C 
ENDBRANCH  22  23
ENDBRANCH  14  22
ENDBRANCH   1  12
BRANCH   7  25
ATOM     25  C   UNL     1       0.002  -0.004   0.002  0.00  0.00    +0.131 C 
BRANCH  25  26
ATOM     26  C   UNL     1      -1.412  -0.526   0.013  0.00  0.00    -0.039 A 
ATOM     27  C   UNL     1      -2.047  -0.777   1.215  0.00  0.00    +0.006 A 
ATOM     28  C   UNL     1      -3.345  -1.251   1.224  0.00  0.00    +0.027 A 
ATOM     29  C   UNL     1      -4.005  -1.483   0.032  0.00  0.00    +0.088 A 
ATOM     30  C   UNL     1      -3.369  -1.237  -1.170  0.00  0.00    +0.027 A 
ATOM     31  C   UNL     1      -2.072  -0.758  -1.179  0.00  0.00    +0.006 A 
BRANCH  29  32
ATOM     32  S   UNL     1      -5.659  -2.092   0.045  0.00  0.00    -0.001 S 
ATOM     33  O   UNL     1      -6.195  -1.659   1.288  0.00  0.00    -0.169 OA
ATOM     34  O   UNL     1      -6.219  -1.644  -1.182  0.00  0.00    -0.169 OA
BRANCH  32  35
ATOM     35  C   UNL     1      -5.491  -3.898   0.032  0.00  0.00    +0.130 C 
ATOM     36  C   UNL     1      -4.713  -4.346   1.271  0.00  0.00    +0.032 C 
ATOM     37  C   UNL     1      -6.880  -4.539   0.042  0.00  0.00    +0.032 C 
ENDBRANCH  32  35
ENDBRANCH  29  32
ENDBRANCH  25  26
ENDBRANCH   7  25
TORSDOF 11
