REMARK  Name = ZINC06058181
REMARK  9 active torsions:
REMARK  status: ('A' for Active; 'I' for Inactive)
REMARK    1  A    between atoms: C_1  and  C_2
REMARK    2  A    between atoms: C_5  and  C_8
REMARK    3  A    between atoms: C_11  and  S_14
REMARK    4  A    between atoms: N_12  and  N_13
REMARK    5  A    between atoms: S_14  and  C_15
REMARK    6  A    between atoms: C_15  and  C_16
REMARK    7  A    between atoms: N_18  and  C_19
REMARK    8  A    between atoms: C_19  and  C_21
REMARK    9  A    between atoms: C_19  and  C_22
REMARK                            x       y       z     vdW  Elec       q    Type
REMARK                         _______ _______ _______ _____ _____    ______ ____
ROOT
ATOM      1  C   UNL     1       9.840   1.829  -3.882  0.00  0.00    +0.182 A 
ATOM      2  N   UNL     1       9.020   0.840  -3.611  0.00  0.00    -0.127 NA
ATOM      3  N   UNL     1       7.888   1.304  -3.219  0.00  0.00    -0.121 NA
ATOM      4  C   UNL     1       7.912   2.618  -3.224  0.00  0.00    +0.209 A 
ATOM      5  N   UNL     1       9.155   2.998  -3.643  0.00  0.00    -0.224 N 
ENDROOT
BRANCH   1  10
ATOM      6  C   UNL     1      15.271   1.361  -5.725  0.00  0.00    +0.044 C 
ATOM      7  C   UNL     1      13.849   1.484  -5.243  0.00  0.00    -0.050 A 
ATOM      8  C   UNL     1      13.402   2.681  -4.711  0.00  0.00    +0.004 A 
ATOM      9  C   UNL     1      12.101   2.799  -4.268  0.00  0.00    +0.012 A 
ATOM     10  C   UNL     1      11.235   1.708  -4.356  0.00  0.00    +0.021 A 
ATOM     11  C   UNL     1      11.693   0.502  -4.888  0.00  0.00    +0.012 A 
ATOM     12  C   UNL     1      12.995   0.399  -5.333  0.00  0.00    +0.004 A 
ENDBRANCH   1  10
BRANCH   5  13
ATOM     13  N   UNL     1       9.622   4.273  -3.792  0.00  0.00    -0.295 N 
ATOM     14  H   UNL     1      10.128   4.571  -2.972  0.00  0.00    +0.163 HD
ATOM     15  H   UNL     1      10.194   4.354  -4.620  0.00  0.00    +0.163 HD
ENDBRANCH   5  13
BRANCH   4  16
ATOM     16  S   UNL     1       6.590   3.689  -2.768  0.00  0.00    -0.075 S 
BRANCH  16  17
ATOM     17  C   UNL     1       5.324   2.466  -2.347  0.00  0.00    +0.173 C 
BRANCH  17  18
ATOM     18  C   UNL     1       4.066   3.173  -1.915  0.00  0.00    +0.224 C 
ATOM     19  O   UNL     1       4.028   4.385  -1.894  0.00  0.00    -0.275 OA
ATOM     20  N   UNL     1       2.982   2.459  -1.553  0.00  0.00    -0.308 N 
ATOM     21  H   UNL     1       3.012   1.489  -1.570  0.00  0.00    +0.149 HD
BRANCH  20  22
ATOM     22  C   UNL     1       1.758   3.146  -1.133  0.00  0.00    +0.102 C 
ATOM     23  C   UNL     1       1.850   3.487   0.356  0.00  0.00    +0.033 C 
BRANCH  22  24
ATOM     24  C   UNL     1       0.571   2.249  -1.371  0.00  0.00    -0.009 A 
ATOM     25  C   UNL     1       0.737   0.877  -1.405  0.00  0.00    +0.007 A 
ATOM     26  C   UNL     1      -0.352   0.054  -1.623  0.00  0.00    +0.000 A 
ATOM     27  C   UNL     1      -1.607   0.602  -1.813  0.00  0.00    +0.001 A 
ATOM     28  C   UNL     1      -1.775   1.974  -1.774  0.00  0.00    +0.020 A 
ATOM     29  C   UNL     1      -0.685   2.798  -1.555  0.00  0.00    +0.046 A 
ATOM     30 CL   UNL     1      -0.895   4.521  -1.512  0.00  0.00    -0.083 Cl
ENDBRANCH  22  24
ENDBRANCH  20  22
ENDBRANCH  17  18
ENDBRANCH  16  17
ENDBRANCH   4  16
TORSDOF 7
