REMARK  Name = ZINC28312330
REMARK  11 active torsions:
REMARK  status: ('A' for Active; 'I' for Inactive)
REMARK    1  A    between atoms: C_1  and  C_2
REMARK    2  A    between atoms: C_2  and  C_3
REMARK    3  A    between atoms: C_2  and  C_4
REMARK    4  A    between atoms: C_7  and  N_10
REMARK    5  A    between atoms: N_12  and  C_30
REMARK    6  A    between atoms: C_15  and  C_18
REMARK    7  A    between atoms: C_18  and  C_19
REMARK    8  A    between atoms: N_21  and  C_22
REMARK    9  A    between atoms: C_27  and  O_28
REMARK   10  A    between atoms: O_28  and  C_29
REMARK   11  A    between atoms: C_30  and  C_31
REMARK                            x       y       z     vdW  Elec       q    Type
REMARK                         _______ _______ _______ _____ _____    ______ ____
ROOT
ATOM      1  N   UNL     1       5.233   3.036  -0.019  0.00  0.00    -0.226 NA
ATOM      2  C   UNL     1       5.573   4.019  -0.819  0.00  0.00    +0.164 C 
ATOM      3  N   UNL     1       6.809   4.616  -0.958  0.00  0.00    -0.247 N 
ATOM      4  C   UNL     1       7.024   5.606  -1.808  0.00  0.00    +0.235 C 
ATOM      5  O   UNL     1       8.113   6.128  -1.925  0.00  0.00    -0.274 OA
ATOM      6  C   UNL     1       5.823   6.049  -2.627  0.00  0.00    +0.149 C 
ATOM      7  S   UNL     1       4.546   4.893  -1.990  0.00  0.00    -0.077 S 
ENDROOT
BRANCH   1  11
ATOM      8  C   UNL     1       1.344   1.622  -0.013  0.00  0.00    -0.045 A 
ATOM      9  C   UNL     1       1.581   2.985  -0.013  0.00  0.00    +0.006 A 
ATOM     10  C   UNL     1       2.875   3.463  -0.010  0.00  0.00    +0.028 A 
ATOM     11  C   UNL     1       3.946   2.568  -0.017  0.00  0.00    +0.067 A 
ATOM     12  C   UNL     1       3.700   1.194  -0.022  0.00  0.00    +0.028 A 
ATOM     13  C   UNL     1       2.401   0.729  -0.020  0.00  0.00    +0.006 A 
BRANCH   8  15
ATOM     14  C   UNL     1      -0.802   1.616  -1.256  0.00  0.00    +0.012 C 
ATOM     15  C   UNL     1      -0.073   1.107  -0.011  0.00  0.00    +0.013 C 
ATOM     16  C   UNL     1      -0.795   1.605   1.242  0.00  0.00    +0.012 C 
ENDBRANCH   8  15
ENDBRANCH   1  11
BRANCH   6  17
ATOM     17  C   UNL     1       5.457   7.505  -2.330  0.00  0.00    +0.120 C 
BRANCH  17  18
ATOM     18  C   UNL     1       4.344   7.940  -3.248  0.00  0.00    +0.219 C 
ATOM     19  O   UNL     1       3.888   7.162  -4.060  0.00  0.00    -0.275 OA
ATOM     20  N   UNL     1       3.854   9.193  -3.167  0.00  0.00    -0.283 N 
ATOM     21  H   UNL     1       4.216   9.875  -2.383  0.00  0.00    +0.155 HD
BRANCH  20  22
ATOM     22  C   UNL     1       2.885   9.627  -4.081  0.00  0.00    +0.076 A 
ATOM     23  C   UNL     1       1.931   8.740  -4.558  0.00  0.00    +0.027 A 
ATOM     24  C   UNL     1       0.976   9.170  -5.459  0.00  0.00    +0.002 A 
ATOM     25  C   UNL     1       0.969  10.485  -5.888  0.00  0.00    +0.004 A 
ATOM     26  C   UNL     1       1.916  11.375  -5.417  0.00  0.00    +0.047 A 
ATOM     27  C   UNL     1       2.874  10.952  -4.510  0.00  0.00    +0.141 A 
BRANCH  27  28
ATOM     28  O   UNL     1       3.803  11.828  -4.042  0.00  0.00    -0.493 OA
ATOM     29  C   UNL     1       3.730  13.171  -4.526  0.00  0.00    +0.277 C 
ENDBRANCH  27  28
ENDBRANCH  20  22
ENDBRANCH  17  18
ENDBRANCH   6  17
BRANCH   3  30
ATOM     30  C   UNL     1       7.921   4.136  -0.135  0.00  0.00    +0.147 C 
BRANCH  30  31
ATOM     31  C   UNL     1       8.655   3.014  -0.873  0.00  0.00    +0.136 C 
ATOM     32  C   UNL     1       9.757   2.424   0.033  0.00  0.00    +0.035 C 
ATOM     33  C   UNL     1      10.915   2.180  -0.973  0.00  0.00    +0.031 C 
ATOM     34  C   UNL     1      10.715   3.370  -1.945  0.00  0.00    +0.160 C 
ATOM     35  O   UNL     1       9.292   3.539  -2.044  0.00  0.00    -0.375 OA
ENDBRANCH  30  31
ENDBRANCH   3  30
TORSDOF 8
