REMARK  Name = ZINC49590246
REMARK  6 active torsions:
REMARK  status: ('A' for Active; 'I' for Inactive)
REMARK    1  A    between atoms: C_1  and  C_2
REMARK    2  A    between atoms: C_2  and  C_31
REMARK    3  A    between atoms: P_13  and  C_24
REMARK    4  A    between atoms: C_15  and  C_18
REMARK    5  A    between atoms: C_16  and  N_17
REMARK    6  A    between atoms: C_24  and  C_25
REMARK                            x       y       z     vdW  Elec       q    Type
REMARK                         _______ _______ _______ _____ _____    ______ ____
ROOT
ATOM      1  C   UNL     1       0.056   2.261   0.521  0.00  0.00    +0.011 C 
ATOM      2  C   UNL     1       0.129   0.772   0.185  0.00  0.00    -0.029 C 
ATOM      3  C   UNL     1      -1.129  -0.043   0.538  0.00  0.00    -0.004 C 
ATOM      4  C   UNL     1      -0.171  -1.208   0.848  0.00  0.00    +0.008 C 
ATOM      5  C   UNL     1       0.818  -0.096   1.243  0.00  0.00    +0.005 C 
ATOM      6  C   UNL     1       0.592   0.373   2.685  0.00  0.00    +0.048 C 
ATOM      7  C   UNL     1      -0.900   0.579   2.988  0.00  0.00    +0.064 C 
ATOM      8  C   UNL     1      -1.817   0.483   1.797  0.00  0.00    +0.016 C 
ATOM      9  P   UNL     1      -1.222  -0.736   4.237  0.00  0.00    +0.126 P 
ATOM     10  O   UNL     1      -1.761  -0.162   5.502  0.00  0.00    -0.315 OA
ATOM     11  C   UNL     1       0.503  -1.331   4.467  0.00  0.00    +0.036 C 
ATOM     12  C   UNL     1       1.236  -0.640   3.591  0.00  0.00    +0.017 C 
ATOM     13  C   UNL     1       0.642   0.529  -1.241  0.00  0.00    +0.011 C 
ENDROOT
BRANCH  11  14
ATOM     14  C   UNL     1       0.978  -2.355   5.417  0.00  0.00    -0.013 A 
ATOM     15  C   UNL     1       0.571  -2.316   6.752  0.00  0.00    +0.009 A 
ATOM     16  C   UNL     1       1.019  -3.277   7.635  0.00  0.00    +0.001 A 
ATOM     17  C   UNL     1       1.869  -4.278   7.200  0.00  0.00    +0.000 A 
ATOM     18  C   UNL     1       2.276  -4.323   5.878  0.00  0.00    +0.001 A 
ATOM     19  C   UNL     1       1.832  -3.372   4.983  0.00  0.00    +0.009 A 
ENDBRANCH  11  14
BRANCH  12  20
ATOM     20  N   UNL     1       2.606  -0.857   3.522  0.00  0.00    -0.360 N 
ATOM     21  H   UNL     1       3.131  -0.427   2.829  0.00  0.00    +0.142 HD
ATOM     22  H   UNL     1       3.038  -1.438   4.168  0.00  0.00    +0.142 HD
ENDBRANCH  12  20
BRANCH   9  23
ATOM     23  C   UNL     1      -2.316  -2.061   3.624  0.00  0.00    +0.109 C 
BRANCH  23  24
ATOM     24  C   UNL     1      -2.619  -3.020   4.746  0.00  0.00    -0.040 A 
ATOM     25  C   UNL     1      -1.798  -4.110   4.964  0.00  0.00    +0.004 A 
ATOM     26  C   UNL     1      -2.076  -4.990   5.993  0.00  0.00    +0.000 A 
ATOM     27  C   UNL     1      -3.176  -4.781   6.804  0.00  0.00    +0.000 A 
ATOM     28  C   UNL     1      -3.997  -3.690   6.586  0.00  0.00    +0.000 A 
ATOM     29  C   UNL     1      -3.716  -2.808   5.559  0.00  0.00    +0.004 A 
ENDBRANCH  23  24
ENDBRANCH   9  23
TORSDOF 4
