REMARK  Name = ZINC12562960
REMARK  15 active torsions:
REMARK  status: ('A' for Active; 'I' for Inactive)
REMARK    1  A    between atoms: C_1  and  C_2
REMARK    2  A    between atoms: C_2  and  C_4
REMARK    3  A    between atoms: C_8  and  C_10
REMARK    4  A    between atoms: C_10  and  C_11
REMARK    5  A    between atoms: C_10  and  C_12
REMARK    6  A    between atoms: C_10  and  N_13
REMARK    7  A    between atoms: N_16  and  C_17
REMARK    8  A    between atoms: C_17  and  C_18
REMARK    9  A    between atoms: C_18  and  N_19
REMARK   10  A    between atoms: N_22  and  C_23
REMARK   11  A    between atoms: C_23  and  C_24
REMARK   12  A    between atoms: C_23  and  C_25
REMARK   13  A    between atoms: C_23  and  C_26
REMARK   14  A    between atoms: C_30  and  C_32
REMARK   15  A    between atoms: C_32  and  C_34
REMARK                            x       y       z     vdW  Elec       q    Type
REMARK                         _______ _______ _______ _____ _____    ______ ____
ROOT
ATOM      1  C   UNL     1       3.963   2.217  -0.431  0.00  0.00    +0.124 C 
ENDROOT
BRANCH   1   5
ATOM      2  N   UNL     1       0.454   1.149  -0.692  0.00  0.00    -0.290 N 
ATOM      3  C   UNL     1       1.546   1.909  -0.476  0.00  0.00    +0.300 C 
ATOM      4  O   UNL     1       1.422   3.062  -0.109  0.00  0.00    -0.253 OA
ATOM      5  N   UNL     1       2.776   1.391  -0.666  0.00  0.00    -0.298 N 
ATOM      6  H   UNL     1       0.553   0.230  -0.984  0.00  0.00    +0.151 HD
ATOM      7  H   UNL     1       2.875   0.472  -0.959  0.00  0.00    +0.150 HD
BRANCH   2   8
ATOM      8  C   UNL     1      -0.882   1.714  -0.491  0.00  0.00    +0.056 C 
ATOM      9  C   UNL     1      -1.036   2.156   0.966  0.00  0.00    +0.036 C 
ATOM     10  C   UNL     1      -1.070   2.921  -1.412  0.00  0.00    +0.036 C 
BRANCH   8  15
ATOM     11  C   UNL     1      -2.580  -1.327  -1.968  0.00  0.00    -0.022 A 
ATOM     12  C   UNL     1      -3.847  -1.240  -1.390  0.00  0.00    +0.008 A 
ATOM     13  C   UNL     1      -4.140  -0.201  -0.530  0.00  0.00    +0.001 A 
ATOM     14  C   UNL     1      -3.178   0.750  -0.237  0.00  0.00    +0.006 A 
ATOM     15  C   UNL     1      -1.922   0.671  -0.811  0.00  0.00    -0.024 A 
ATOM     16  C   UNL     1      -1.617  -0.362  -1.673  0.00  0.00    +0.014 A 
BRANCH  11  18
ATOM     17  C   UNL     1      -2.979  -2.553  -4.209  0.00  0.00    +0.044 C 
ATOM     18  C   UNL     1      -2.260  -2.438  -2.890  0.00  0.00    -0.050 C 
ATOM     19  C   UNL     1      -1.341  -3.333  -2.555  0.00  0.00    +0.012 C 
ENDBRANCH  11  18
ENDBRANCH   8  15
ENDBRANCH   2   8
ENDBRANCH   1   5
BRANCH   1  20
ATOM     20  C   UNL     1       5.221   1.395  -0.718  0.00  0.00    +0.124 C 
BRANCH  20  21
ATOM     21  N   UNL     1       6.408   2.221  -0.483  0.00  0.00    -0.298 N 
ATOM     22  C   UNL     1       7.638   1.703  -0.674  0.00  0.00    +0.300 C 
ATOM     23  O   UNL     1       7.762   0.550  -1.041  0.00  0.00    -0.253 OA
ATOM     24  N   UNL     1       8.730   2.462  -0.458  0.00  0.00    -0.290 N 
ATOM     25  H   UNL     1       6.309   3.140  -0.191  0.00  0.00    +0.150 HD
ATOM     26  H   UNL     1       8.631   3.382  -0.165  0.00  0.00    +0.151 HD
BRANCH  24  27
ATOM     27  C   UNL     1      10.066   1.899  -0.665  0.00  0.00    +0.056 C 
ATOM     28  C   UNL     1      10.279   0.724   0.292  0.00  0.00    +0.036 C 
ATOM     29  C   UNL     1      10.196   1.411  -2.109  0.00  0.00    +0.036 C 
BRANCH  27  30
ATOM     30  C   UNL     1      11.104   2.959  -0.398  0.00  0.00    -0.024 A 
ATOM     31  C   UNL     1      12.384   2.591  -0.020  0.00  0.00    +0.006 A 
ATOM     32  C   UNL     1      13.344   3.558   0.223  0.00  0.00    +0.001 A 
ATOM     33  C   UNL     1      13.028   4.895   0.099  0.00  0.00    +0.008 A 
ATOM     34  C   UNL     1      11.738   5.272  -0.277  0.00  0.00    -0.022 A 
ATOM     35  C   UNL     1      10.776   4.293  -0.525  0.00  0.00    +0.014 A 
BRANCH  34  36
ATOM     36  C   UNL     1      11.392   6.703  -0.410  0.00  0.00    -0.050 C 
ATOM     37  C   UNL     1      10.501   7.248   0.405  0.00  0.00    +0.012 C 
ATOM     38  C   UNL     1      12.053   7.541  -1.474  0.00  0.00    +0.044 C 
ENDBRANCH  34  36
ENDBRANCH  27  30
ENDBRANCH  24  27
ENDBRANCH  20  21
ENDBRANCH   1  20
TORSDOF 9
