REMARK  Name = ZINC58754144
REMARK  7 active torsions:
REMARK  status: ('A' for Active; 'I' for Inactive)
REMARK    1  A    between atoms: C_4  and  N_7
REMARK    2  A    between atoms: N_10  and  C_11
REMARK    3  A    between atoms: C_11  and  C_12
REMARK    4  A    between atoms: N_18  and  C_19
REMARK    5  A    between atoms: C_19  and  C_20
REMARK    6  A    between atoms: C_20  and  C_21
REMARK    7  A    between atoms: N_26  and  C_29
REMARK                            x       y       z     vdW  Elec       q    Type
REMARK                         _______ _______ _______ _____ _____    ______ ____
ROOT
ATOM      1  C   UNL     1       6.552  -4.091  -0.233  0.00  0.00    -0.051 C 
ATOM      2  C   UNL     1       6.798  -5.601  -0.226  0.00  0.00    -0.014 C 
ATOM      3  C   UNL     1       8.291  -5.870  -0.436  0.00  0.00    -0.003 C 
ATOM      4  C   UNL     1       8.739  -5.215  -1.746  0.00  0.00    -0.019 C 
ATOM      5  C   UNL     1       8.420  -3.719  -1.696  0.00  0.00    -0.078 C 
ATOM      6  N   UNL     1       6.976  -3.529  -1.520  0.00  0.00    +0.383 N 
ATOM      7  H   UNL     1       6.482  -3.993  -2.268  0.00  0.00    -0.081 HD
ENDROOT
BRANCH   1   8
ATOM      8  C   UNL     1       5.061  -3.817  -0.023  0.00  0.00    +0.090 C 
BRANCH   8  12
ATOM      9  N   UNL     1       2.283  -4.570  -2.310  0.00  0.00    -0.269 N 
ATOM     10  C   UNL     1       2.978  -4.103  -1.255  0.00  0.00    +0.304 C 
ATOM     11  O   UNL     1       2.409  -3.482  -0.378  0.00  0.00    -0.253 OA
ATOM     12  N   UNL     1       4.305  -4.324  -1.171  0.00  0.00    -0.301 N 
ATOM     13  H   UNL     1       2.721  -5.129  -2.971  0.00  0.00    +0.156 HD
ATOM     14  H   UNL     1       4.760  -4.820  -1.870  0.00  0.00    +0.150 HD
BRANCH   9  18
ATOM     15  C   UNL     1      -1.749  -3.611  -2.738  0.00  0.00    +0.000 A 
ATOM     16  C   UNL     1      -0.906  -2.757  -2.051  0.00  0.00    +0.002 A 
ATOM     17  C   UNL     1       0.431  -3.072  -1.907  0.00  0.00    +0.023 A 
ATOM     18  C   UNL     1       0.928  -4.248  -2.454  0.00  0.00    +0.035 A 
ATOM     19  C   UNL     1       0.079  -5.104  -3.143  0.00  0.00    +0.023 A 
ATOM     20  C   UNL     1      -1.257  -4.783  -3.283  0.00  0.00    +0.002 A 
ENDBRANCH   9  18
ENDBRANCH   8  12
ENDBRANCH   1   8
BRANCH   6  21
ATOM     21  C   UNL     1       6.666  -2.093  -1.552  0.00  0.00    -0.069 C 
BRANCH  21  22
ATOM     22  C   UNL     1       6.984  -1.532  -2.939  0.00  0.00    +0.077 C 
BRANCH  22  23
ATOM     23  C   UNL     1       6.666  -0.060  -2.972  0.00  0.00    +0.214 C 
ATOM     24  O   UNL     1       6.228   0.488  -1.982  0.00  0.00    -0.276 OA
ATOM     25  N   UNL     1       6.869   0.649  -4.100  0.00  0.00    -0.299 N 
ATOM     26  C   UNL     1       7.394  -0.003  -5.308  0.00  0.00    +0.126 C 
ATOM     27  C   UNL     1       6.424   0.260  -6.467  0.00  0.00    +0.124 C 
ATOM     28  N   UNL     1       6.124   1.698  -6.511  0.00  0.00    -0.327 N 
ATOM     29  C   UNL     1       5.599   2.350  -5.303  0.00  0.00    +0.124 C 
ATOM     30  C   UNL     1       6.563   2.086  -4.146  0.00  0.00    +0.126 C 
BRANCH  28  31
ATOM     31  C   UNL     1       6.334   2.433  -7.682  0.00  0.00    +0.030 A 
ATOM     32  C   UNL     1       6.167   3.812  -7.677  0.00  0.00    +0.026 A 
ATOM     33  C   UNL     1       6.375   4.536  -8.834  0.00  0.00    +0.040 A 
ATOM     34  C   UNL     1       6.751   3.889  -9.999  0.00  0.00    +0.124 A 
ATOM     35  C   UNL     1       6.918   2.514 -10.006  0.00  0.00    +0.040 A 
ATOM     36  C   UNL     1       6.716   1.787  -8.850  0.00  0.00    +0.026 A 
ATOM     37  F   UNL     1       6.954   4.599 -11.130  0.00  0.00    -0.205 F 
ENDBRANCH  28  31
ENDBRANCH  22  23
ENDBRANCH  21  22
ENDBRANCH   6  21
TORSDOF 7
