REMARK  Name = ZINC37380742
REMARK  9 active torsions:
REMARK  status: ('A' for Active; 'I' for Inactive)
REMARK    1  A    between atoms: C_3  and  C_11
REMARK    2  A    between atoms: C_5  and  C_7
REMARK    3  A    between atoms: C_11  and  C_13
REMARK    4  A    between atoms: C_11  and  C_24
REMARK    5  A    between atoms: C_13  and  C_14
REMARK    6  A    between atoms: N_16  and  C_17
REMARK    7  A    between atoms: C_17  and  C_18
REMARK    8  A    between atoms: C_18  and  N_19
REMARK    9  A    between atoms: C_31  and  N_34
REMARK                            x       y       z     vdW  Elec       q    Type
REMARK                         _______ _______ _______ _____ _____    ______ ____
ROOT
ATOM      1  C   UNL     1       3.672   2.182  -0.022  0.00  0.00    +0.060 C 
ENDROOT
BRANCH   1   2
ATOM      2  C   UNL     1       3.752   3.044   1.212  0.00  0.00    -0.014 A 
ATOM      3  C   UNL     1       2.891   4.010   1.568  0.00  0.00    +0.087 A 
ATOM      4  N   UNL     1       3.288   4.575   2.749  0.00  0.00    -0.360 N 
ATOM      5  H   UNL     1       2.824   5.295   3.206  0.00  0.00    +0.165 HD
ATOM      6  C   UNL     1       4.443   3.972   3.193  0.00  0.00    +0.047 A 
ATOM      7  C   UNL     1       4.781   2.981   2.252  0.00  0.00    +0.006 A 
ATOM      8  C   UNL     1       5.918   2.195   2.448  0.00  0.00    +0.043 A 
ATOM      9  C   UNL     1       6.695   2.388   3.555  0.00  0.00    +0.127 A 
ATOM     10  C   UNL     1       6.363   3.361   4.487  0.00  0.00    +0.035 A 
ATOM     11  C   UNL     1       5.251   4.155   4.310  0.00  0.00    +0.028 A 
BRANCH   9  12
ATOM     12  N   UNL     1       7.900   1.554   3.761  0.00  0.00    +0.056 N 
ATOM     13  O   UNL     1       8.193   0.705   2.952  0.00  0.00    -0.126 OA
ATOM     14  O   UNL     1       8.591   1.721   4.739  0.00  0.00    -0.126 OA
ENDBRANCH   9  12
ENDBRANCH   1   2
BRANCH   1  17
ATOM     15  C   UNL     1      -0.017   1.378   0.010  0.00  0.00    +0.001 A 
ATOM     16  C   UNL     1       1.171   2.085   0.002  0.00  0.00    +0.004 A 
ATOM     17  C   UNL     1       2.377   1.411  -0.013  0.00  0.00    -0.039 A 
ATOM     18  C   UNL     1       2.396   0.028  -0.020  0.00  0.00    +0.016 A 
ATOM     19  C   UNL     1       1.209  -0.679  -0.012  0.00  0.00    +0.055 A 
ATOM     20  C   UNL     1       0.002  -0.004   0.002  0.00  0.00    +0.012 A 
BRANCH  19  21
ATOM     21  C   UNL     1       1.229  -2.186  -0.020  0.00  0.00    +0.417 C 
ATOM     22  F   UNL     1       1.249  -2.660   1.296  0.00  0.00    -0.166 F 
ATOM     23  F   UNL     1       0.086  -2.664  -0.671  0.00  0.00    -0.166 F 
ATOM     24  F   UNL     1       2.371  -2.633  -0.694  0.00  0.00    -0.166 F 
ENDBRANCH  19  21
ENDBRANCH   1  17
BRANCH   1  25
ATOM     25  C   UNL     1       3.729   3.068  -1.268  0.00  0.00    +0.108 C 
BRANCH  25  26
ATOM     26  C   UNL     1       3.772   2.201  -2.500  0.00  0.00    +0.214 C 
ATOM     27  O   UNL     1       3.759   0.994  -2.392  0.00  0.00    -0.276 OA
ATOM     28  N   UNL     1       3.826   2.768  -3.721  0.00  0.00    -0.317 N 
ATOM     29  H   UNL     1       3.836   3.735  -3.808  0.00  0.00    +0.149 HD
BRANCH  28  30
ATOM     30  C   UNL     1       3.868   1.926  -4.919  0.00  0.00    +0.085 C 
BRANCH  30  31
ATOM     31  C   UNL     1       3.925   2.812  -6.165  0.00  0.00    -0.060 C 
BRANCH  31  32
ATOM     32  N   UNL     1       3.967   1.967  -7.365  0.00  0.00    +0.381 N 
ATOM     33  C   UNL     1       2.670   1.266  -7.545  0.00  0.00    -0.079 C 
ATOM     34  C   UNL     1       2.665   0.909  -9.052  0.00  0.00    -0.020 C 
ATOM     35  C   UNL     1       3.331   2.144  -9.702  0.00  0.00    -0.020 C 
ATOM     36  C   UNL     1       4.143   2.804  -8.572  0.00  0.00    -0.079 C 
ATOM     37  H   UNL     1       4.719   1.298  -7.294  0.00  0.00    -0.082 HD
ENDBRANCH  31  32
ENDBRANCH  30  31
ENDBRANCH  28  30
ENDBRANCH  25  26
ENDBRANCH   1  25
TORSDOF 9
