REMARK  Name = ZINC22842081
REMARK  11 active torsions:
REMARK  status: ('A' for Active; 'I' for Inactive)
REMARK    1  A    between atoms: C_1  and  C_2
REMARK    2  A    between atoms: C_5  and  C_8
REMARK    3  A    between atoms: C_10  and  C_13
REMARK    4  A    between atoms: C_13  and  N_14
REMARK    5  A    between atoms: N_17  and  C_20
REMARK    6  A    between atoms: C_20  and  C_22
REMARK    7  A    between atoms: C_20  and  C_23
REMARK    8  A    between atoms: N_25  and  C_26
REMARK    9  A    between atoms: C_26  and  C_27
REMARK   10  A    between atoms: C_27  and  C_29
REMARK   11  A    between atoms: C_27  and  C_30
REMARK                            x       y       z     vdW  Elec       q    Type
REMARK                         _______ _______ _______ _____ _____    ______ ____
ROOT
ATOM      1  N   UNL     1       1.353   1.329  -7.114  0.00  0.00    -0.297 NA
ATOM      2  C   UNL     1      -0.076   1.000  -7.203  0.00  0.00    +0.066 C 
ATOM      3  C   UNL     1      -0.823   1.665  -6.044  0.00  0.00    -0.062 C 
ATOM      4  N   UNL     1      -0.257   1.200  -4.770  0.00  0.00    +0.389 N 
ATOM      5  C   UNL     1       1.173   1.528  -4.681  0.00  0.00    -0.062 C 
ATOM      6  C   UNL     1       1.919   0.864  -5.840  0.00  0.00    +0.066 C 
ATOM      7  H   UNL     1      -0.357   0.105  -4.733  0.00  0.00    -0.081 HD
ENDROOT
BRANCH   4   8
ATOM      8  C   UNL     1      -0.997   1.758  -3.630  0.00  0.00    +0.016 C 
ATOM      9  C   UNL     1      -1.183   3.263  -3.830  0.00  0.00    -0.004 C 
BRANCH   8  10
ATOM     10  C   UNL     1      -2.346   1.093  -3.533  0.00  0.00    +0.199 C 
ATOM     11  O   UNL     1      -2.772   0.448  -4.468  0.00  0.00    -0.278 OA
ATOM     12  N   UNL     1      -3.079   1.216  -2.409  0.00  0.00    -0.316 N 
ATOM     13  H   UNL     1      -2.692   1.801  -1.561  0.00  0.00    +0.149 HD
BRANCH  12  14
ATOM     14  C   UNL     1      -4.390   0.570  -2.315  0.00  0.00    +0.112 C 
BRANCH  14  15
ATOM     15  C   UNL     1      -5.007   0.864  -0.946  0.00  0.00    +0.033 C 
ATOM     16  C   UNL     1      -4.156   0.213   0.147  0.00  0.00    +0.014 C 
BRANCH  15  17
ATOM     17  C   UNL     1      -6.405   0.304  -0.894  0.00  0.00    -0.043 A 
ATOM     18  C   UNL     1      -6.614  -1.050  -1.076  0.00  0.00    +0.004 A 
ATOM     19  C   UNL     1      -7.896  -1.565  -1.024  0.00  0.00    +0.000 A 
ATOM     20  C   UNL     1      -8.970  -0.723  -0.799  0.00  0.00    +0.000 A 
ATOM     21  C   UNL     1      -8.761   0.632  -0.622  0.00  0.00    +0.000 A 
ATOM     22  C   UNL     1      -7.478   1.145  -0.670  0.00  0.00    +0.004 A 
ENDBRANCH  15  17
ENDBRANCH  14  15
ENDBRANCH  12  14
ENDBRANCH   8  10
ENDBRANCH   4   8
BRANCH   1  23
ATOM     23  C   UNL     1       2.093   0.771  -8.254  0.00  0.00    +0.183 C 
BRANCH  23  26
ATOM     24  C   UNL     1       5.585   0.590  -7.422  0.00  0.00    +0.202 A 
ATOM     25  N   UNL     1       4.350   0.041  -7.413  0.00  0.00    -0.190 NA
ATOM     26  C   UNL     1       3.574   0.912  -8.009  0.00  0.00    +0.242 A 
ATOM     27  O   UNL     1       4.343   1.946  -8.364  0.00  0.00    -0.336 OA
ATOM     28  N   UNL     1       5.488   1.750  -8.017  0.00  0.00    -0.056 NA
BRANCH  24  33
ATOM     29  C   UNL     1      10.379  -1.743  -5.242  0.00  0.00    +0.044 C 
ATOM     30  C   UNL     1       9.125  -1.133  -5.812  0.00  0.00    -0.050 A 
ATOM     31  C   UNL     1       9.177   0.109  -6.418  0.00  0.00    +0.004 A 
ATOM     32  C   UNL     1       8.031   0.673  -6.942  0.00  0.00    +0.012 A 
ATOM     33  C   UNL     1       6.821  -0.012  -6.861  0.00  0.00    +0.022 A 
ATOM     34  C   UNL     1       6.773  -1.261  -6.245  0.00  0.00    +0.012 A 
ATOM     35  C   UNL     1       7.926  -1.817  -5.728  0.00  0.00    +0.004 A 
ENDBRANCH  24  33
ENDBRANCH  23  26
ENDBRANCH   1  23
TORSDOF 8
