REMARK  Name = ZINC27681131
REMARK  9 active torsions:
REMARK  status: ('A' for Active; 'I' for Inactive)
REMARK    1  A    between atoms: C_1  and  C_2
REMARK    2  A    between atoms: C_5  and  S_8
REMARK    3  A    between atoms: S_8  and  N_11
REMARK    4  A    between atoms: N_11  and  C_12
REMARK    5  A    between atoms: C_12  and  C_13
REMARK    6  A    between atoms: C_13  and  C_14
REMARK    7  A    between atoms: N_17  and  C_24
REMARK    8  A    between atoms: C_24  and  C_25
REMARK    9  A    between atoms: C_25  and  C_27
REMARK                            x       y       z     vdW  Elec       q    Type
REMARK                         _______ _______ _______ _____ _____    ______ ____
ROOT
ATOM      1  C   UNL     1      -4.066   3.379  -3.789  0.00  0.00    +0.026 C 
ENDROOT
BRANCH   1   2
ATOM      2  C   UNL     1      -4.500   2.208  -4.673  0.00  0.00    +0.039 C 
ATOM      3  C   UNL     1      -5.262   2.715  -5.919  0.00  0.00    +0.113 C 
ATOM      4  N   UNL     1      -6.672   2.668  -5.477  0.00  0.00    -0.325 N 
ATOM      5  C   UNL     1      -6.782   1.673  -4.497  0.00  0.00    +0.034 A 
ATOM      6  C   UNL     1      -5.537   1.357  -3.968  0.00  0.00    -0.022 A 
ATOM      7  C   UNL     1      -5.420   0.409  -2.973  0.00  0.00    +0.006 A 
ATOM      8  C   UNL     1      -6.545  -0.239  -2.497  0.00  0.00    +0.000 A 
ATOM      9  C   UNL     1      -7.788   0.065  -3.021  0.00  0.00    +0.002 A 
ATOM     10  C   UNL     1      -7.911   1.013  -4.015  0.00  0.00    +0.023 A 
BRANCH   4  11
ATOM     11  C   UNL     1      -7.569   2.394  -6.608  0.00  0.00    +0.135 C 
BRANCH  11  12
ATOM     12  C   UNL     1      -7.350   3.426  -7.684  0.00  0.00    -0.063 C 
ATOM     13  C   UNL     1      -6.550   3.165  -8.688  0.00  0.00    +0.009 C 
ATOM     14  C   UNL     1      -8.050   4.758  -7.605  0.00  0.00    +0.040 C 
ENDBRANCH  11  12
ENDBRANCH   4  11
ENDBRANCH   1   2
BRANCH   1  15
ATOM     15  C   UNL     1      -3.319   2.844  -2.565  0.00  0.00    +0.106 C 
BRANCH  15  16
ATOM     16  N   UNL     1      -2.904   3.966  -1.718  0.00  0.00    -0.190 NA
ATOM     17  H   UNL     1      -2.762   4.964  -2.158  0.00  0.00    +0.148 HD
BRANCH  16  18
ATOM     18  S   UNL     1      -2.412   3.689  -0.162  0.00  0.00    +0.058 S 
ATOM     19  O   UNL     1      -3.396   2.855   0.434  0.00  0.00    -0.153 OA
ATOM     20  O   UNL     1      -2.054   4.953   0.381  0.00  0.00    -0.153 OA
BRANCH  18  25
ATOM     21  C   UNL     1       2.662   0.437  -0.449  0.00  0.00    +0.044 C 
ATOM     22  C   UNL     1       1.395   1.249  -0.377  0.00  0.00    -0.050 A 
ATOM     23  C   UNL     1       0.169   0.614  -0.319  0.00  0.00    +0.005 A 
ATOM     24  C   UNL     1      -0.994   1.359  -0.259  0.00  0.00    +0.029 A 
ATOM     25  C   UNL     1      -0.930   2.739  -0.245  0.00  0.00    +0.105 A 
ATOM     26  C   UNL     1       0.296   3.375  -0.303  0.00  0.00    +0.029 A 
ATOM     27  C   UNL     1       1.459   2.630  -0.369  0.00  0.00    +0.005 A 
ENDBRANCH  18  25
ENDBRANCH  16  18
ENDBRANCH  15  16
ENDBRANCH   1  15
TORSDOF 7
