REMARK  Name = ZINC12052469
REMARK  6 active torsions:
REMARK  status: ('A' for Active; 'I' for Inactive)
REMARK    1  A    between atoms: C_1  and  C_2
REMARK    2  A    between atoms: C_7  and  C_8
REMARK    3  A    between atoms: C_8  and  N_63
REMARK    4  A    between atoms: C_14  and  C_17
REMARK    5  A    between atoms: C_17  and  N_18
REMARK    6  A    between atoms: C_19  and  C_21
REMARK                            x       y       z     vdW  Elec       q    Type
REMARK                         _______ _______ _______ _____ _____    ______ ____
ROOT
ATOM      1  C   UNL     1      -0.665   9.953  -1.646  0.00  0.00    -0.076 C 
ATOM      2  C   UNL     1      -1.886  10.262  -0.775  0.00  0.00    +0.016 C 
ATOM      3  C   UNL     1      -3.095   9.496  -1.312  0.00  0.00    +0.067 C 
ATOM      4  C   UNL     1      -4.341   9.844  -0.479  0.00  0.00    +0.037 C 
ATOM      5  C   UNL     1      -4.758   8.495   0.161  0.00  0.00    +0.036 C 
ATOM      6  C   UNL     1      -3.444   7.676   0.073  0.00  0.00    +0.136 C 
ATOM      7  O   UNL     1      -2.872   8.084  -1.189  0.00  0.00    -0.369 OA
ATOM      8  C   UNL     1      -3.334   9.860  -2.777  0.00  0.00    +0.016 C 
ATOM      9  C   UNL     1      -2.068   9.564  -3.584  0.00  0.00    -0.076 C 
ATOM     10  N   UNL     1      -0.952  10.365  -3.037  0.00  0.00    +0.383 N 
ATOM     11  H   UNL     1      -1.220  11.356  -3.042  0.00  0.00    -0.081 HD
ENDROOT
BRANCH  10  12
ATOM     12  C   UNL     1       0.253  10.189  -3.873  0.00  0.00    -0.043 C 
BRANCH  12  19
ATOM     13  C   UNL     1      -0.115  12.830  -4.986  0.00  0.00    +0.044 C 
ATOM     14  C   UNL     1      -0.301  11.613  -5.856  0.00  0.00    -0.049 A 
ATOM     15  C   UNL     1      -0.648  11.760  -7.186  0.00  0.00    +0.003 A 
ATOM     16  C   UNL     1      -0.818  10.645  -7.983  0.00  0.00    +0.000 A 
ATOM     17  C   UNL     1      -0.641   9.381  -7.451  0.00  0.00    +0.000 A 
ATOM     18  C   UNL     1      -0.290   9.234  -6.122  0.00  0.00    +0.002 A 
ATOM     19  C   UNL     1      -0.125  10.350  -5.323  0.00  0.00    -0.061 A 
ENDBRANCH  12  19
ENDBRANCH  10  12
BRANCH   6  20
ATOM     20  C   UNL     1      -3.744   6.176   0.069  0.00  0.00    +0.136 C 
BRANCH  20  21
ATOM     21  N   UNL     1      -2.485   5.427   0.053  0.00  0.00    -0.306 N 
ATOM     22  C   UNL     1      -2.503   4.079   0.047  0.00  0.00    +0.280 C 
ATOM     23  O   UNL     1      -3.563   3.486   0.055  0.00  0.00    -0.267 OA
ATOM     24  H   UNL     1      -1.639   5.901   0.047  0.00  0.00    +0.149 HD
BRANCH  22  25
ATOM     25  C   UNL     1      -1.229   3.321   0.032  0.00  0.00    +0.193 A 
ATOM     26  C   UNL     1      -1.278   1.968   0.019  0.00  0.00    +0.103 A 
ATOM     27  C   UNL     1      -0.014   1.214   0.009  0.00  0.00    +0.193 A 
ATOM     28  O   UNL     1       0.002  -0.004   0.002  0.00  0.00    -0.287 OA
ATOM     29  C   UNL     1       1.232   2.004   0.001  0.00  0.00    +0.064 A 
ATOM     30  C   UNL     1       2.482   1.387  -0.013  0.00  0.00    +0.015 A 
ATOM     31  C   UNL     1       3.615   2.152  -0.020  0.00  0.00    +0.001 A 
ATOM     32  C   UNL     1       3.526   3.537  -0.013  0.00  0.00    +0.004 A 
ATOM     33  C   UNL     1       2.300   4.165   0.002  0.00  0.00    +0.047 A 
ATOM     34  C   UNL     1       1.134   3.406   0.009  0.00  0.00    +0.139 A 
ATOM     35  O   UNL     1      -0.074   4.002   0.024  0.00  0.00    -0.450 OA
ENDBRANCH  22  25
ENDBRANCH  20  21
ENDBRANCH   6  20
TORSDOF 5
