REMARK  Name = ZINC67397697
REMARK  6 active torsions:
REMARK  status: ('A' for Active; 'I' for Inactive)
REMARK    1  A    between atoms: C_1  and  C_2
REMARK    2  A    between atoms: N_7  and  C_9
REMARK    3  A    between atoms: C_9  and  C_10
REMARK    4  A    between atoms: C_10  and  C_12
REMARK    5  A    between atoms: C_10  and  N_13
REMARK    6  A    between atoms: C_14  and  C_16
REMARK                            x       y       z     vdW  Elec       q    Type
REMARK                         _______ _______ _______ _____ _____    ______ ____
ROOT
ATOM      1  N   UNL     1       0.212  -4.554   2.329  0.00  0.00    -0.307 N 
ATOM      2  C   UNL     1      -0.002  -5.821   1.923  0.00  0.00    +0.300 C 
ATOM      3  O   UNL     1       0.934  -6.583   1.795  0.00  0.00    -0.265 OA
ATOM      4  H   UNL     1      -0.536  -3.945   2.431  0.00  0.00    +0.149 HD
ENDROOT
BRANCH   2   5
ATOM      5  C   UNL     1      -1.390  -6.288   1.630  0.00  0.00    +0.306 C 
ATOM      6  O   UNL     1      -2.336  -5.565   1.868  0.00  0.00    -0.265 OA
ATOM      7  N   UNL     1      -1.593  -7.511   1.102  0.00  0.00    -0.263 N 
ATOM      8  C   UNL     1      -0.456  -8.386   0.786  0.00  0.00    +0.114 C 
ATOM      9  C   UNL     1      -0.703  -8.994  -0.600  0.00  0.00    +0.024 C 
ATOM     10  C   UNL     1      -1.960  -9.862  -0.541  0.00  0.00    +0.038 C 
ATOM     11  C   UNL     1      -3.106  -9.091   0.059  0.00  0.00    -0.026 A 
ATOM     12  C   UNL     1      -2.891  -7.971   0.850  0.00  0.00    +0.043 A 
ATOM     13  C   UNL     1      -3.969  -7.286   1.398  0.00  0.00    +0.062 A 
ATOM     14  C   UNL     1      -5.259  -7.722   1.158  0.00  0.00    +0.125 A 
ATOM     15  C   UNL     1      -5.474  -8.842   0.371  0.00  0.00    +0.039 A 
ATOM     16  C   UNL     1      -4.400  -9.518  -0.183  0.00  0.00    +0.008 A 
ATOM     17  F   UNL     1      -6.309  -7.058   1.691  0.00  0.00    -0.205 F 
ENDBRANCH   2   5
BRANCH   1  18
ATOM     18  C   UNL     1       1.574  -4.097   2.616  0.00  0.00    +0.054 C 
ATOM     19  C   UNL     1       1.982  -4.557   4.017  0.00  0.00    +0.026 C 
BRANCH  18  20
ATOM     20  C   UNL     1       1.624  -2.569   2.546  0.00  0.00    -0.057 C 
BRANCH  20  26
ATOM     21  C   UNL     1       2.439  -2.648  -2.280  0.00  0.00    +0.005 C 
ATOM     22  C   UNL     1       1.481  -2.179  -1.183  0.00  0.00    -0.031 C 
ATOM     23  C   UNL     1       1.333  -0.656  -1.250  0.00  0.00    -0.001 C 
ATOM     24  C   UNL     1       0.434  -0.190  -0.101  0.00  0.00    -0.018 C 
ATOM     25  C   UNL     1       1.032  -0.657   1.228  0.00  0.00    -0.079 C 
ATOM     26  N   UNL     1       1.123  -2.122   1.240  0.00  0.00    +0.381 N 
ATOM     27  C   UNL     1       2.039  -2.573   0.186  0.00  0.00    -0.076 C 
ATOM     28  H   UNL     1       0.208  -2.516   1.080  0.00  0.00    -0.082 HD
ENDBRANCH  20  26
ENDBRANCH  18  20
ENDBRANCH   1  18
TORSDOF 4
