REMARK  Name = ZINC21539896
REMARK  7 active torsions:
REMARK  status: ('A' for Active; 'I' for Inactive)
REMARK    1  A    between atoms: C_1  and  C_2
REMARK    2  A    between atoms: C_4  and  C_32
REMARK    3  A    between atoms: N_10  and  C_11
REMARK    4  A    between atoms: C_11  and  C_12
REMARK    5  A    between atoms: N_14  and  C_15
REMARK    6  A    between atoms: C_15  and  C_16
REMARK    7  A    between atoms: C_16  and  C_17
REMARK                            x       y       z     vdW  Elec       q    Type
REMARK                         _______ _______ _______ _____ _____    ______ ____
ROOT
ATOM      1  C   UNL     1       1.279   2.421   5.127  0.00  0.00    +0.241 C 
ENDROOT
BRANCH   1  11
ATOM      2  C   UNL     1      -4.229   2.455   2.323  0.00  0.00    +0.044 C 
ATOM      3  C   UNL     1      -2.740   2.221   2.332  0.00  0.00    -0.035 A 
ATOM      4  C   UNL     1      -2.088   1.784   1.208  0.00  0.00    +0.027 A 
ATOM      5  C   UNL     1      -0.718   1.572   1.248  0.00  0.00    +0.041 A 
ATOM      6  N   UNL     1      -0.019   1.789   2.341  0.00  0.00    -0.233 NA
ATOM      7  C   UNL     1      -0.594   2.218   3.458  0.00  0.00    +0.161 A 
ATOM      8  C   UNL     1      -1.984   2.448   3.487  0.00  0.00    +0.066 A 
ATOM      9  C   UNL     1      -2.299   2.906   4.839  0.00  0.00    +0.169 A 
ATOM     10  N   UNL     1      -1.183   2.932   5.516  0.00  0.00    -0.150 NA
ATOM     11  N   UNL     1      -0.121   2.518   4.706  0.00  0.00    -0.235 N 
ATOM     12  N   UNL     1      -3.569   3.255   5.321  0.00  0.00    -0.306 N 
ATOM     13  C   UNL     1      -4.551   3.873   4.602  0.00  0.00    +0.093 A 
ATOM     14  C   UNL     1      -5.622   4.037   5.406  0.00  0.00    +0.019 A 
ATOM     15  C   UNL     1      -5.287   3.510   6.669  0.00  0.00    +0.019 A 
ATOM     16  C   UNL     1      -4.026   3.038   6.590  0.00  0.00    +0.093 A 
ATOM     17  C   UNL     1      -0.013   1.086   0.008  0.00  0.00    +0.065 C 
ENDBRANCH   1  11
BRANCH   1  18
ATOM     18  C   UNL     1       1.974   3.732   4.866  0.00  0.00    +0.235 C 
ATOM     19  O   UNL     1       1.361   4.657   4.376  0.00  0.00    -0.274 OA
ATOM     20  N   UNL     1       3.277   3.878   5.177  0.00  0.00    -0.313 N 
ATOM     21  H   UNL     1       3.833   3.039   5.621  0.00  0.00    +0.149 HD
BRANCH  20  22
ATOM     22  C   UNL     1       3.954   5.152   4.923  0.00  0.00    +0.109 C 
BRANCH  22  23
ATOM     23  C   UNL     1       5.415   5.051   5.363  0.00  0.00    +0.056 C 
BRANCH  23  24
ATOM     24  C   UNL     1       6.111   6.362   5.102  0.00  0.00    -0.021 A 
ATOM     25  C   UNL     1       6.836   6.679   4.018  0.00  0.00    +0.087 A 
ATOM     26  N   UNL     1       7.310   7.957   4.131  0.00  0.00    -0.360 N 
ATOM     27  H   UNL     1       7.924   8.390   3.327  0.00  0.00    +0.165 HD
ATOM     28  C   UNL     1       6.898   8.505   5.325  0.00  0.00    +0.047 A 
ATOM     29  C   UNL     1       6.128   7.530   5.986  0.00  0.00    +0.003 A 
ATOM     30  C   UNL     1       5.572   7.810   7.235  0.00  0.00    +0.010 A 
ATOM     31  C   UNL     1       5.778   9.032   7.811  0.00  0.00    +0.001 A 
ATOM     32  C   UNL     1       6.537   9.998   7.164  0.00  0.00    +0.002 A 
ATOM     33  C   UNL     1       7.095   9.742   5.930  0.00  0.00    +0.026 A 
ENDBRANCH  23  24
ENDBRANCH  22  23
ENDBRANCH  20  22
ENDBRANCH   1  18
TORSDOF 5
