REMARK  Name = ZINC61684145
REMARK  7 active torsions:
REMARK  status: ('A' for Active; 'I' for Inactive)
REMARK    1  A    between atoms: C_1  and  C_2
REMARK    2  A    between atoms: C_2  and  C_3
REMARK    3  A    between atoms: C_2  and  N_4
REMARK    4  A    between atoms: C_6  and  N_9
REMARK    5  A    between atoms: C_10  and  C_12
REMARK    6  A    between atoms: C_12  and  C_18
REMARK    7  A    between atoms: N_19  and  O_20
REMARK                            x       y       z     vdW  Elec       q    Type
REMARK                         _______ _______ _______ _____ _____    ______ ____
ROOT
ATOM      1  C   UNL     1      -6.705  -2.234   1.884  0.00  0.00    +0.105 C 
ATOM      2  C   UNL     1      -6.242  -3.278   2.903  0.00  0.00    +0.024 C 
ATOM      3  C   UNL     1      -5.829  -4.556   2.171  0.00  0.00    +0.001 C 
ATOM      4  C   UNL     1      -7.023  -5.103   1.386  0.00  0.00    +0.000 C 
ATOM      5  C   UNL     1      -7.485  -4.059   0.367  0.00  0.00    +0.001 C 
ATOM      6  C   UNL     1      -7.899  -2.781   1.099  0.00  0.00    +0.024 C 
ENDROOT
BRANCH   1   7
ATOM      7  C   UNL     1      -7.112  -0.975   2.605  0.00  0.00    +0.147 C 
ATOM      8  N   UNL     1      -8.345  -0.589   2.586  0.00  0.00    -0.076 NA
ATOM      9  N   UNL     1      -6.169  -0.235   3.284  0.00  0.00    -0.343 N 
ATOM     10  H   UNL     1      -5.265  -0.572   3.381  0.00  0.00    +0.144 HD
ATOM     11  H   UNL     1      -6.410   0.624   3.666  0.00  0.00    +0.144 HD
BRANCH   8  12
ATOM     12  O   UNL     1      -8.727   0.594   3.264  0.00  0.00    -0.408 OA
ATOM     13  H   UNL     1      -9.669   0.801   3.193  0.00  0.00    +0.328 HD
ENDBRANCH   8  12
ENDBRANCH   1   7
BRANCH   1  15
ATOM     14  N   UNL     1      -5.794  -1.135  -0.137  0.00  0.00    -0.282 N 
ATOM     15  C   UNL     1      -5.577  -1.926   0.933  0.00  0.00    +0.231 C 
ATOM     16  O   UNL     1      -4.473  -2.390   1.130  0.00  0.00    -0.274 OA
ATOM     17  H   UNL     1      -6.692  -0.831  -0.340  0.00  0.00    +0.155 HD
BRANCH  14  20
ATOM     18  N   UNL     1      -3.540   0.164  -2.563  0.00  0.00    -0.267 N 
ATOM     19  C   UNL     1      -4.795   0.037  -2.061  0.00  0.00    +0.132 A 
ATOM     20  C   UNL     1      -4.718  -0.751  -0.958  0.00  0.00    +0.071 A 
ATOM     21  C   UNL     1      -3.375  -1.115  -0.784  0.00  0.00    +0.157 A 
ATOM     22  N   UNL     1      -2.673  -0.572  -1.745  0.00  0.00    -0.178 NA
BRANCH  18  24
ATOM     23  C   UNL     1      -3.363   0.070  -5.000  0.00  0.00    +0.032 C 
ATOM     24  C   UNL     1      -3.160   0.931  -3.752  0.00  0.00    +0.101 C 
ATOM     25  C   UNL     1      -4.031   2.185  -3.850  0.00  0.00    +0.032 C 
ENDBRANCH  18  24
ENDBRANCH  14  20
ENDBRANCH   1  15
TORSDOF 5
