REMARK  Name = ZINC01100021
REMARK  4 active torsions:
REMARK  status: ('A' for Active; 'I' for Inactive)
REMARK    1  A    between atoms: C_14  and  C_15
REMARK    2  A    between atoms: N_16  and  N_17
REMARK    3  A    between atoms: C_18  and  C_20
REMARK    4  A    between atoms: C_20  and  C_21
REMARK                            x       y       z     vdW  Elec       q    Type
REMARK                         _______ _______ _______ _____ _____    ______ ____
ROOT
ATOM      1  C   UNL     1       9.544  -1.804   0.793  0.00  0.00    +0.139 C 
ATOM      2  N   UNL     1       8.288  -1.632   0.499  0.00  0.00    -0.188 NA
ENDROOT
BRANCH   1  16
ATOM      3  C   UNL     1      14.604  -2.446   0.546  0.00  0.00    +0.001 A 
ATOM      4  C   UNL     1      13.709  -2.048   1.538  0.00  0.00    +0.001 A 
ATOM      5  C   UNL     1      12.372  -1.967   1.303  0.00  0.00    +0.009 A 
ATOM      6  C   UNL     1      11.870  -2.287   0.029  0.00  0.00    -0.009 A 
ATOM      7  C   UNL     1      12.808  -2.710  -1.013  0.00  0.00    -0.017 A 
ATOM      8  C   UNL     1      14.183  -2.772  -0.703  0.00  0.00    +0.008 A 
ATOM      9  C   UNL     1      12.343  -3.040  -2.287  0.00  0.00    +0.017 A 
ATOM     10  C   UNL     1      10.979  -2.972  -2.571  0.00  0.00    -0.017 A 
ATOM     11  C   UNL     1      10.486  -3.301  -3.852  0.00  0.00    +0.008 A 
ATOM     12  C   UNL     1       9.152  -3.225  -4.096  0.00  0.00    +0.001 A 
ATOM     13  C   UNL     1       8.249  -2.829  -3.110  0.00  0.00    +0.001 A 
ATOM     14  C   UNL     1       8.661  -2.499  -1.857  0.00  0.00    +0.009 A 
ATOM     15  C   UNL     1      10.028  -2.556  -1.537  0.00  0.00    -0.009 A 
ATOM     16  C   UNL     1      10.489  -2.221  -0.247  0.00  0.00    +0.010 A 
ENDBRANCH   1  16
BRANCH   2  17
ATOM     17  N   UNL     1       7.385  -1.233   1.493  0.00  0.00    -0.207 N 
ATOM     18  C   UNL     1       6.083  -1.056   1.190  0.00  0.00    +0.237 C 
ATOM     19  O   UNL     1       5.694  -1.242   0.056  0.00  0.00    -0.274 OA
ATOM     20  H   UNL     1       7.696  -1.085   2.400  0.00  0.00    +0.177 HD
BRANCH  18  21
ATOM     21  C   UNL     1       5.112  -0.627   2.259  0.00  0.00    +0.132 C 
BRANCH  21  22
ATOM     22  C   UNL     1       3.733  -0.501   1.663  0.00  0.00    -0.035 A 
ATOM     23  C   UNL     1       2.884  -1.592   1.654  0.00  0.00    +0.008 A 
ATOM     24  C   UNL     1       1.619  -1.482   1.108  0.00  0.00    +0.050 A 
ATOM     25  C   UNL     1       1.198  -0.277   0.570  0.00  0.00    +0.166 A 
ATOM     26  C   UNL     1       2.053   0.822   0.580  0.00  0.00    +0.166 A 
ATOM     27  C   UNL     1       3.320   0.705   1.129  0.00  0.00    +0.053 A 
ATOM     28  O   UNL     1       1.413   1.878  -0.001  0.00  0.00    -0.453 OA
ATOM     29  C   UNL     1       0.016   1.530   0.002  0.00  0.00    +0.466 C 
ATOM     30  O   UNL     1       0.022   0.090  -0.018  0.00  0.00    -0.453 OA
ENDBRANCH  21  22
ENDBRANCH  18  21
ENDBRANCH   2  17
TORSDOF 4
