REMARK  Name = ZINC39425147
REMARK  7 active torsions:
REMARK  status: ('A' for Active; 'I' for Inactive)
REMARK    1  A    between atoms: C_1  and  C_2
REMARK    2  A    between atoms: C_2  and  C_4
REMARK    3  A    between atoms: C_2  and  N_30
REMARK    4  A    between atoms: C_8  and  S_17
REMARK    5  A    between atoms: N_9  and  C_10
REMARK    6  A    between atoms: S_17  and  C_18
REMARK    7  A    between atoms: C_18  and  C_19
REMARK                            x       y       z     vdW  Elec       q    Type
REMARK                         _______ _______ _______ _____ _____    ______ ____
ROOT
ATOM      1  C   UNL     1       0.675  -0.297  -1.141  0.00  0.00    +0.168 C 
ATOM      2  N   UNL     1       0.126   0.241  -2.398  0.00  0.00    -0.248 N 
ATOM      3  N   UNL     1       1.218   0.729  -3.124  0.00  0.00    -0.162 NA
ATOM      4  C   UNL     1       2.326   0.560  -2.484  0.00  0.00    +0.180 C 
ATOM      5  N   UNL     1       2.125  -0.061  -1.256  0.00  0.00    -0.260 N 
ATOM      6  H   UNL     1      -0.806   0.253  -2.668  0.00  0.00    +0.170 HD
ENDROOT
BRANCH   5   7
ATOM      7  C   UNL     1       3.103  -0.395  -0.314  0.00  0.00    +0.038 A 
ATOM      8  C   UNL     1       3.378  -1.728  -0.039  0.00  0.00    +0.026 A 
ATOM      9  C   UNL     1       4.344  -2.055   0.892  0.00  0.00    +0.040 A 
ATOM     10  C   UNL     1       5.040  -1.055   1.550  0.00  0.00    +0.124 A 
ATOM     11  C   UNL     1       4.768   0.275   1.278  0.00  0.00    +0.040 A 
ATOM     12  C   UNL     1       3.806   0.607   0.344  0.00  0.00    +0.026 A 
ATOM     13  F   UNL     1       5.985  -1.377   2.460  0.00  0.00    -0.205 F 
ENDBRANCH   5   7
BRANCH   1  15
ATOM     14  C   UNL     1       0.281   1.961  -0.147  0.00  0.00    -0.010 C 
ATOM     15  C   UNL     1       0.102   0.456   0.061  0.00  0.00    -0.031 C 
BRANCH  15  16
ATOM     16  N   UNL     1      -1.327   0.147   0.196  0.00  0.00    +0.384 N 
ATOM     17  C   UNL     1      -1.878   0.877   1.344  0.00  0.00    -0.078 C 
ATOM     18  C   UNL     1      -3.384   0.623   1.441  0.00  0.00    -0.019 C 
ATOM     19  C   UNL     1      -3.632  -0.878   1.621  0.00  0.00    -0.004 C 
ATOM     20  C   UNL     1      -2.989  -1.635   0.455  0.00  0.00    -0.019 C 
ATOM     21  C   UNL     1      -1.498  -1.297   0.395  0.00  0.00    -0.078 C 
ATOM     22  H   UNL     1      -1.812   0.429  -0.643  0.00  0.00    -0.081 HD
ENDBRANCH  15  16
ENDBRANCH   1  15
BRANCH   4  23
ATOM     23  S   UNL     1       3.904   1.052  -3.094  0.00  0.00    -0.081 S 
BRANCH  23  24
ATOM     24  C   UNL     1       3.539   1.788  -4.711  0.00  0.00    +0.151 C 
BRANCH  24  25
ATOM     25  C   UNL     1       4.821   2.258  -5.350  0.00  0.00    +0.121 A 
ATOM     26  N   UNL     1       4.756   2.846  -6.573  0.00  0.00    -0.309 N 
ATOM     27  H   UNL     1       3.901   2.958  -7.017  0.00  0.00    +0.170 HD
ATOM     28  C   UNL     1       5.896   3.276  -7.165  0.00  0.00    +0.266 A 
ATOM     29  O   UNL     1       5.871   3.809  -8.261  0.00  0.00    -0.267 OA
ATOM     30  C   UNL     1       7.100   3.092  -6.484  0.00  0.00    +0.102 A 
ATOM     31  C   UNL     1       7.140   2.480  -5.219  0.00  0.00    +0.085 A 
ATOM     32  N   UNL     1       5.930   2.085  -4.704  0.00  0.00    -0.232 NA
ATOM     33  C   UNL     1       8.414   2.358  -4.647  0.00  0.00    +0.036 A 
ATOM     34  C   UNL     1       9.501   2.814  -5.307  0.00  0.00    +0.048 A 
ATOM     35  S   UNL     1       8.802   3.464  -6.816  0.00  0.00    -0.090 S 
ENDBRANCH  24  25
ENDBRANCH  23  24
ENDBRANCH   4  23
TORSDOF 6
