REMARK  Name = ZINC18324068
REMARK  12 active torsions:
REMARK  status: ('A' for Active; 'I' for Inactive)
REMARK    1  A    between atoms: C_1  and  C_2
REMARK    2  A    between atoms: C_2  and  C_34
REMARK    3  A    between atoms: C_6  and  C_16
REMARK    4  A    between atoms: C_18  and  C_27
REMARK    5  A    between atoms: C_19  and  O_26
REMARK    6  A    between atoms: C_20  and  C_22
REMARK    7  A    between atoms: C_22  and  C_23
REMARK    8  A    between atoms: C_22  and  C_24
REMARK    9  A    between atoms: C_22  and  C_25
REMARK   10  A    between atoms: C_27  and  C_28
REMARK   11  A    between atoms: C_27  and  C_29
REMARK   12  A    between atoms: C_27  and  C_30
REMARK                            x       y       z     vdW  Elec       q    Type
REMARK                         _______ _______ _______ _____ _____    ______ ____
ROOT
ATOM      1  C   UNL     1       1.575   4.795   1.928  0.00  0.00    +0.011 C 
ATOM      2  C   UNL     1       2.597   3.683   2.174  0.00  0.00    -0.023 C 
ATOM      3  C   UNL     1       3.183   3.214   0.843  0.00  0.00    +0.058 C 
ATOM      4  C   UNL     1       2.074   2.687  -0.054  0.00  0.00    +0.017 C 
ATOM      5  C   UNL     1       1.003   2.075   0.477  0.00  0.00    +0.036 C 
ATOM      6  C   UNL     1      -0.153   1.484  -0.295  0.00  0.00    +0.136 C 
ATOM      7  N   UNL     1      -0.180   1.844  -1.697  0.00  0.00    -0.331 N 
ATOM      8  C   UNL     1       0.825   1.435  -2.567  0.00  0.00    +0.049 A 
ATOM      9  C   UNL     1       0.581   0.516  -3.576  0.00  0.00    +0.025 A 
ATOM     10  C   UNL     1       1.635   0.057  -4.347  0.00  0.00    +0.002 A 
ATOM     11  C   UNL     1       2.921   0.511  -4.117  0.00  0.00    +0.002 A 
ATOM     12  C   UNL     1       3.164   1.445  -3.124  0.00  0.00    +0.025 A 
ATOM     13  C   UNL     1       2.109   1.917  -2.363  0.00  0.00    +0.052 A 
ATOM     14  N   UNL     1       2.277   2.887  -1.381  0.00  0.00    -0.316 N 
ATOM     15  C   UNL     1       0.881   1.942   1.880  0.00  0.00    +0.163 C 
ATOM     16  O   UNL     1      -0.092   1.371   2.332  0.00  0.00    -0.292 OA
ATOM     17  C   UNL     1       1.909   2.480   2.830  0.00  0.00    +0.086 C 
ATOM     18  C   UNL     1       3.716   4.198   3.081  0.00  0.00    +0.011 C 
ATOM     19  H   UNL     1      -0.914   2.378  -2.038  0.00  0.00    +0.147 HD
ATOM     20  H   UNL     1       2.558   3.771  -1.665  0.00  0.00    +0.152 HD
ENDROOT
BRANCH   6  21
ATOM     21  C   UNL     1      -0.082  -0.017  -0.188  0.00  0.00    -0.022 A 
ATOM     22  C   UNL     1      -1.133  -0.720   0.370  0.00  0.00    +0.013 A 
ATOM     23  C   UNL     1      -1.072  -2.097   0.465  0.00  0.00    +0.000 A 
ATOM     24  C   UNL     1       0.050  -2.773   0.009  0.00  0.00    +0.124 A 
ATOM     25  C   UNL     1       1.106  -2.065  -0.545  0.00  0.00    +0.000 A 
ATOM     26  C   UNL     1       1.038  -0.689  -0.643  0.00  0.00    +0.013 A 
BRANCH  25  27
ATOM     27  C   UNL     1       2.327  -2.796  -1.041  0.00  0.00    -0.009 C 
ATOM     28  C   UNL     1       3.334  -1.789  -1.600  0.00  0.00    +0.015 C 
ATOM     29  C   UNL     1       2.966  -3.566   0.118  0.00  0.00    +0.015 C 
ATOM     30  C   UNL     1       1.922  -3.777  -2.143  0.00  0.00    +0.015 C 
ENDBRANCH  25  27
BRANCH  23  31
ATOM     31  C   UNL     1      -2.221  -2.864   1.067  0.00  0.00    -0.009 C 
ATOM     32  C   UNL     1      -3.335  -1.889   1.458  0.00  0.00    +0.015 C 
ATOM     33  C   UNL     1      -2.758  -3.867   0.044  0.00  0.00    +0.015 C 
ATOM     34  C   UNL     1      -1.739  -3.613   2.311  0.00  0.00    +0.015 C 
ENDBRANCH  23  31
BRANCH  24  35
ATOM     35  O   UNL     1       0.115  -4.127   0.106  0.00  0.00    -0.506 OA
ATOM     36  H   UNL     1       0.503  -4.444   0.934  0.00  0.00    +0.292 HD
ENDBRANCH  24  35
ENDBRANCH   6  21
TORSDOF 4
