REMARK  Name = ZINC25390459
REMARK  9 active torsions:
REMARK  status: ('A' for Active; 'I' for Inactive)
REMARK    1  A    between atoms: C_1  and  C_2
REMARK    2  A    between atoms: C_5  and  S_21
REMARK    3  A    between atoms: C_7  and  C_8
REMARK    4  A    between atoms: N_10  and  C_11
REMARK    5  A    between atoms: C_11  and  C_13
REMARK    6  A    between atoms: C_11  and  C_14
REMARK    7  A    between atoms: C_14  and  C_15
REMARK    8  A    between atoms: C_15  and  C_16
REMARK    9  A    between atoms: S_21  and  N_24
REMARK                            x       y       z     vdW  Elec       q    Type
REMARK                         _______ _______ _______ _____ _____    ______ ____
ROOT
ATOM      1  C   UNL     1       2.370   9.831  -0.706  0.00  0.00    +0.044 C 
ATOM      2  C   UNL     1       0.945   9.344  -0.755  0.00  0.00    -0.038 A 
ATOM      3  C   UNL     1      -0.075  10.221  -1.064  0.00  0.00    +0.006 A 
ATOM      4  C   UNL     1      -1.383   9.775  -1.110  0.00  0.00    +0.029 A 
ATOM      5  C   UNL     1      -1.679   8.449  -0.848  0.00  0.00    +0.106 A 
ATOM      6  C   UNL     1      -0.668   7.561  -0.543  0.00  0.00    +0.041 A 
ATOM      7  C   UNL     1       0.654   8.006  -0.489  0.00  0.00    +0.041 A 
ENDROOT
BRANCH   7   8
ATOM      8  C   UNL     1       1.742   7.061  -0.158  0.00  0.00    +0.245 C 
ATOM      9  O   UNL     1       2.901   7.421  -0.223  0.00  0.00    -0.270 OA
ATOM     10  N   UNL     1       1.448   5.800   0.215  0.00  0.00    -0.309 N 
ATOM     11  H   UNL     1       0.400   5.473   0.274  0.00  0.00    +0.149 HD
BRANCH  10  12
ATOM     12  C   UNL     1       2.526   4.863   0.543  0.00  0.00    +0.071 C 
ATOM     13  C   UNL     1       2.933   5.046   2.007  0.00  0.00    +0.028 C 
BRANCH  12  14
ATOM     14  C   UNL     1       2.040   3.429   0.325  0.00  0.00    +0.030 C 
BRANCH  14  15
ATOM     15  C   UNL     1       1.751   3.209  -1.162  0.00  0.00    +0.076 C 
BRANCH  15  16
ATOM     16  C   UNL     1       1.273   1.797  -1.377  0.00  0.00    +0.105 A 
ATOM     17  C   UNL     1      -0.007   1.385  -1.337  0.00  0.00    +0.044 A 
ATOM     18  C   UNL     1       0.001  -0.005  -1.593  0.00  0.00    +0.041 A 
ATOM     19  C   UNL     1       1.286  -0.360  -1.773  0.00  0.00    +0.195 A 
ATOM     20  O   UNL     1       2.051   0.735  -1.641  0.00  0.00    -0.468 OA
ENDBRANCH  15  16
ENDBRANCH  14  15
ENDBRANCH  12  14
ENDBRANCH  10  12
ENDBRANCH   7   8
BRANCH   5  21
ATOM     21  S   UNL     1      -3.349   7.892  -0.910  0.00  0.00    +0.056 S 
ATOM     22  O   UNL     1      -3.421   6.732  -0.091  0.00  0.00    -0.153 OA
ATOM     23  O   UNL     1      -4.167   9.033  -0.687  0.00  0.00    -0.153 OA
BRANCH  21  24
ATOM     24  N   UNL     1      -3.643   7.395  -2.462  0.00  0.00    -0.204 NA
ATOM     25  H   UNL     1      -4.680   7.038  -2.543  0.00  0.00    +0.144 HD
ATOM     26  H   UNL     1      -2.953   6.579  -2.722  0.00  0.00    +0.144 HD
ENDBRANCH  21  24
ENDBRANCH   5  21
TORSDOF 7
