REMARK  Name = ZINC09553984
REMARK  12 active torsions:
REMARK  status: ('A' for Active; 'I' for Inactive)
REMARK    1  A    between atoms: C_1  and  C_2
REMARK    2  A    between atoms: C_10  and  C_13
REMARK    3  A    between atoms: C_18  and  C_23
REMARK    4  A    between atoms: C_27  and  O_29
REMARK    5  A    between atoms: O_29  and  C_30
REMARK    6  A    between atoms: C_32  and  C_41
REMARK    7  A    between atoms: C_33  and  C_34
REMARK    8  A    between atoms: C_34  and  O_36
REMARK    9  A    between atoms: O_36  and  C_37
REMARK   10  A    between atoms: C_37  and  C_38
REMARK   11  A    between atoms: C_38  and  O_39
REMARK   12  A    between atoms: O_39  and  C_40
REMARK                            x       y       z     vdW  Elec       q    Type
REMARK                         _______ _______ _______ _____ _____    ______ ____
ROOT
ATOM      1  C   UNL     1       0.153  -2.831   0.033  0.00  0.00    +0.099 C 
ATOM      2  C   UNL     1      -0.111  -4.255  -0.388  0.00  0.00    +0.024 C 
ATOM      3  C   UNL     1       0.423  -4.747  -1.525  0.00  0.00    +0.016 C 
ATOM      4  C   UNL     1       0.162  -6.170  -1.955  0.00  0.00    +0.059 C 
ATOM      5  C   UNL     1      -0.044  -7.050  -0.720  0.00  0.00    +0.032 C 
ATOM      6  C   UNL     1      -1.216  -6.486   0.089  0.00  0.00    +0.088 C 
ATOM      7  C   UNL     1      -0.926  -5.051   0.436  0.00  0.00    +0.162 C 
ATOM      8  O   UNL     1      -1.404  -4.572   1.445  0.00  0.00    -0.292 OA
ATOM      9  N   UNL     1       1.216  -3.961  -2.318  0.00  0.00    -0.321 N 
ATOM     10  C   UNL     1       1.161  -2.599  -2.221  0.00  0.00    +0.016 C 
ATOM     11  C   UNL     1       0.664  -2.014  -1.118  0.00  0.00    +0.065 C 
ATOM     12  C   UNL     1       1.667  -1.747  -3.356  0.00  0.00    +0.061 C 
ATOM     13  H   UNL     1       1.904  -4.425  -3.041  0.00  0.00    +0.152 HD
ENDROOT
BRANCH   1  23
ATOM     14  C   UNL     1       2.445  -1.373   7.063  0.00  0.00    +0.044 C 
ATOM     15  C   UNL     1       2.685  -1.894   5.670  0.00  0.00    -0.050 A 
ATOM     16  C   UNL     1       3.925  -2.416   5.331  0.00  0.00    +0.007 A 
ATOM     17  C   UNL     1       4.164  -2.897   4.062  0.00  0.00    +0.047 A 
ATOM     18  C   UNL     1       3.155  -2.862   3.106  0.00  0.00    +0.138 A 
ATOM     19  C   UNL     1       1.900  -2.333   3.450  0.00  0.00    +0.064 A 
ATOM     20  C   UNL     1       1.671  -1.850   4.737  0.00  0.00    +0.018 A 
ATOM     21  C   UNL     1       0.846  -2.308   2.418  0.00  0.00    +0.197 A 
ATOM     22  O   UNL     1      -0.264  -1.861   2.655  0.00  0.00    -0.287 OA
ATOM     23  C   UNL     1       1.179  -2.824   1.138  0.00  0.00    +0.047 A 
ATOM     24  C   UNL     1       2.413  -3.312   0.918  0.00  0.00    +0.204 A 
ATOM     25  O   UNL     1       3.365  -3.327   1.858  0.00  0.00    -0.462 OA
ENDBRANCH   1  23
BRANCH   5  26
ATOM     26  C   UNL     1      -0.357  -8.460  -1.150  0.00  0.00    -0.040 A 
ATOM     27  C   UNL     1      -1.461  -8.711  -1.945  0.00  0.00    +0.004 A 
ATOM     28  C   UNL     1      -1.751 -10.003  -2.342  0.00  0.00    +0.004 A 
ATOM     29  C   UNL     1      -0.939 -11.047  -1.945  0.00  0.00    +0.045 A 
ATOM     30  C   UNL     1       0.169 -10.799  -1.148  0.00  0.00    +0.120 A 
ATOM     31  C   UNL     1       0.461  -9.500  -0.755  0.00  0.00    +0.049 A 
BRANCH  30  32
ATOM     32  O   UNL     1       0.970 -11.824  -0.757  0.00  0.00    -0.495 OA
ATOM     33  C   UNL     1       0.612 -13.134  -1.203  0.00  0.00    +0.277 C 
ENDBRANCH  30  32
ENDBRANCH   5  26
BRANCH  11  34
ATOM     34  C   UNL     1       0.615  -0.603  -1.042  0.00  0.00    +0.338 C 
ATOM     35  O   UNL     1       1.117   0.071  -1.922  0.00  0.00    -0.245 OA
BRANCH  34  36
ATOM     36  O   UNL     1       0.011  -0.003   0.005  0.00  0.00    -0.459 OA
BRANCH  36  37
ATOM     37  C   UNL     1      -0.001   1.425   0.017  0.00  0.00    +0.260 C 
BRANCH  37  38
ATOM     38  C   UNL     1      -0.723   1.920   1.272  0.00  0.00    +0.200 C 
BRANCH  38  39
ATOM     39  O   UNL     1       0.021   1.539   2.431  0.00  0.00    -0.380 OA
ATOM     40  C   UNL     1      -0.570   1.954   3.663  0.00  0.00    +0.194 C 
ENDBRANCH  38  39
ENDBRANCH  37  38
ENDBRANCH  36  37
ENDBRANCH  34  36
ENDBRANCH  11  34
TORSDOF 8
