REMARK  Name = ZINC35566080
REMARK  11 active torsions:
REMARK  status: ('A' for Active; 'I' for Inactive)
REMARK    1  A    between atoms: C_1  and  C_2
REMARK    2  A    between atoms: C_3  and  C_8
REMARK    3  A    between atoms: C_5  and  C_7
REMARK    4  A    between atoms: C_8  and  C_10
REMARK    5  A    between atoms: C_15  and  C_17
REMARK    6  A    between atoms: C_20  and  C_23
REMARK    7  A    between atoms: C_23  and  C_24
REMARK    8  A    between atoms: C_23  and  C_25
REMARK    9  A    between atoms: C_28  and  C_34
REMARK   10  A    between atoms: C_29  and  C_31
REMARK   11  A    between atoms: C_31  and  C_33
REMARK                            x       y       z     vdW  Elec       q    Type
REMARK                         _______ _______ _______ _____ _____    ______ ____
ROOT
ATOM      1  C   UNL     1       0.035  -1.295  -3.572  0.00  0.00    +0.077 C 
ATOM      2  C   UNL     1       0.118  -1.063  -4.902  0.00  0.00    +0.250 C 
ATOM      3  C   UNL     1       0.193  -2.352  -5.617  0.00  0.00    +0.293 C 
ATOM      4  O   UNL     1       0.276  -2.477  -6.822  0.00  0.00    -0.266 OA
ATOM      5  N   UNL     1       0.156  -3.369  -4.736  0.00  0.00    -0.232 N 
ATOM      6  C   UNL     1       0.061  -2.794  -3.389  0.00  0.00    +0.152 C 
ATOM      7  C   UNL     1       0.206  -4.713  -5.045  0.00  0.00    +0.169 A 
ATOM      8  N   UNL     1       0.166  -5.744  -4.217  0.00  0.00    -0.229 NA
ATOM      9  C   UNL     1       0.223  -6.974  -4.654  0.00  0.00    +0.058 A 
ATOM     10  C   UNL     1       0.326  -7.135  -6.034  0.00  0.00    +0.078 A 
ATOM     11  S   UNL     1       0.322  -5.429  -6.563  0.00  0.00    -0.049 S 
ATOM     12  C   UNL     1       0.179  -8.154  -3.717  0.00  0.00    +0.067 C 
ATOM     13  O   UNL     1       0.130   0.159  -5.486  0.00  0.00    -0.282 OA
ENDROOT
BRANCH   6  14
ATOM     14  C   UNL     1       1.258  -3.195  -2.565  0.00  0.00    -0.022 A 
ATOM     15  C   UNL     1       2.520  -3.189  -3.131  0.00  0.00    +0.006 A 
ATOM     16  C   UNL     1       3.618  -3.556  -2.376  0.00  0.00    +0.004 A 
ATOM     17  C   UNL     1       3.455  -3.929  -1.055  0.00  0.00    -0.045 A 
ATOM     18  C   UNL     1       2.193  -3.935  -0.489  0.00  0.00    +0.004 A 
ATOM     19  C   UNL     1       1.096  -3.563  -1.243  0.00  0.00    +0.006 A 
BRANCH  17  20
ATOM     20  C   UNL     1       4.652  -4.331  -0.232  0.00  0.00    +0.013 C 
ATOM     21  C   UNL     1       4.782  -3.393   0.970  0.00  0.00    +0.012 C 
ATOM     22  C   UNL     1       4.473  -5.768   0.260  0.00  0.00    +0.012 C 
ENDBRANCH  17  20
ENDBRANCH   6  14
BRANCH  10  23
ATOM     23  C   UNL     1       0.405  -8.315  -6.800  0.00  0.00    +0.168 C 
ATOM     24  O   UNL     1       0.387  -9.398  -6.251  0.00  0.00    -0.292 OA
ATOM     25  C   UNL     1       0.511  -8.233  -8.301  0.00  0.00    +0.092 C 
ENDBRANCH  10  23
BRANCH   1  26
ATOM     26  C   UNL     1      -0.057  -0.285  -2.511  0.00  0.00    +0.203 C 
ATOM     27  O   UNL     1       0.878   0.468  -2.304  0.00  0.00    -0.286 OA
BRANCH  26  30
ATOM     28  C   UNL     1      -0.518   1.574  -0.038  0.00  0.00    +0.067 C 
ATOM     29  C   UNL     1      -1.542   0.619  -0.596  0.00  0.00    +0.057 A 
ATOM     30  C   UNL     1      -1.274  -0.182  -1.700  0.00  0.00    +0.082 A 
ATOM     31  S   UNL     1      -2.827  -1.050  -1.856  0.00  0.00    -0.069 S 
ATOM     32  C   UNL     1      -3.624  -0.336  -0.556  0.00  0.00    +0.076 A 
ATOM     33  N   UNL     1      -2.732   0.494  -0.065  0.00  0.00    -0.249 NA
ATOM     34  C   UNL     1      -5.027  -0.592  -0.069  0.00  0.00    +0.073 C 
ENDBRANCH  26  30
ENDBRANCH   1  26
TORSDOF 5
