REMARK  Name = ZINC20209212
REMARK  11 active torsions:
REMARK  status: ('A' for Active; 'I' for Inactive)
REMARK    1  A    between atoms: C_1  and  C_2
REMARK    2  A    between atoms: C_2  and  C_4
REMARK    3  A    between atoms: C_2  and  C_10
REMARK    4  A    between atoms: C_4  and  N_5
REMARK    5  A    between atoms: C_10  and  N_11
REMARK    6  A    between atoms: N_11  and  C_12
REMARK    7  A    between atoms: N_11  and  C_13
REMARK    8  A    between atoms: C_13  and  C_14
REMARK    9  A    between atoms: C_16  and  C_19
REMARK   10  A    between atoms: C_19  and  C_20
REMARK   11  A    between atoms: C_24  and  C_26
REMARK                            x       y       z     vdW  Elec       q    Type
REMARK                         _______ _______ _______ _____ _____    ______ ____
ROOT
ATOM      1  C   UNL     1      -0.059   6.458  -3.598  0.00  0.00    +0.241 A 
ATOM      2  N   UNL     1       0.272   6.140  -2.369  0.00  0.00    -0.195 NA
ATOM      3  C   UNL     1      -0.864   5.718  -1.786  0.00  0.00    +0.176 A 
ATOM      4  N   UNL     1      -1.811   5.805  -2.671  0.00  0.00    -0.061 NA
ATOM      5  O   UNL     1      -1.370   6.228  -3.719  0.00  0.00    -0.337 OA
ENDROOT
BRANCH   1   6
ATOM      6  C   UNL     1       0.862   6.986  -4.668  0.00  0.00    +0.183 C 
BRANCH   6   7
ATOM      7  N   UNL     1       1.427   5.862  -5.426  0.00  0.00    -0.297 NA
ATOM      8  C   UNL     1       2.306   5.044  -4.580  0.00  0.00    +0.105 C 
BRANCH   7   9
ATOM      9  C   UNL     1       2.138   6.337  -6.620  0.00  0.00    +0.086 C 
BRANCH   9  11
ATOM     10  C   UNL     1       3.175   5.644  -8.785  0.00  0.00    +0.007 C 
ATOM     11  C   UNL     1       2.365   5.166  -7.579  0.00  0.00    -0.017 C 
BRANCH  11  12
ATOM     12  C   UNL     1       1.015   4.625  -8.053  0.00  0.00    -0.074 C 
BRANCH  12  13
ATOM     13  N   UNL     1       1.229   3.428  -8.876  0.00  0.00    +0.380 N 
ATOM     14  C   UNL     1       2.075   2.436  -8.164  0.00  0.00    -0.079 C 
ATOM     15  C   UNL     1       1.760   1.109  -8.899  0.00  0.00    -0.020 C 
ATOM     16  C   UNL     1       0.248   1.230  -9.199  0.00  0.00    -0.020 C 
ATOM     17  C   UNL     1      -0.051   2.740  -9.155  0.00  0.00    -0.079 C 
ATOM     18  H   UNL     1       1.706   3.782  -9.802  0.00  0.00    -0.082 HD
ENDBRANCH  12  13
ENDBRANCH  11  12
ENDBRANCH   9  11
ENDBRANCH   7   9
ENDBRANCH   6   7
ENDBRANCH   1   6
BRANCH   3  19
ATOM     19  C   UNL     1      -1.012   5.237  -0.366  0.00  0.00    +0.114 C 
BRANCH  19  20
ATOM     20  C   UNL     1      -0.789   3.747  -0.314  0.00  0.00    -0.039 A 
ATOM     21  C   UNL     1       0.482   3.245  -0.107  0.00  0.00    +0.004 A 
ATOM     22  C   UNL     1       0.686   1.879  -0.060  0.00  0.00    +0.001 A 
ATOM     23  C   UNL     1      -0.382   1.014  -0.218  0.00  0.00    +0.012 A 
ATOM     24  C   UNL     1      -1.652   1.517  -0.429  0.00  0.00    +0.055 A 
ATOM     25  C   UNL     1      -1.857   2.883  -0.473  0.00  0.00    +0.016 A 
BRANCH  24  26
ATOM     26  C   UNL     1      -2.815   0.575  -0.608  0.00  0.00    +0.417 C 
ATOM     27  F   UNL     1      -2.362  -0.746  -0.521  0.00  0.00    -0.166 F 
ATOM     28  F   UNL     1      -3.764   0.810   0.393  0.00  0.00    -0.166 F 
ATOM     29  F   UNL     1      -3.397   0.786  -1.862  0.00  0.00    -0.166 F 
ENDBRANCH  24  26
ENDBRANCH  19  20
ENDBRANCH   3  19
TORSDOF 9
