REMARK  Name = ZINC08645300
REMARK  7 active torsions:
REMARK  status: ('A' for Active; 'I' for Inactive)
REMARK    1  A    between atoms: C_1  and  C_2
REMARK    2  A    between atoms: C_8  and  N_10
REMARK    3  A    between atoms: C_14  and  C_16
REMARK    4  A    between atoms: C_16  and  S_17
REMARK    5  A    between atoms: S_17  and  C_18
REMARK    6  A    between atoms: C_21  and  C_24
REMARK    7  A    between atoms: N_22  and  N_23
REMARK                            x       y       z     vdW  Elec       q    Type
REMARK                         _______ _______ _______ _____ _____    ______ ____
ROOT
ATOM      1  S   UNL     1       1.684   3.447   0.004  0.00  0.00    -0.075 S 
ENDROOT
BRANCH   1   2
ATOM      2  C   UNL     1       1.213   1.749  -0.000  0.00  0.00    +0.209 A 
ATOM      3  N   UNL     1      -0.015   1.281   0.009  0.00  0.00    -0.121 NA
ATOM      4  N   UNL     1       0.002  -0.004   0.002  0.00  0.00    -0.127 NA
ATOM      5  C   UNL     1       1.242  -0.435  -0.012  0.00  0.00    +0.183 A 
ATOM      6  N   UNL     1       2.055   0.674  -0.014  0.00  0.00    -0.224 N 
BRANCH   5   7
ATOM      7  C   UNL     1       1.681  -1.847  -0.024  0.00  0.00    +0.039 A 
ATOM      8  C   UNL     1       3.042  -2.157  -0.043  0.00  0.00    +0.014 A 
ATOM      9  C   UNL     1       3.445  -3.476  -0.049  0.00  0.00    +0.021 A 
ATOM     10  C   UNL     1       2.504  -4.492  -0.046  0.00  0.00    +0.042 A 
ATOM     11  C   UNL     1       1.153  -4.192  -0.031  0.00  0.00    +0.040 A 
ATOM     12  C   UNL     1       0.736  -2.875  -0.020  0.00  0.00    +0.053 A 
ATOM     13 CL   UNL     1      -0.959  -2.500  -0.001  0.00  0.00    -0.083 Cl
ATOM     14 CL   UNL     1       3.021  -6.149  -0.060  0.00  0.00    -0.083 Cl
ENDBRANCH   5   7
BRANCH   6  15
ATOM     15  N   UNL     1       3.421   0.696  -0.026  0.00  0.00    -0.295 N 
ATOM     16  H   UNL     1       3.774   0.707  -0.971  0.00  0.00    +0.163 HD
ATOM     17  H   UNL     1       3.775   1.481   0.501  0.00  0.00    +0.163 HD
ENDBRANCH   6  15
ENDBRANCH   1   2
BRANCH   1  18
ATOM     18  C   UNL     1       0.051   4.226   0.025  0.00  0.00    +0.173 C 
BRANCH  18  23
ATOM     19  N   UNL     1      -1.828   8.651   0.068  0.00  0.00    -0.296 N 
ATOM     20  C   UNL     1      -0.738   7.858   0.053  0.00  0.00    +0.306 C 
ATOM     21  O   UNL     1       0.372   8.352   0.044  0.00  0.00    -0.252 OA
ATOM     22  N   UNL     1      -0.880   6.518   0.047  0.00  0.00    -0.239 N 
ATOM     23  C   UNL     1       0.209   5.725   0.032  0.00  0.00    +0.231 C 
ATOM     24  O   UNL     1       1.317   6.217   0.023  0.00  0.00    -0.274 OA
ATOM     25  H   UNL     1      -2.714   8.258   0.075  0.00  0.00    +0.151 HD
ATOM     26  H   UNL     1      -1.767   6.124   0.054  0.00  0.00    +0.159 HD
BRANCH  19  33
ATOM     27  C   UNL     1      -3.078  10.248   2.136  0.00  0.00    +0.009 C 
ATOM     28  C   UNL     1      -2.914  10.750   0.700  0.00  0.00    +0.006 C 
ATOM     29  C   UNL     1      -4.151  10.371  -0.117  0.00  0.00    +0.005 C 
ATOM     30  C   UNL     1      -3.986  10.873  -1.553  0.00  0.00    +0.000 C 
ATOM     31  C   UNL     1      -2.746  10.232  -2.179  0.00  0.00    +0.002 C 
ATOM     32  C   UNL     1      -1.509  10.610  -1.361  0.00  0.00    +0.022 C 
ATOM     33  C   UNL     1      -1.673  10.108   0.074  0.00  0.00    +0.077 C 
ENDBRANCH  19  33
ENDBRANCH  18  23
ENDBRANCH   1  18
TORSDOF 6
