REMARK  Name = ZINC06443571
REMARK  12 active torsions:
REMARK  status: ('A' for Active; 'I' for Inactive)
REMARK    1  A    between atoms: C_1  and  C_2
REMARK    2  A    between atoms: C_12  and  C_14
REMARK    3  A    between atoms: C_14  and  C_16
REMARK    4  A    between atoms: C_14  and  N_66
REMARK    5  A    between atoms: N_20  and  C_21
REMARK    6  A    between atoms: C_21  and  C_22
REMARK    7  A    between atoms: C_21  and  C_23
REMARK    8  A    between atoms: C_21  and  C_24
REMARK    9  A    between atoms: C_25  and  C_26
REMARK   10  A    between atoms: C_25  and  N_66
REMARK   11  A    between atoms: C_33  and  C_34
REMARK   12  A    between atoms: C_33  and  N_66
REMARK                            x       y       z     vdW  Elec       q    Type
REMARK                         _______ _______ _______ _____ _____    ______ ____
ROOT
ATOM      1  C   UNL     1      -0.186  -2.909   3.504  0.00  0.00    +0.040 C 
ENDROOT
BRANCH   1  13
ATOM      2  C   UNL     1      -1.017   1.080  -1.654  0.00  0.00    +0.046 C 
ATOM      3  C   UNL     1      -0.697  -0.391  -1.574  0.00  0.00    -0.026 A 
ATOM      4  C   UNL     1      -0.534  -1.127  -2.728  0.00  0.00    +0.005 A 
ATOM      5  C   UNL     1      -0.234  -2.481  -2.669  0.00  0.00    +0.001 A 
ATOM      6  C   UNL     1      -0.106  -3.112  -1.464  0.00  0.00    +0.010 A 
ATOM      7  C   UNL     1      -0.273  -2.386  -0.280  0.00  0.00    -0.001 A 
ATOM      8  C   UNL     1      -0.571  -1.012  -0.336  0.00  0.00    +0.052 A 
ATOM      9  N   UNL     1      -0.733  -0.301   0.834  0.00  0.00    -0.322 N 
ATOM     10  H   UNL     1      -0.939   0.646   0.793  0.00  0.00    +0.169 HD
ATOM     11  C   UNL     1      -0.612  -0.902   2.030  0.00  0.00    +0.251 A 
ATOM     12  O   UNL     1      -0.762  -0.242   3.044  0.00  0.00    -0.268 OA
ATOM     13  C   UNL     1      -0.314  -2.277   2.142  0.00  0.00    +0.011 A 
ATOM     14  C   UNL     1      -0.142  -3.031   1.028  0.00  0.00    +0.017 A 
ENDBRANCH   1  13
BRANCH   1  15
ATOM     15  C   UNL     1       0.998  -2.317   4.224  0.00  0.00    +0.143 A 
ATOM     16  N   UNL     1       1.060  -1.134   4.786  0.00  0.00    -0.115 NA
ATOM     17  N   UNL     1       2.235  -0.999   5.298  0.00  0.00    -0.023 NA
ATOM     18  N   UNL     1       2.926  -2.061   5.069  0.00  0.00    -0.043 NA
ATOM     19  N   UNL     1       2.198  -2.897   4.410  0.00  0.00    -0.225 N 
BRANCH  19  20
ATOM     20  C   UNL     1       2.601  -4.228   3.950  0.00  0.00    +0.059 C 
ATOM     21  C   UNL     1       2.374  -4.337   2.441  0.00  0.00    +0.036 C 
ATOM     22  C   UNL     1       4.083  -4.447   4.260  0.00  0.00    +0.036 C 
ATOM     23  C   UNL     1       1.768  -5.290   4.669  0.00  0.00    +0.036 C 
ENDBRANCH  19  20
ENDBRANCH   1  15
BRANCH   1  24
ATOM     24  N   UNL     1      -1.408  -2.626   4.286  0.00  0.00    +0.397 N 
ATOM     25  H   UNL     1      -1.417  -1.632   4.543  0.00  0.00    -0.079 HD
BRANCH  24  26
ATOM     26  C   UNL     1      -1.420  -3.442   5.518  0.00  0.00    -0.041 C 
BRANCH  26  27
ATOM     27  C   UNL     1      -0.631  -2.720   6.580  0.00  0.00    -0.064 A 
ATOM     28  C   UNL     1       0.677  -3.086   6.838  0.00  0.00    +0.003 A 
ATOM     29  C   UNL     1       1.402  -2.420   7.808  0.00  0.00    +0.020 A 
ATOM     30  C   UNL     1       0.816  -1.394   8.528  0.00  0.00    +0.041 A 
ATOM     31  C   UNL     1      -0.495  -1.032   8.273  0.00  0.00    +0.020 A 
ATOM     32  C   UNL     1      -1.218  -1.695   7.299  0.00  0.00    +0.003 A 
ATOM     33 CL   UNL     1       1.724  -0.561   9.751  0.00  0.00    -0.084 Cl
ENDBRANCH  26  27
ENDBRANCH  24  26
BRANCH  24  34
ATOM     34  C   UNL     1      -2.607  -2.922   3.473  0.00  0.00    -0.001 C 
BRANCH  34  35
ATOM     35  C   UNL     1      -3.805  -2.283   4.128  0.00  0.00    +0.089 A 
ATOM     36  C   UNL     1      -4.279  -1.051   3.870  0.00  0.00    +0.042 A 
ATOM     37  C   UNL     1      -5.405  -0.863   4.704  0.00  0.00    +0.041 A 
ATOM     38  C   UNL     1      -5.552  -1.991   5.421  0.00  0.00    +0.195 A 
ATOM     39  O   UNL     1      -4.584  -2.850   5.064  0.00  0.00    -0.470 OA
ENDBRANCH  34  35
ENDBRANCH  24  34
ENDBRANCH   1  24
TORSDOF 8
