REMARK  Name = ZINC01114999
REMARK  6 active torsions:
REMARK  status: ('A' for Active; 'I' for Inactive)
REMARK    1  A    between atoms: C_1  and  C_2
REMARK    2  A    between atoms: C_2  and  C_3
REMARK    3  A    between atoms: C_4  and  C_24
REMARK    4  A    between atoms: C_6  and  N_11
REMARK    5  A    between atoms: C_7  and  C_8
REMARK    6  A    between atoms: C_12  and  C_14
REMARK                            x       y       z     vdW  Elec       q    Type
REMARK                         _______ _______ _______ _____ _____    ______ ____
ROOT
ATOM      1  N   UNL     1      -2.650   0.719   2.504  0.00  0.00    -0.275 N 
ATOM      2  C   UNL     1      -3.387   0.265   3.537  0.00  0.00    +0.257 C 
ATOM      3  O   UNL     1      -4.418  -0.347   3.326  0.00  0.00    -0.269 OA
ATOM      4  H   UNL     1      -1.828   1.206   2.672  0.00  0.00    +0.156 HD
ENDROOT
BRANCH   2   5
ATOM      5  C   UNL     1      -2.947   0.508   4.916  0.00  0.00    +0.094 A 
ATOM      6  C   UNL     1      -3.552   0.137   6.077  0.00  0.00    +0.068 A 
ATOM      7  C   UNL     1      -2.962   0.467   7.312  0.00  0.00    +0.008 A 
ATOM      8  C   UNL     1      -3.432   0.170   8.617  0.00  0.00    +0.010 A 
ATOM      9  C   UNL     1      -2.737   0.571   9.713  0.00  0.00    +0.001 A 
ATOM     10  C   UNL     1      -1.548   1.281   9.603  0.00  0.00    +0.001 A 
ATOM     11  C   UNL     1      -1.055   1.591   8.352  0.00  0.00    +0.016 A 
ATOM     12  C   UNL     1      -1.749   1.191   7.230  0.00  0.00    +0.021 A 
ATOM     13  S   UNL     1      -1.490   1.369   5.482  0.00  0.00    -0.082 S 
ATOM     14 CL   UNL     1      -5.048  -0.744   6.036  0.00  0.00    -0.082 Cl
ENDBRANCH   2   5
BRANCH   1  18
ATOM     15  C   UNL     1      -3.103   0.493  -1.210  0.00  0.00    -0.024 A 
ATOM     16  C   UNL     1      -4.255  -0.194  -1.103  0.00  0.00    -0.008 A 
ATOM     17  S   UNL     1      -4.481  -0.344   0.657  0.00  0.00    -0.078 S 
ATOM     18  C   UNL     1      -3.065   0.489   1.203  0.00  0.00    +0.085 A 
ATOM     19  C   UNL     1      -2.447   0.874   0.018  0.00  0.00    +0.068 A 
ATOM     20  C   UNL     1      -5.139  -0.713  -2.207  0.00  0.00    +0.052 C 
BRANCH  19  21
ATOM     21  C   UNL     1      -1.187   1.624   0.017  0.00  0.00    +0.244 C 
ATOM     22  O   UNL     1      -1.204   2.841   0.023  0.00  0.00    -0.270 OA
ATOM     23  N   UNL     1      -0.011   0.966   0.007  0.00  0.00    -0.325 N 
ATOM     24  H   UNL     1       0.002  -0.004   0.002  0.00  0.00    +0.145 HD
ATOM     25  H   UNL     1       0.822   1.462   0.002  0.00  0.00    +0.145 HD
ENDBRANCH  19  21
BRANCH  15  27
ATOM     26  C   UNL     1      -1.588  -0.268  -3.020  0.00  0.00    +0.009 C 
ATOM     27  C   UNL     1      -2.523   0.850  -2.554  0.00  0.00    +0.033 C 
ENDBRANCH  15  27
ENDBRANCH   1  18
TORSDOF 4
