REMARK  Name = ZINC64179358
REMARK  11 active torsions:
REMARK  status: ('A' for Active; 'I' for Inactive)
REMARK    1  A    between atoms: C_1  and  C_2
REMARK    2  A    between atoms: C_3  and  C_33
REMARK    3  A    between atoms: C_4  and  C_32
REMARK    4  A    between atoms: C_7  and  C_8
REMARK    5  A    between atoms: C_8  and  C_10
REMARK    6  A    between atoms: C_10  and  C_12
REMARK    7  A    between atoms: C_10  and  S_13
REMARK    8  A    between atoms: S_13  and  C_14
REMARK    9  A    between atoms: N_19  and  C_20
REMARK   10  A    between atoms: C_20  and  C_21
REMARK   11  A    between atoms: C_33  and  C_35
REMARK                            x       y       z     vdW  Elec       q    Type
REMARK                         _______ _______ _______ _____ _____    ______ ____
ROOT
ATOM      1  C   UNL     1      -0.729  -2.155   6.361  0.00  0.00    +0.236 C 
ATOM      2  N   UNL     1      -1.419  -3.207   5.595  0.00  0.00    -0.259 N 
ATOM      3  N   UNL     1      -0.500  -4.255   5.459  0.00  0.00    -0.283 N 
ATOM      4  C   UNL     1       0.622  -3.977   6.029  0.00  0.00    +0.178 C 
ATOM      5  N   UNL     1       0.607  -2.719   6.619  0.00  0.00    -0.268 N 
ATOM      6  N   UNL     1       1.715  -4.833   6.053  0.00  0.00    -0.304 N 
ATOM      7  C   UNL     1       1.528  -6.282   6.210  0.00  0.00    +0.107 C 
ATOM      8  C   UNL     1       2.251  -6.998   5.066  0.00  0.00    +0.019 C 
ATOM      9  C   UNL     1       3.715  -6.553   5.035  0.00  0.00    +0.003 C 
ATOM     10  C   UNL     1       3.787  -5.046   4.782  0.00  0.00    +0.019 C 
ATOM     11  C   UNL     1       3.080  -4.307   5.917  0.00  0.00    +0.107 C 
ATOM     12  H   UNL     1      -2.326  -3.179   5.253  0.00  0.00    +0.169 HD
ATOM     13  H   UNL     1      -0.686  -5.087   4.995  0.00  0.00    +0.187 HD
ENDROOT
BRANCH   1  14
ATOM     14  S   UNL     1      -0.599  -0.634   5.380  0.00  0.00    -0.107 S 
BRANCH  14  15
ATOM     15  C   UNL     1       0.264  -1.157   3.873  0.00  0.00    +0.119 C 
ATOM     16  C   UNL     1       1.683  -1.608   4.228  0.00  0.00    +0.027 C 
BRANCH  15  17
ATOM     17  C   UNL     1       0.331  -0.003   2.906  0.00  0.00    +0.192 C 
ATOM     18  O   UNL     1       0.279   1.138   3.318  0.00  0.00    -0.289 OA
BRANCH  17  25
ATOM     19  C   UNL     1       0.487   2.203   0.723  0.00  0.00    +0.047 C 
ATOM     20  C   UNL     1       0.526   0.709   0.530  0.00  0.00    -0.012 A 
ATOM     21  C   UNL     1       0.649   0.021  -0.699  0.00  0.00    +0.041 A 
ATOM     22  C   UNL     1       0.642  -1.336  -0.409  0.00  0.00    +0.024 A 
ATOM     23  N   UNL     1       0.522  -1.490   0.917  0.00  0.00    -0.355 N 
ATOM     24  H   UNL     1       0.491  -2.340   1.382  0.00  0.00    +0.166 HD
ATOM     25  C   UNL     1       0.455  -0.248   1.517  0.00  0.00    +0.087 A 
ATOM     26  C   UNL     1       0.751  -2.450  -1.417  0.00  0.00    +0.064 C 
BRANCH  21  27
ATOM     27  C   UNL     1       0.763   0.627  -2.029  0.00  0.00    +0.162 C 
ATOM     28  O   UNL     1      -0.228   0.780  -2.713  0.00  0.00    -0.292 OA
ATOM     29  C   UNL     1       2.110   1.060  -2.547  0.00  0.00    +0.091 C 
ENDBRANCH  21  27
ENDBRANCH  17  25
ENDBRANCH  15  17
ENDBRANCH  14  15
ENDBRANCH   1  14
BRANCH   5  30
ATOM     30  C   UNL     1       1.702  -2.078   7.351  0.00  0.00    +0.184 C 
BRANCH  30  31
ATOM     31  C   UNL     1       1.524  -2.316   8.829  0.00  0.00    +0.122 A 
ATOM     32  C   UNL     1       2.099  -3.300   9.542  0.00  0.00    +0.046 A 
ATOM     33  C   UNL     1       1.661  -3.149  10.878  0.00  0.00    +0.041 A 
ATOM     34  C   UNL     1       0.843  -2.080  10.901  0.00  0.00    +0.195 A 
ATOM     35  O   UNL     1       0.769  -1.576   9.658  0.00  0.00    -0.466 OA
ENDBRANCH  30  31
ENDBRANCH   5  30
TORSDOF 7
