REMARK  Name = ZINC39772534
REMARK  10 active torsions:
REMARK  status: ('A' for Active; 'I' for Inactive)
REMARK    1  A    between atoms: C_1  and  C_2
REMARK    2  A    between atoms: C_2  and  C_4
REMARK    3  A    between atoms: C_2  and  S_14
REMARK    4  A    between atoms: N_6  and  C_7
REMARK    5  A    between atoms: C_12  and  O_13
REMARK    6  A    between atoms: S_14  and  C_15
REMARK    7  A    between atoms: C_18  and  C_26
REMARK    8  A    between atoms: N_19  and  C_20
REMARK    9  A    between atoms: C_26  and  N_27
REMARK   10  A    between atoms: C_28  and  C_30
REMARK                            x       y       z     vdW  Elec       q    Type
REMARK                         _______ _______ _______ _____ _____    ______ ____
ROOT
ATOM      1  C   UNL     1      -2.362  -0.134  -1.535  0.00  0.00    +0.197 A 
ATOM      2  N   UNL     1      -1.736   0.554  -2.461  0.00  0.00    -0.122 NA
ATOM      3  N   UNL     1      -2.521   0.763  -3.457  0.00  0.00    -0.132 NA
ATOM      4  C   UNL     1      -3.687   0.226  -3.231  0.00  0.00    +0.156 A 
ATOM      5  N   UNL     1      -3.627  -0.371  -1.999  0.00  0.00    -0.273 N 
ENDROOT
BRANCH   5   6
ATOM      6  C   UNL     1      -4.651  -1.075  -1.349  0.00  0.00    +0.050 A 
ATOM      7  C   UNL     1      -5.119  -2.269  -1.880  0.00  0.00    +0.026 A 
ATOM      8  C   UNL     1      -6.127  -2.961  -1.237  0.00  0.00    +0.002 A 
ATOM      9  C   UNL     1      -6.669  -2.466  -0.065  0.00  0.00    +0.000 A 
ATOM     10  C   UNL     1      -6.204  -1.277   0.466  0.00  0.00    +0.002 A 
ATOM     11  C   UNL     1      -5.193  -0.583  -0.169  0.00  0.00    +0.026 A 
ENDBRANCH   5   6
BRANCH   1  12
ATOM     12  S   UNL     1      -1.697  -0.659   0.010  0.00  0.00    -0.073 S 
BRANCH  12  14
ATOM     13  C   UNL     1      -0.027   1.507  -0.006  0.00  0.00    +0.029 C 
ATOM     14  C   UNL     1       0.001  -0.023  -0.004  0.00  0.00    +0.137 C 
BRANCH  14  15
ATOM     15  C   UNL     1       0.731  -0.510   1.221  0.00  0.00    +0.230 C 
ATOM     16  O   UNL     1       0.105  -0.895   2.186  0.00  0.00    -0.274 OA
ATOM     17  N   UNL     1       2.079  -0.519   1.244  0.00  0.00    -0.282 N 
ATOM     18  H   UNL     1       2.579  -0.272   0.450  0.00  0.00    +0.155 HD
BRANCH  17  19
ATOM     19  C   UNL     1       2.757  -0.883   2.415  0.00  0.00    +0.075 A 
ATOM     20  C   UNL     1       2.229  -1.857   3.250  0.00  0.00    +0.027 A 
ATOM     21  C   UNL     1       2.900  -2.215   4.404  0.00  0.00    +0.002 A 
ATOM     22  C   UNL     1       4.097  -1.605   4.729  0.00  0.00    +0.004 A 
ATOM     23  C   UNL     1       4.630  -0.633   3.901  0.00  0.00    +0.047 A 
ATOM     24  C   UNL     1       3.966  -0.273   2.740  0.00  0.00    +0.138 A 
BRANCH  24  25
ATOM     25  O   UNL     1       4.491   0.678   1.922  0.00  0.00    -0.505 OA
ATOM     26  H   UNL     1       4.207   1.578   2.133  0.00  0.00    +0.292 HD
ENDBRANCH  24  25
ENDBRANCH  17  19
ENDBRANCH  14  15
ENDBRANCH  12  14
ENDBRANCH   1  12
BRANCH   4  27
ATOM     27  C   UNL     1      -4.877   0.252  -4.154  0.00  0.00    +0.181 C 
BRANCH  27  28
ATOM     28  N   UNL     1      -4.835  -0.915  -5.038  0.00  0.00    -0.304 N 
ATOM     29  C   UNL     1      -5.806  -1.102  -5.954  0.00  0.00    +0.247 C 
ATOM     30  O   UNL     1      -6.716  -0.302  -6.047  0.00  0.00    -0.270 OA
ATOM     31  H   UNL     1      -4.109  -1.554  -4.963  0.00  0.00    +0.149 HD
BRANCH  29  32
ATOM     32  C   UNL     1      -5.763  -2.280  -6.845  0.00  0.00    +0.072 A 
ATOM     33  C   UNL     1      -4.723  -3.204  -6.737  0.00  0.00    +0.016 A 
ATOM     34  C   UNL     1      -4.689  -4.302  -7.571  0.00  0.00    +0.001 A 
ATOM     35  C   UNL     1      -5.684  -4.489  -8.515  0.00  0.00    +0.003 A 
ATOM     36  C   UNL     1      -6.718  -3.579  -8.631  0.00  0.00    +0.039 A 
ATOM     37  C   UNL     1      -6.769  -2.477  -7.797  0.00  0.00    +0.135 A 
ATOM     38  F   UNL     1      -7.782  -1.590  -7.906  0.00  0.00    -0.205 F 
ENDBRANCH  29  32
ENDBRANCH  27  28
ENDBRANCH   4  27
TORSDOF 9
