REMARK  Name = ZINC19229140
REMARK  6 active torsions:
REMARK  status: ('A' for Active; 'I' for Inactive)
REMARK    1  A    between atoms: N_4  and  C_7
REMARK    2  A    between atoms: C_7  and  C_9
REMARK    3  A    between atoms: C_7  and  N_13
REMARK    4  A    between atoms: N_16  and  C_17
REMARK    5  A    between atoms: C_17  and  C_19
REMARK    6  A    between atoms: C_17  and  N_23
REMARK                            x       y       z     vdW  Elec       q    Type
REMARK                         _______ _______ _______ _____ _____    ______ ____
ROOT
ATOM      1  N   UNL     1       1.323   2.374  -2.861  0.00  0.00    -0.280 N 
ATOM      2  C   UNL     1       2.182   1.403  -2.490  0.00  0.00    +0.302 C 
ATOM      3  O   UNL     1       1.762   0.305  -2.183  0.00  0.00    -0.253 OA
ATOM      4  N   UNL     1       3.506   1.652  -2.460  0.00  0.00    -0.280 N 
ATOM      5  H   UNL     1       1.703   3.368  -3.139  0.00  0.00    +0.152 HD
ATOM      6  H   UNL     1       3.886   2.646  -2.738  0.00  0.00    +0.152 HD
ENDROOT
BRANCH   1   7
ATOM      7  C   UNL     1      -0.117   2.104  -2.894  0.00  0.00    +0.197 C 
BRANCH   7  11
ATOM      8  C   UNL     1      -0.898   4.054   0.830  0.00  0.00    +0.002 C 
ATOM      9  C   UNL     1      -1.322   2.595   0.639  0.00  0.00    +0.015 C 
ATOM     10  C   UNL     1      -0.519   1.982  -0.510  0.00  0.00    +0.086 C 
ATOM     11  N   UNL     1      -0.762   2.745  -1.741  0.00  0.00    -0.281 NA
ATOM     12  C   UNL     1      -0.319   4.138  -1.598  0.00  0.00    +0.086 C 
ATOM     13  C   UNL     1      -1.116   4.816  -0.481  0.00  0.00    +0.015 C 
ENDBRANCH   7  11
BRANCH   7  14
ATOM     14  C   UNL     1      -0.711   2.665  -4.188  0.00  0.00    +0.222 C 
ATOM     15 CL   UNL     1      -0.071   4.326  -4.472  0.00  0.00    -0.080 Cl
ATOM     16 CL   UNL     1      -0.255   1.600  -5.570  0.00  0.00    -0.080 Cl
ATOM     17 CL   UNL     1      -2.507   2.729  -4.046  0.00  0.00    -0.080 Cl
ENDBRANCH   7  14
ENDBRANCH   1   7
BRANCH   4  18
ATOM     18  C   UNL     1       4.440   0.597  -2.057  0.00  0.00    +0.197 C 
BRANCH  18  19
ATOM     19  N   UNL     1       5.130   0.074  -3.243  0.00  0.00    -0.281 NA
ATOM     20  C   UNL     1       6.234   0.957  -3.642  0.00  0.00    +0.086 C 
ATOM     21  C   UNL     1       7.018   0.311  -4.786  0.00  0.00    +0.015 C 
ATOM     22  C   UNL     1       6.078   0.072  -5.971  0.00  0.00    +0.002 C 
ATOM     23  C   UNL     1       4.912  -0.810  -5.517  0.00  0.00    +0.015 C 
ATOM     24  C   UNL     1       4.189  -0.132  -4.351  0.00  0.00    +0.086 C 
ENDBRANCH  18  19
BRANCH  18  25
ATOM     25  C   UNL     1       5.468   1.172  -1.080  0.00  0.00    +0.222 C 
ATOM     26 CL   UNL     1       4.664   1.541   0.491  0.00  0.00    -0.080 Cl
ATOM     27 CL   UNL     1       6.783  -0.032  -0.814  0.00  0.00    -0.080 Cl
ATOM     28 CL   UNL     1       6.168   2.685  -1.767  0.00  0.00    -0.080 Cl
ENDBRANCH  18  25
ENDBRANCH   4  18
TORSDOF 6
