REMARK  Name = ZINC35992897
REMARK  13 active torsions:
REMARK  status: ('A' for Active; 'I' for Inactive)
REMARK    1  A    between atoms: C_1  and  C_2
REMARK    2  A    between atoms: C_2  and  C_3
REMARK    3  A    between atoms: C_3  and  N_4
REMARK    4  A    between atoms: N_10  and  C_15
REMARK    5  A    between atoms: C_12  and  C_14
REMARK    6  A    between atoms: C_15  and  C_16
REMARK    7  A    between atoms: C_17  and  C_33
REMARK    8  A    between atoms: C_18  and  C_26
REMARK    9  A    between atoms: N_23  and  C_24
REMARK   10  A    between atoms: C_24  and  C_25
REMARK   11  A    between atoms: C_33  and  O_35
REMARK   12  A    between atoms: O_35  and  C_36
REMARK   13  A    between atoms: C_36  and  C_37
REMARK                            x       y       z     vdW  Elec       q    Type
REMARK                         _______ _______ _______ _____ _____    ______ ____
ROOT
ATOM      1  C   UNL     1       0.001  -8.683  -1.935  0.00  0.00    +0.041 C 
ATOM      2  C   UNL     1      -1.267  -8.825  -1.491  0.00  0.00    +0.080 C 
ATOM      3  C   UNL     1      -1.504  -9.756  -0.320  0.00  0.00    +0.144 C 
ATOM      4  N   UNL     1      -0.324 -10.434   0.243  0.00  0.00    -0.288 N 
ATOM      5  C   UNL     1       0.881 -10.190  -0.310  0.00  0.00    +0.307 C 
ATOM      6  O   UNL     1       1.861 -10.745   0.147  0.00  0.00    -0.252 OA
ATOM      7  N   UNL     1       1.032  -9.361  -1.351  0.00  0.00    -0.258 N 
ATOM      8  H   UNL     1      -0.411 -11.042   0.994  0.00  0.00    +0.151 HD
ENDROOT
BRANCH   3   9
ATOM      9  C   UNL     1      -2.150  -8.959   0.784  0.00  0.00    -0.022 A 
ATOM     10  C   UNL     1      -1.377  -8.149   1.595  0.00  0.00    +0.008 A 
ATOM     11  C   UNL     1      -1.969  -7.417   2.607  0.00  0.00    +0.038 A 
ATOM     12  C   UNL     1      -3.337  -7.495   2.808  0.00  0.00    +0.123 A 
ATOM     13  C   UNL     1      -4.110  -8.306   1.995  0.00  0.00    +0.038 A 
ATOM     14  C   UNL     1      -3.517  -9.033   0.980  0.00  0.00    +0.008 A 
ATOM     15  F   UNL     1      -3.916  -6.780   3.797  0.00  0.00    -0.205 F 
ENDBRANCH   3   9
BRANCH   7  16
ATOM     16  C   UNL     1       2.381  -9.164  -1.887  0.00  0.00    +0.111 C 
ATOM     17  C   UNL     1       3.054  -7.998  -1.161  0.00  0.00    +0.025 C 
ENDBRANCH   7  16
BRANCH   2  18
ATOM     18  C   UNL     1      -2.337  -8.128  -2.099  0.00  0.00    +0.339 C 
ATOM     19  O   UNL     1      -2.724  -7.076  -1.627  0.00  0.00    -0.245 OA
BRANCH  18  20
ATOM     20  O   UNL     1      -2.929  -8.630  -3.204  0.00  0.00    -0.462 OA
BRANCH  20  21
ATOM     21  C   UNL     1      -4.003  -7.873  -3.765  0.00  0.00    +0.229 C 
ATOM     22  C   UNL     1      -4.544  -8.595  -5.001  0.00  0.00    +0.048 C 
ENDBRANCH  20  21
ENDBRANCH  18  20
ENDBRANCH   2  18
BRANCH   1  23
ATOM     23  C   UNL     1       0.280  -7.767  -3.099  0.00  0.00    +0.136 C 
BRANCH  23  30
ATOM     24  N   UNL     1       1.210  -1.910  -1.259  0.00  0.00    -0.299 N 
ATOM     25  C   UNL     1       1.751  -2.610  -2.276  0.00  0.00    +0.303 C 
ATOM     26  O   UNL     1       2.197  -2.027  -3.245  0.00  0.00    -0.253 OA
ATOM     27  N   UNL     1       1.799  -3.955  -2.217  0.00  0.00    -0.280 N 
ATOM     28  C   UNL     1       1.151  -4.687  -1.118  0.00  0.00    +0.125 C 
ATOM     29  C   UNL     1       0.259  -5.778  -1.719  0.00  0.00    +0.104 C 
ATOM     30  N   UNL     1       1.053  -6.608  -2.634  0.00  0.00    -0.294 NA
ATOM     31  C   UNL     1       1.554  -5.820  -3.768  0.00  0.00    +0.107 C 
ATOM     32  C   UNL     1       2.495  -4.731  -3.255  0.00  0.00    +0.088 C 
ATOM     33  C   UNL     1       2.889  -3.808  -4.410  0.00  0.00    +0.029 C 
ATOM     34  H   UNL     1       0.790  -2.376  -0.519  0.00  0.00    +0.150 HD
BRANCH  24  35
ATOM     35  C   UNL     1       1.254  -0.446  -1.272  0.00  0.00    +0.105 C 
BRANCH  35  37
ATOM     36  C   UNL     1       0.622   1.625  -0.026  0.00  0.00    +0.005 C 
ATOM     37  C   UNL     1       0.575   0.096  -0.013  0.00  0.00    +0.015 C 
ENDBRANCH  35  37
ENDBRANCH  24  35
ENDBRANCH  23  30
ENDBRANCH   1  23
TORSDOF 9
