REMARK  Name = ZINC01374016
REMARK  15 active torsions:
REMARK  status: ('A' for Active; 'I' for Inactive)
REMARK    1  A    between atoms: C_1  and  C_2
REMARK    2  A    between atoms: C_2  and  C_3
REMARK    3  A    between atoms: C_10  and  C_15
REMARK    4  A    between atoms: C_15  and  N_16
REMARK    5  A    between atoms: N_16  and  C_17
REMARK    6  A    between atoms: N_16  and  C_27
REMARK    7  A    between atoms: C_17  and  C_18
REMARK    8  A    between atoms: C_27  and  C_29
REMARK    9  A    between atoms: C_27  and  C_31
REMARK   10  A    between atoms: C_29  and  C_30
REMARK   11  A    between atoms: N_35  and  C_36
REMARK   12  A    between atoms: C_36  and  C_37
REMARK   13  A    between atoms: C_36  and  C_38
REMARK   14  A    between atoms: C_36  and  C_39
REMARK   15  A    between atoms: C_39  and  C_40
REMARK                            x       y       z     vdW  Elec       q    Type
REMARK                         _______ _______ _______ _____ _____    ______ ____
ROOT
ATOM      1  N   UNL     1       0.683  -3.022   7.030  0.00  0.00    -0.284 NA
ENDROOT
BRANCH   1   2
ATOM      2  C   UNL     1       1.244  -1.668   7.132  0.00  0.00    +0.126 C 
BRANCH   2  10
ATOM      3  C   UNL     1       5.745  -0.761   2.984  0.00  0.00    -0.047 A 
ATOM      4  C   UNL     1       6.785  -1.220   3.781  0.00  0.00    +0.005 A 
ATOM      5  C   UNL     1       6.545  -1.673   5.060  0.00  0.00    +0.026 A 
ATOM      6  C   UNL     1       5.247  -1.669   5.561  0.00  0.00    +0.049 A 
ATOM      7  C   UNL     1       4.195  -1.202   4.751  0.00  0.00    -0.001 A 
ATOM      8  C   UNL     1       4.463  -0.743   3.457  0.00  0.00    +0.013 A 
ATOM      9  C   UNL     1       2.833  -1.202   5.287  0.00  0.00    +0.020 A 
ATOM     10  C   UNL     1       2.634  -1.654   6.550  0.00  0.00    +0.031 A 
ATOM     11  C   UNL     1       3.723  -2.112   7.321  0.00  0.00    +0.254 A 
ATOM     12  O   UNL     1       3.522  -2.514   8.454  0.00  0.00    -0.268 OA
ATOM     13  N   UNL     1       4.978  -2.115   6.837  0.00  0.00    -0.322 N 
ATOM     14  H   UNL     1       5.704  -2.437   7.394  0.00  0.00    +0.169 HD
BRANCH   3  16
ATOM     15  C   UNL     1       6.337   1.228   1.626  0.00  0.00    +0.009 C 
ATOM     16  C   UNL     1       6.033  -0.272   1.589  0.00  0.00    +0.032 C 
ENDBRANCH   3  16
ENDBRANCH   2  10
ENDBRANCH   1   2
BRANCH   1  17
ATOM     17  C   UNL     1      -0.512  -3.162   7.872  0.00  0.00    +0.120 C 
BRANCH  17  18
ATOM     18  C   UNL     1      -0.795  -4.624   8.105  0.00  0.00    -0.030 A 
ATOM     19  C   UNL     1      -1.874  -5.225   7.483  0.00  0.00    +0.009 A 
ATOM     20  C   UNL     1      -2.137  -6.566   7.693  0.00  0.00    +0.050 A 
ATOM     21  C   UNL     1      -1.320  -7.311   8.527  0.00  0.00    +0.166 A 
ATOM     22  C   UNL     1      -0.233  -6.705   9.153  0.00  0.00    +0.167 A 
ATOM     23  C   UNL     1       0.028  -5.363   8.934  0.00  0.00    +0.054 A 
ATOM     24  O   UNL     1       0.409  -7.640   9.913  0.00  0.00    -0.453 OA
ATOM     25  C   UNL     1      -0.531  -8.720  10.069  0.00  0.00    +0.466 C 
ATOM     26  O   UNL     1      -1.359  -8.624   8.895  0.00  0.00    -0.453 OA
ENDBRANCH  17  18
ENDBRANCH   1  17
BRANCH   1  27
ATOM     27  C   UNL     1       0.387  -3.366   5.633  0.00  0.00    +0.127 C 
BRANCH  27  28
ATOM     28  C   UNL     1       0.525  -4.854   5.442  0.00  0.00    +0.169 A 
ATOM     29  N   UNL     1       0.250  -5.785   6.323  0.00  0.00    -0.112 NA
ATOM     30  N   UNL     1       0.497  -6.929   5.783  0.00  0.00    -0.023 NA
ATOM     31  N   UNL     1       0.922  -6.752   4.581  0.00  0.00    -0.043 NA
ATOM     32  N   UNL     1       0.948  -5.486   4.331  0.00  0.00    -0.222 N 
BRANCH  32  33
ATOM     33  C   UNL     1       1.363  -4.855   3.076  0.00  0.00    +0.061 C 
ATOM     34  C   UNL     1       0.246  -3.939   2.571  0.00  0.00    +0.036 C 
ATOM     35  C   UNL     1       2.630  -4.030   3.315  0.00  0.00    +0.036 C 
BRANCH  33  36
ATOM     36  C   UNL     1       1.648  -5.936   2.031  0.00  0.00    +0.026 C 
ATOM     37  C   UNL     1       2.081  -5.277   0.721  0.00  0.00    +0.006 C 
ENDBRANCH  33  36
ENDBRANCH  32  33
ENDBRANCH  27  28
BRANCH  27  38
ATOM     38  C   UNL     1      -1.044  -2.939   5.296  0.00  0.00    +0.023 C 
ATOM     39  C   UNL     1      -1.146  -1.413   5.348  0.00  0.00    +0.006 C 
ENDBRANCH  27  38
ENDBRANCH   1  27
TORSDOF 10
