REMARK  Name = ZINC39665028
REMARK  8 active torsions:
REMARK  status: ('A' for Active; 'I' for Inactive)
REMARK    1  A    between atoms: C_1  and  C_2
REMARK    2  A    between atoms: C_2  and  C_4
REMARK    3  A    between atoms: C_2  and  O_33
REMARK    4  A    between atoms: C_4  and  N_5
REMARK    5  A    between atoms: C_6  and  C_8
REMARK    6  A    between atoms: C_19  and  C_21
REMARK    7  A    between atoms: C_27  and  C_29
REMARK    8  A    between atoms: O_33  and  C_34
REMARK                            x       y       z     vdW  Elec       q    Type
REMARK                         _______ _______ _______ _____ _____    ______ ____
ROOT
ATOM      1  C   UNL     1      -1.834  -3.726   0.532  0.00  0.00    +0.100 C 
ATOM      2  C   UNL     1      -1.135  -3.966   1.890  0.00  0.00    +0.121 C 
ATOM      3  N   UNL     1      -2.239  -4.273   2.830  0.00  0.00    -0.299 N 
ATOM      4  C   UNL     1      -3.170  -5.115   2.042  0.00  0.00    +0.115 C 
ATOM      5  C   UNL     1      -3.167  -4.485   0.635  0.00  0.00    -0.004 C 
ATOM      6  C   UNL     1      -4.338  -3.518   0.489  0.00  0.00    -0.010 C 
ATOM      7  C   UNL     1      -5.652  -4.303   0.538  0.00  0.00    -0.082 C 
ATOM      8  N   UNL     1      -5.672  -5.294  -0.544  0.00  0.00    +0.379 N 
ATOM      9  C   UNL     1      -4.599  -6.275  -0.345  0.00  0.00    -0.082 C 
ATOM     10  C   UNL     1      -3.240  -5.574  -0.431  0.00  0.00    -0.010 C 
ATOM     11  C   UNL     1      -2.366  -3.876   4.111  0.00  0.00    +0.236 C 
ATOM     12  O   UNL     1      -3.337  -4.213   4.757  0.00  0.00    -0.274 OA
ATOM     13  H   UNL     1      -6.563  -5.768  -0.548  0.00  0.00    -0.086 HD
ATOM     14  H   UNL     1      -5.539  -4.827  -1.429  0.00  0.00    -0.086 HD
ENDROOT
BRANCH  11  15
ATOM     15  C   UNL     1      -1.304  -3.013   4.742  0.00  0.00    +0.162 C 
ATOM     16  C   UNL     1      -0.113  -3.888   5.186  0.00  0.00    +0.033 C 
ATOM     17  C   UNL     1       0.312  -3.241   6.531  0.00  0.00    +0.021 C 
ATOM     18  C   UNL     1      -1.057  -2.808   7.113  0.00  0.00    +0.109 C 
ATOM     19  N   UNL     1      -1.841  -2.358   5.945  0.00  0.00    -0.283 N 
ATOM     20  C   UNL     1      -2.874  -1.494   5.973  0.00  0.00    +0.320 C 
ATOM     21  O   UNL     1      -3.445  -1.197   4.945  0.00  0.00    -0.266 OA
BRANCH  20  22
ATOM     22  C   UNL     1      -3.320  -0.896   7.283  0.00  0.00    +0.470 C 
ATOM     23  F   UNL     1      -4.401  -0.036   7.059  0.00  0.00    -0.162 F 
ATOM     24  F   UNL     1      -3.711  -1.919   8.153  0.00  0.00    -0.162 F 
ATOM     25  F   UNL     1      -2.263  -0.178   7.852  0.00  0.00    -0.162 F 
ENDBRANCH  20  22
ENDBRANCH  11  15
BRANCH   1  27
ATOM     26  N   UNL     1      -2.135  -1.752  -0.927  0.00  0.00    -0.312 N 
ATOM     27  C   UNL     1      -2.082  -2.255   0.323  0.00  0.00    +0.218 C 
ATOM     28  O   UNL     1      -2.234  -1.523   1.278  0.00  0.00    -0.275 OA
ATOM     29  H   UNL     1      -2.013  -2.337  -1.691  0.00  0.00    +0.149 HD
BRANCH  26  30
ATOM     30  C   UNL     1      -2.376  -0.321  -1.131  0.00  0.00    +0.148 C 
BRANCH  30  32
ATOM     31  C   UNL     1      -2.640   1.479  -2.842  0.00  0.00    +0.053 C 
ATOM     32  C   UNL     1      -2.388  -0.015  -2.630  0.00  0.00    +0.187 C 
BRANCH  32  33
ATOM     33  O   UNL     1      -1.127  -0.371  -3.199  0.00  0.00    -0.488 OA
BRANCH  33  34
ATOM     34  C   UNL     1      -1.110  -0.668  -4.525  0.00  0.00    +0.121 A 
ATOM     35  C   UNL     1       0.055  -1.131  -5.119  0.00  0.00    +0.045 A 
ATOM     36  C   UNL     1       0.069  -1.433  -6.467  0.00  0.00    +0.004 A 
ATOM     37  C   UNL     1      -1.077  -1.273  -7.224  0.00  0.00    +0.000 A 
ATOM     38  C   UNL     1      -2.239  -0.810  -6.635  0.00  0.00    +0.004 A 
ATOM     39  C   UNL     1      -2.260  -0.513  -5.286  0.00  0.00    +0.045 A 
ENDBRANCH  33  34
ENDBRANCH  32  33
ENDBRANCH  30  32
ENDBRANCH  26  30
ENDBRANCH   1  27
TORSDOF 7
