REMARK  Name = ZINC13164931
REMARK  10 active torsions:
REMARK  status: ('A' for Active; 'I' for Inactive)
REMARK    1  A    between atoms: C_1  and  C_2
REMARK    2  A    between atoms: C_7  and  C_9
REMARK    3  A    between atoms: C_7  and  C_29
REMARK    4  A    between atoms: C_7  and  N_62
REMARK    5  A    between atoms: C_9  and  N_10
REMARK    6  A    between atoms: C_11  and  C_13
REMARK    7  A    between atoms: C_16  and  S_19
REMARK    8  A    between atoms: S_19  and  N_22
REMARK    9  A    between atoms: N_22  and  C_23
REMARK   10  A    between atoms: C_23  and  C_24
REMARK                            x       y       z     vdW  Elec       q    Type
REMARK                         _______ _______ _______ _____ _____    ______ ____
ROOT
ATOM      1  N   UNL     1      -1.050   4.048  -0.113  0.00  0.00    -0.313 N 
ATOM      2  C   UNL     1      -0.994   5.377  -0.328  0.00  0.00    +0.244 C 
ATOM      3  O   UNL     1      -0.586   6.117   0.546  0.00  0.00    -0.270 OA
ATOM      4  H   UNL     1      -1.376   3.457  -0.809  0.00  0.00    +0.149 HD
ENDROOT
BRANCH   2   5
ATOM      5  C   UNL     1      -1.430   5.935  -1.626  0.00  0.00    +0.037 A 
ATOM      6  C   UNL     1      -1.894   5.087  -2.633  0.00  0.00    +0.015 A 
ATOM      7  C   UNL     1      -2.303   5.615  -3.840  0.00  0.00    +0.029 A 
ATOM      8  C   UNL     1      -2.244   6.980  -4.057  0.00  0.00    +0.105 A 
ATOM      9  C   UNL     1      -1.781   7.825  -3.065  0.00  0.00    +0.029 A 
ATOM     10  C   UNL     1      -1.373   7.311  -1.851  0.00  0.00    +0.015 A 
BRANCH   8  11
ATOM     11  S   UNL     1      -2.763   7.645  -5.605  0.00  0.00    +0.059 S 
ATOM     12  O   UNL     1      -3.666   6.704  -6.169  0.00  0.00    -0.153 OA
ATOM     13  O   UNL     1      -3.124   8.998  -5.365  0.00  0.00    -0.153 OA
BRANCH  11  14
ATOM     14  N   UNL     1      -1.434   7.678  -6.593  0.00  0.00    -0.183 NA
ATOM     15  H   UNL     1      -1.077   8.527  -6.897  0.00  0.00    +0.148 HD
BRANCH  14  16
ATOM     16  C   UNL     1      -0.798   6.425  -7.008  0.00  0.00    +0.180 C 
BRANCH  16  17
ATOM     17  C   UNL     1       0.128   6.691  -8.166  0.00  0.00    +0.120 A 
ATOM     18  C   UNL     1       1.430   7.015  -8.074  0.00  0.00    +0.046 A 
ATOM     19  C   UNL     1       1.907   7.173  -9.396  0.00  0.00    +0.041 A 
ATOM     20  C   UNL     1       0.868   6.937 -10.216  0.00  0.00    +0.195 A 
ATOM     21  O   UNL     1      -0.206   6.640  -9.466  0.00  0.00    -0.466 OA
ENDBRANCH  16  17
ENDBRANCH  14  16
ENDBRANCH  11  14
ENDBRANCH   8  11
ENDBRANCH   2   5
BRANCH   1  22
ATOM     22  C   UNL     1      -0.619   3.495   1.174  0.00  0.00    +0.094 C 
BRANCH  22  23
ATOM     23  C   UNL     1      -0.783   1.974   1.156  0.00  0.00    -0.013 C 
BRANCH  23  30
ATOM     24  C   UNL     1       2.645  -0.537  -2.667  0.00  0.00    +0.007 C 
ATOM     25  C   UNL     1       2.031  -0.038  -1.357  0.00  0.00    -0.018 C 
ATOM     26  C   UNL     1       0.614  -0.600  -1.211  0.00  0.00    -0.015 C 
ATOM     27  C   UNL     1      -0.018  -0.050   0.070  0.00  0.00    -0.078 C 
ATOM     28  C   UNL     1       1.294   1.982  -0.087  0.00  0.00    -0.078 C 
ATOM     29  C   UNL     1       1.965   1.492  -1.373  0.00  0.00    -0.015 C 
ATOM     30  N   UNL     1      -0.074   1.425  -0.018  0.00  0.00    +0.386 N 
ATOM     31  H   UNL     1      -0.584   1.688  -0.869  0.00  0.00    -0.081 HD
ENDBRANCH  23  30
BRANCH  23  32
ATOM     32  C   UNL     1      -0.226   1.394   2.430  0.00  0.00    -0.022 A 
ATOM     33  C   UNL     1      -0.888   0.865   3.488  0.00  0.00    +0.009 A 
ATOM     34  C   UNL     1      -0.161   0.386   4.562  0.00  0.00    +0.008 A 
ATOM     35  C   UNL     1       1.192   0.459   4.525  0.00  0.00    +0.045 A 
ATOM     36  S   UNL     1       1.478   1.217   2.934  0.00  0.00    -0.103 S 
ENDBRANCH  23  32
ENDBRANCH  22  23
ENDBRANCH   1  22
TORSDOF 9
