REMARK  Name = ZINC20478362
REMARK  6 active torsions:
REMARK  status: ('A' for Active; 'I' for Inactive)
REMARK    1  A    between atoms: C_3  and  S_21
REMARK    2  A    between atoms: C_6  and  N_7
REMARK    3  A    between atoms: C_8  and  C_10
REMARK    4  A    between atoms: C_16  and  C_18
REMARK    5  A    between atoms: S_21  and  N_24
REMARK    6  A    between atoms: N_24  and  C_25
REMARK                            x       y       z     vdW  Elec       q    Type
REMARK                         _______ _______ _______ _____ _____    ______ ____
ROOT
ATOM      1  C   UNL     1      -5.811   4.298  -0.574  0.00  0.00    +0.025 A 
ATOM      2  C   UNL     1      -5.293   3.065  -0.227  0.00  0.00    +0.030 A 
ATOM      3  C   UNL     1      -4.262   2.981   0.690  0.00  0.00    +0.109 A 
ATOM      4  C   UNL     1      -3.749   4.128   1.266  0.00  0.00    +0.030 A 
ATOM      5  C   UNL     1      -4.259   5.364   0.919  0.00  0.00    +0.025 A 
ATOM      6  C   UNL     1      -5.295   5.453  -0.001  0.00  0.00    +0.034 A 
ENDROOT
BRANCH   6   7
ATOM      7  N   UNL     1      -5.817   6.703  -0.351  0.00  0.00    -0.285 N 
ATOM      8  C   UNL     1      -7.125   6.827  -0.652  0.00  0.00    +0.221 C 
ATOM      9  O   UNL     1      -7.867   5.875  -0.533  0.00  0.00    -0.275 OA
ATOM     10  H   UNL     1      -5.160   7.585  -0.381  0.00  0.00    +0.155 HD
BRANCH   8  11
ATOM     11  C   UNL     1      -7.665   8.147  -1.137  0.00  0.00    +0.089 C 
ATOM     12  C   UNL     1      -7.429   9.217  -0.069  0.00  0.00    +0.013 C 
ATOM     13  C   UNL     1      -8.145   8.816   1.223  0.00  0.00    +0.001 C 
ATOM     14  C   UNL     1      -9.645   8.686   0.954  0.00  0.00    +0.001 C 
ATOM     15  C   UNL     1      -9.882   7.616  -0.113  0.00  0.00    +0.015 C 
ATOM     16  C   UNL     1      -9.166   8.017  -1.405  0.00  0.00    +0.114 C 
BRANCH  16  17
ATOM     17  C   UNL     1      -9.399   6.963  -2.456  0.00  0.00    +0.360 C 
ATOM     18  O   UNL     1      -8.461   6.377  -2.942  0.00  0.00    -0.246 OA
ATOM     19  O   UNL     1     -10.648   6.677  -2.854  0.00  0.00    -0.246 OA
ENDBRANCH  16  17
ENDBRANCH   8  11
ENDBRANCH   6   7
BRANCH   3  20
ATOM     20  S   UNL     1      -3.604   1.407   1.130  0.00  0.00    +0.072 S 
ATOM     21  O   UNL     1      -4.583   0.442   0.770  0.00  0.00    -0.150 OA
ATOM     22  O   UNL     1      -3.107   1.530   2.455  0.00  0.00    -0.150 OA
BRANCH  20  23
ATOM     23  N   UNL     1      -2.292   1.134   0.156  0.00  0.00    -0.216 N 
ATOM     24  H   UNL     1      -2.313   0.316  -0.579  0.00  0.00    +0.174 HD
BRANCH  23  25
ATOM     25  C   UNL     1      -1.159   1.944   0.268  0.00  0.00    +0.050 A 
ATOM     26  C   UNL     1      -0.289   1.778   1.339  0.00  0.00    +0.026 A 
ATOM     27  C   UNL     1       0.828   2.582   1.451  0.00  0.00    +0.023 A 
ATOM     28  C   UNL     1       1.085   3.550   0.496  0.00  0.00    +0.059 A 
ATOM     29  C   UNL     1       0.222   3.714  -0.576  0.00  0.00    +0.061 A 
ATOM     30  C   UNL     1      -0.897   2.911  -0.693  0.00  0.00    +0.046 A 
ATOM     31 CL   UNL     1       0.547   4.929  -1.772  0.00  0.00    -0.082 Cl
ATOM     32 CL   UNL     1       2.490   4.559   0.640  0.00  0.00    -0.082 Cl
ENDBRANCH  23  25
ENDBRANCH  20  23
ENDBRANCH   3  20
TORSDOF 6
