REMARK  Name = ZINC39453878
REMARK  4 active torsions:
REMARK  status: ('A' for Active; 'I' for Inactive)
REMARK    1  A    between atoms: C_1  and  S_2
REMARK    2  A    between atoms: S_2  and  C_3
REMARK    3  A    between atoms: N_15  and  S_18
REMARK    4  A    between atoms: S_18  and  C_19
REMARK                            x       y       z     vdW  Elec       q    Type
REMARK                         _______ _______ _______ _____ _____    ______ ____
ROOT
ATOM      1  C   UNL     1       0.848  -0.411  -1.489  0.00  0.00    +0.017 A 
ATOM      2  C   UNL     1       1.316   0.587  -2.323  0.00  0.00    +0.015 A 
ATOM      3  C   UNL     1       1.985   0.285  -3.502  0.00  0.00    +0.003 A 
ATOM      4  C   UNL     1       2.213  -1.000  -3.893  0.00  0.00    +0.028 A 
ATOM      5  C   UNL     1       1.767  -2.066  -3.093  0.00  0.00    +0.073 A 
ATOM      6  C   UNL     1       1.063  -1.761  -1.845  0.00  0.00    +0.015 A 
ATOM      7  C   UNL     1       0.619  -2.816  -1.040  0.00  0.00    +0.026 A 
ATOM      8  C   UNL     1       0.877  -4.112  -1.471  0.00  0.00    +0.068 A 
ATOM      9  C   UNL     1       1.571  -4.337  -2.688  0.00  0.00    +0.100 A 
ATOM     10  N   UNL     1       1.976  -3.334  -3.447  0.00  0.00    -0.245 NA
ATOM     11  C   UNL     1       1.822  -5.731  -3.092  0.00  0.00    +0.083 A 
ATOM     12  C   UNL     1       1.380  -6.768  -2.296  0.00  0.00    +0.122 A 
ATOM     13  N   UNL     1       0.702  -6.519  -1.107  0.00  0.00    -0.245 N 
ATOM     14  C   UNL     1       0.441  -5.271  -0.678  0.00  0.00    +0.271 A 
ATOM     15  O   UNL     1      -0.157  -5.102   0.368  0.00  0.00    -0.266 OA
ATOM     16  C   UNL     1       1.614  -8.106  -2.689  0.00  0.00    +0.185 C 
ATOM     17  O   UNL     1       1.267  -9.016  -1.962  0.00  0.00    -0.290 OA
ATOM     18  C   UNL     1       2.288  -8.414  -4.000  0.00  0.00    +0.119 C 
ATOM     19  C   UNL     1       3.243  -7.271  -4.362  0.00  0.00    +0.171 C 
ATOM     20  N   UNL     1       2.501  -6.004  -4.264  0.00  0.00    -0.324 N 
ATOM     21 CL   UNL     1       4.632  -7.253  -3.213  0.00  0.00    -0.101 Cl
ATOM     22  H   UNL     1       2.490  -5.376  -5.004  0.00  0.00    +0.148 HD
ENDROOT
BRANCH   1  24
ATOM     23  C   UNL     1      -0.022   1.810   0.012  0.00  0.00    +0.090 C 
ATOM     24  S   UNL     1       0.002  -0.004   0.002  0.00  0.00    -0.128 S 
ENDBRANCH   1  24
BRANCH  13  25
ATOM     25  S   UNL     1       0.198  -7.801  -0.190  0.00  0.00    -0.044 S 
ATOM     26  C   UNL     1       1.595  -8.121   0.923  0.00  0.00    +0.110 C 
ENDBRANCH  13  25
TORSDOF 2
