REMARK  Name = ZINC16286145
REMARK  6 active torsions:
REMARK  status: ('A' for Active; 'I' for Inactive)
REMARK    1  A    between atoms: C_10  and  C_11
REMARK    2  A    between atoms: C_10  and  N_54
REMARK    3  A    between atoms: N_13  and  C_14
REMARK    4  A    between atoms: C_17  and  N_30
REMARK    5  A    between atoms: C_19  and  C_20
REMARK    6  A    between atoms: N_22  and  C_23
REMARK                            x       y       z     vdW  Elec       q    Type
REMARK                         _______ _______ _______ _____ _____    ______ ____
ROOT
ATOM      1  C   UNL     1      -2.858   7.025  -2.839  0.00  0.00    +0.046 A 
ATOM      2  C   UNL     1      -2.846   7.574  -1.564  0.00  0.00    +0.026 A 
ATOM      3  C   UNL     1      -3.202   8.895  -1.376  0.00  0.00    +0.034 A 
ATOM      4  C   UNL     1      -3.585   9.678  -2.453  0.00  0.00    +0.127 A 
ATOM      5  C   UNL     1      -3.608   9.148  -3.725  0.00  0.00    +0.047 A 
ATOM      6  C   UNL     1      -3.245   7.815  -3.932  0.00  0.00    +0.060 A 
ENDROOT
BRANCH   1   9
ATOM      7  C   UNL     1      -1.512   5.150  -2.286  0.00  0.00    +0.201 C 
ATOM      8  O   UNL     1      -1.003   5.792  -1.392  0.00  0.00    -0.278 OA
ATOM      9  N   UNL     1      -2.494   5.695  -3.031  0.00  0.00    -0.286 N 
ATOM     10  H   UNL     1      -2.947   5.160  -3.702  0.00  0.00    +0.155 HD
BRANCH   7  11
ATOM     11  C   UNL     1      -1.047   3.744  -2.563  0.00  0.00    +0.019 C 
BRANCH  11  21
ATOM     12  C   UNL     1       3.400   0.803   1.024  0.00  0.00    +0.000 A 
ATOM     13  C   UNL     1       2.552  -0.152   0.493  0.00  0.00    +0.000 A 
ATOM     14  C   UNL     1       1.544   0.228  -0.363  0.00  0.00    +0.002 A 
ATOM     15  C   UNL     1       1.374   1.563  -0.702  0.00  0.00    -0.061 A 
ATOM     16  C   UNL     1       2.216   2.515  -0.173  0.00  0.00    -0.048 A 
ATOM     17  C   UNL     1       3.231   2.132   0.692  0.00  0.00    +0.004 A 
ATOM     18  C   UNL     1       2.068   3.977  -0.504  0.00  0.00    +0.017 C 
ATOM     19  C   UNL     1       1.203   4.142  -1.754  0.00  0.00    -0.073 C 
ATOM     20  C   UNL     1       0.261   1.925  -1.650  0.00  0.00    -0.042 C 
ATOM     21  N   UNL     1      -0.037   3.364  -1.550  0.00  0.00    +0.388 N 
ATOM     22  H   UNL     1      -0.410   3.565  -0.615  0.00  0.00    -0.081 HD
ENDBRANCH  11  21
ENDBRANCH   7  11
ENDBRANCH   1   9
BRANCH   6  23
ATOM     23  C   UNL     1      -3.268   7.242  -5.290  0.00  0.00    +0.250 C 
ATOM     24  O   UNL     1      -3.038   6.059  -5.455  0.00  0.00    -0.270 OA
ATOM     25  N   UNL     1      -3.543   8.029  -6.349  0.00  0.00    -0.279 N 
ATOM     26  H   UNL     1      -3.661   8.984  -6.226  0.00  0.00    +0.155 HD
BRANCH  25  27
ATOM     27  C   UNL     1      -3.658   7.469  -7.627  0.00  0.00    +0.069 A 
ATOM     28  C   UNL     1      -4.158   6.183  -7.780  0.00  0.00    +0.026 A 
ATOM     29  C   UNL     1      -4.274   5.634  -9.043  0.00  0.00    +0.002 A 
ATOM     30  C   UNL     1      -3.884   6.359 -10.153  0.00  0.00    +0.003 A 
ATOM     31  C   UNL     1      -3.380   7.638 -10.005  0.00  0.00    +0.040 A 
ATOM     32  C   UNL     1      -3.265   8.196  -8.745  0.00  0.00    +0.144 A 
ATOM     33  F   UNL     1      -2.772   9.446  -8.600  0.00  0.00    -0.204 F 
ENDBRANCH  25  27
ENDBRANCH   6  23
BRANCH   4  34
ATOM     34  N   UNL     1      -3.970  11.091  -2.237  0.00  0.00    +0.056 N 
ATOM     35  O   UNL     1      -4.308  11.781  -3.181  0.00  0.00    -0.126 OA
ATOM     36  O   UNL     1      -3.951  11.562  -1.114  0.00  0.00    -0.126 OA
ENDBRANCH   4  34
TORSDOF 6
