REMARK  Name = ZINC13661935
REMARK  9 active torsions:
REMARK  status: ('A' for Active; 'I' for Inactive)
REMARK    1  A    between atoms: C_1  and  C_2
REMARK    2  A    between atoms: C_2  and  C_3
REMARK    3  A    between atoms: C_3  and  C_5
REMARK    4  A    between atoms: C_3  and  C_6
REMARK    5  A    between atoms: C_9  and  N_12
REMARK    6  A    between atoms: C_16  and  C_17
REMARK    7  A    between atoms: N_21  and  C_22
REMARK    8  A    between atoms: C_22  and  C_23
REMARK    9  A    between atoms: C_28  and  C_29
REMARK                            x       y       z     vdW  Elec       q    Type
REMARK                         _______ _______ _______ _____ _____    ______ ____
ROOT
ATOM      1  N   UNL     1       0.973  -4.725   0.600  0.00  0.00    -0.190 N 
ATOM      2  C   UNL     1       1.200  -5.259  -0.618  0.00  0.00    +0.264 C 
ATOM      3  O   UNL     1       1.960  -4.724  -1.403  0.00  0.00    -0.269 OA
ATOM      4  C   UNL     1       0.503  -6.508  -0.971  0.00  0.00    +0.102 C 
ATOM      5  C   UNL     1       0.688  -7.117  -2.207  0.00  0.00    +0.044 C 
ATOM      6  C   UNL     1      -0.398  -7.084   0.042  0.00  0.00    +0.257 C 
ATOM      7  O   UNL     1      -1.008  -8.114  -0.177  0.00  0.00    -0.270 OA
ATOM      8  N   UNL     1      -0.529  -6.439   1.220  0.00  0.00    -0.235 N 
ATOM      9  C   UNL     1       0.142  -5.307   1.476  0.00  0.00    +0.320 C 
ATOM     10  O   UNL     1      -0.016  -4.777   2.559  0.00  0.00    -0.251 OA
ATOM     11  H   UNL     1      -1.118  -6.805   1.897  0.00  0.00    +0.159 HD
ENDROOT
BRANCH   1  15
ATOM     12  C   UNL     1       2.911  -1.193   1.667  0.00  0.00    -0.044 A 
ATOM     13  C   UNL     1       3.640  -2.355   1.495  0.00  0.00    +0.006 A 
ATOM     14  C   UNL     1       3.000  -3.528   1.147  0.00  0.00    +0.024 A 
ATOM     15  C   UNL     1       1.624  -3.538   0.959  0.00  0.00    +0.046 A 
ATOM     16  C   UNL     1       0.896  -2.368   1.127  0.00  0.00    +0.024 A 
ATOM     17  C   UNL     1       1.541  -1.199   1.480  0.00  0.00    +0.006 A 
BRANCH  12  18
ATOM     18  C   UNL     1       3.612   0.085   2.051  0.00  0.00    +0.016 C 
ATOM     19  C   UNL     1       4.317  -0.105   3.396  0.00  0.00    +0.012 C 
BRANCH  18  21
ATOM     20  C   UNL     1       5.267   1.802   1.306  0.00  0.00    +0.004 C 
ATOM     21  C   UNL     1       4.644   0.443   0.980  0.00  0.00    +0.004 C 
ENDBRANCH  18  21
ENDBRANCH  12  18
ENDBRANCH   1  15
BRANCH   5  22
ATOM     22  C   UNL     1       1.435  -6.468  -3.205  0.00  0.00    +0.043 A 
ATOM     23  C   UNL     1       2.522  -6.995  -3.894  0.00  0.00    +0.027 A 
ATOM     24  C   UNL     1       2.951  -6.013  -4.785  0.00  0.00    +0.020 A 
ATOM     25  C   UNL     1       2.145  -4.929  -4.634  0.00  0.00    +0.086 A 
ATOM     26  N   UNL     1       1.222  -5.193  -3.687  0.00  0.00    -0.343 N 
BRANCH  26  27
ATOM     27  C   UNL     1       0.170  -4.276  -3.241  0.00  0.00    +0.157 C 
BRANCH  27  28
ATOM     28  C   UNL     1      -0.754  -3.973  -4.393  0.00  0.00    -0.025 A 
ATOM     29  C   UNL     1      -0.545  -2.849  -5.170  0.00  0.00    +0.005 A 
ATOM     30  C   UNL     1      -1.391  -2.572  -6.226  0.00  0.00    +0.000 A 
ATOM     31  C   UNL     1      -2.448  -3.419  -6.507  0.00  0.00    +0.000 A 
ATOM     32  C   UNL     1      -2.657  -4.543  -5.730  0.00  0.00    +0.004 A 
ATOM     33  C   UNL     1      -1.806  -4.823  -4.676  0.00  0.00    -0.046 A 
ATOM     34  C   UNL     1      -2.031  -6.052  -3.834  0.00  0.00    +0.044 C 
ENDBRANCH  27  28
ENDBRANCH  26  27
ENDBRANCH   5  22
TORSDOF 6
