REMARK  Name = ZINC67471033
REMARK  5 active torsions:
REMARK  status: ('A' for Active; 'I' for Inactive)
REMARK    1  A    between atoms: C_1  and  C_2
REMARK    2  A    between atoms: C_2  and  C_3
REMARK    3  A    between atoms: C_2  and  C_4
REMARK    4  A    between atoms: C_2  and  N_11
REMARK    5  A    between atoms: C_20  and  C_22
REMARK                            x       y       z     vdW  Elec       q    Type
REMARK                         _______ _______ _______ _____ _____    ______ ____
ROOT
ATOM      1  N   UNL     1       2.496   0.286   0.200  0.00  0.00    -0.290 N 
ATOM      2  C   UNL     1       1.961  -0.435  -0.805  0.00  0.00    +0.303 C 
ATOM      3  O   UNL     1       0.778  -0.714  -0.790  0.00  0.00    -0.253 OA
ATOM      4  N   UNL     1       2.738  -0.848  -1.826  0.00  0.00    -0.283 N 
ATOM      5  C   UNL     1       2.192  -1.718  -2.877  0.00  0.00    +0.128 C 
ATOM      6  C   UNL     1       2.429  -1.050  -4.237  0.00  0.00    +0.127 C 
ATOM      7  N   UNL     1       3.837  -0.638  -4.320  0.00  0.00    -0.295 N 
ATOM      8  C   UNL     1       4.383   0.232  -3.269  0.00  0.00    +0.127 C 
ATOM      9  C   UNL     1       4.145  -0.431  -1.911  0.00  0.00    +0.128 C 
ATOM     10  C   UNL     1       4.614  -1.050  -5.341  0.00  0.00    +0.247 C 
ATOM     11  O   UNL     1       5.801  -0.786  -5.347  0.00  0.00    -0.270 OA
ATOM     12  H   UNL     1       3.423   0.568   0.155  0.00  0.00    +0.151 HD
ENDROOT
BRANCH  10  13
ATOM     13  C   UNL     1       4.026  -1.820  -6.449  0.00  0.00    +0.044 A 
ATOM     14  C   UNL     1       4.711  -2.948  -7.032  0.00  0.00    +0.020 A 
ATOM     15  C   UNL     1       4.065  -3.569  -8.039  0.00  0.00    +0.046 A 
ATOM     16  S   UNL     1       2.557  -2.635  -8.188  0.00  0.00    -0.104 S 
ATOM     17  C   UNL     1       2.793  -1.502  -6.973  0.00  0.00    +0.058 A 
ENDBRANCH  10  13
BRANCH   1  19
ATOM     18  C   UNL     1       1.112  -0.626   1.998  0.00  0.00    +0.036 C 
ATOM     19  C   UNL     1       1.677   0.645   1.361  0.00  0.00    +0.056 C 
ATOM     20  C   UNL     1       0.525   1.546   0.913  0.00  0.00    +0.036 C 
BRANCH  19  21
ATOM     21  C   UNL     1       2.526   1.377   2.368  0.00  0.00    -0.025 A 
ATOM     22  C   UNL     1       1.957   2.338   3.182  0.00  0.00    +0.007 A 
ATOM     23  C   UNL     1       2.735   3.010   4.106  0.00  0.00    +0.020 A 
ATOM     24  C   UNL     1       4.084   2.721   4.215  0.00  0.00    +0.041 A 
ATOM     25  C   UNL     1       4.652   1.759   3.400  0.00  0.00    +0.020 A 
ATOM     26  C   UNL     1       3.872   1.083   2.480  0.00  0.00    +0.007 A 
ATOM     27 CL   UNL     1       5.062   3.565   5.375  0.00  0.00    -0.084 Cl
ENDBRANCH  19  21
ENDBRANCH   1  19
TORSDOF 3
