REMARK  Name = ZINC02957647
REMARK  8 active torsions:
REMARK  status: ('A' for Active; 'I' for Inactive)
REMARK    1  A    between atoms: C_1  and  C_2
REMARK    2  A    between atoms: C_4  and  C_26
REMARK    3  A    between atoms: C_6  and  N_8
REMARK    4  A    between atoms: C_9  and  N_25
REMARK    5  A    between atoms: C_10  and  C_13
REMARK    6  A    between atoms: N_15  and  C_16
REMARK    7  A    between atoms: C_16  and  C_17
REMARK    8  A    between atoms: C_17  and  C_18
REMARK                            x       y       z     vdW  Elec       q    Type
REMARK                         _______ _______ _______ _____ _____    ______ ____
ROOT
ATOM      1  N   UNL     1       4.584   0.495  -0.040  0.00  0.00    -0.198 N 
ATOM      2  C   UNL     1       3.689   1.522  -0.031  0.00  0.00    +0.152 A 
ATOM      3  C   UNL     1       2.428   0.939  -0.016  0.00  0.00    +0.188 A 
ATOM      4  N   UNL     1       2.586  -0.398  -0.025  0.00  0.00    -0.122 NA
ATOM      5  N   UNL     1       3.838  -0.691  -0.039  0.00  0.00    -0.058 NA
ENDROOT
BRANCH   1  11
ATOM      6  C   UNL     1       8.631   2.877  -1.505  0.00  0.00    +0.044 C 
ATOM      7  C   UNL     1       7.969   1.749  -0.756  0.00  0.00    -0.048 A 
ATOM      8  C   UNL     1       8.740   0.820  -0.082  0.00  0.00    +0.006 A 
ATOM      9  C   UNL     1       8.136  -0.216   0.606  0.00  0.00    -0.048 A 
ATOM     10  C   UNL     1       6.759  -0.326   0.622  0.00  0.00    +0.031 A 
ATOM     11  C   UNL     1       5.982   0.605  -0.054  0.00  0.00    +0.070 A 
ATOM     12  C   UNL     1       6.592   1.641  -0.749  0.00  0.00    +0.031 A 
ATOM     13  C   UNL     1       8.980  -1.226   1.339  0.00  0.00    +0.044 C 
ENDBRANCH   1  11
BRANCH   3  14
ATOM     14  C   UNL     1       1.147   1.655   0.000  0.00  0.00    +0.268 C 
ATOM     15  O   UNL     1       1.130   2.872   0.007  0.00  0.00    -0.268 OA
ATOM     16  N   UNL     1      -0.011   0.966   0.007  0.00  0.00    -0.310 N 
ATOM     17  H   UNL     1       0.002  -0.004   0.002  0.00  0.00    +0.149 HD
BRANCH  16  18
ATOM     18  C   UNL     1      -1.290   1.681   0.017  0.00  0.00    +0.109 C 
BRANCH  18  19
ATOM     19  C   UNL     1      -2.439   0.671   0.017  0.00  0.00    +0.054 C 
BRANCH  19  20
ATOM     20  C   UNL     1      -3.754   1.407   0.028  0.00  0.00    -0.046 A 
ATOM     21  C   UNL     1      -4.354   1.733   1.230  0.00  0.00    +0.005 A 
ATOM     22  C   UNL     1      -5.558   2.412   1.240  0.00  0.00    +0.020 A 
ATOM     23  C   UNL     1      -6.167   2.757   0.046  0.00  0.00    +0.041 A 
ATOM     24  C   UNL     1      -5.569   2.425  -1.156  0.00  0.00    +0.020 A 
ATOM     25  C   UNL     1      -4.363   1.751  -1.165  0.00  0.00    +0.005 A 
ATOM     26 CL   UNL     1      -7.682   3.605   0.058  0.00  0.00    -0.084 Cl
ENDBRANCH  19  20
ENDBRANCH  18  19
ENDBRANCH  16  18
ENDBRANCH   3  14
BRANCH   2  27
ATOM     27  N   UNL     1       3.977   2.871  -0.032  0.00  0.00    -0.341 N 
ATOM     28  H   UNL     1       3.257   3.521  -0.022  0.00  0.00    +0.144 HD
ATOM     29  H   UNL     1       4.900   3.170  -0.043  0.00  0.00    +0.144 HD
ENDBRANCH   2  27
TORSDOF 6
