REMARK  Name = ZINC05896427
REMARK  8 active torsions:
REMARK  status: ('A' for Active; 'I' for Inactive)
REMARK    1  A    between atoms: C_1  and  C_2
REMARK    2  A    between atoms: C_5  and  S_8
REMARK    3  A    between atoms: S_8  and  N_11
REMARK    4  A    between atoms: N_11  and  N_12
REMARK    5  A    between atoms: N_12  and  C_13
REMARK    6  A    between atoms: C_13  and  N_15
REMARK    7  A    between atoms: N_15  and  C_16
REMARK    8  A    between atoms: C_21  and  C_22
REMARK                            x       y       z     vdW  Elec       q    Type
REMARK                         _______ _______ _______ _____ _____    ______ ____
ROOT
ATOM      1  N   UNL     1       2.519  -2.586  -2.182  0.00  0.00    -0.243 N 
ATOM      2  H   UNL     1       2.907  -1.704  -2.070  0.00  0.00    +0.170 HD
ENDROOT
BRANCH   1   3
ATOM      3  N   UNL     1       1.251  -2.865  -1.656  0.00  0.00    -0.109 NA
ATOM      4  H   UNL     1       0.552  -3.211  -2.233  0.00  0.00    +0.172 HD
BRANCH   3   5
ATOM      5  S   UNL     1       0.945  -2.606  -0.050  0.00  0.00    +0.074 S 
ATOM      6  O   UNL     1       1.944  -3.312   0.674  0.00  0.00    -0.152 OA
ATOM      7  O   UNL     1      -0.444  -2.840   0.142  0.00  0.00    -0.152 OA
BRANCH   5  12
ATOM      8  C   UNL     1       1.867   3.261   1.019  0.00  0.00    +0.044 C 
ATOM      9  C   UNL     1       1.636   1.796   0.752  0.00  0.00    -0.050 A 
ATOM     10  C   UNL     1       0.383   1.351   0.374  0.00  0.00    +0.005 A 
ATOM     11  C   UNL     1       0.172   0.006   0.129  0.00  0.00    +0.029 A 
ATOM     12  C   UNL     1       1.214  -0.892   0.262  0.00  0.00    +0.107 A 
ATOM     13  C   UNL     1       2.467  -0.447   0.640  0.00  0.00    +0.029 A 
ATOM     14  C   UNL     1       2.678   0.897   0.884  0.00  0.00    +0.005 A 
ENDBRANCH   5  12
ENDBRANCH   3   5
ENDBRANCH   1   3
BRANCH   1  15
ATOM     15  C   UNL     1       3.201  -3.543  -2.842  0.00  0.00    +0.150 C 
ATOM     16  S   UNL     1       4.751  -3.202  -3.484  0.00  0.00    -0.017 S 
BRANCH  15  17
ATOM     17  N   UNL     1       2.662  -4.769  -2.997  0.00  0.00    -0.296 N 
ATOM     18  H   UNL     1       1.821  -4.987  -2.566  0.00  0.00    +0.154 HD
BRANCH  17  19
ATOM     19  C   UNL     1       3.316  -5.727  -3.779  0.00  0.00    +0.036 A 
ATOM     20  C   UNL     1       3.853  -5.372  -5.010  0.00  0.00    +0.023 A 
ATOM     21  C   UNL     1       4.502  -6.319  -5.777  0.00  0.00    +0.002 A 
ATOM     22  C   UNL     1       4.609  -7.622  -5.325  0.00  0.00    +0.000 A 
ATOM     23  C   UNL     1       4.071  -7.980  -4.103  0.00  0.00    +0.005 A 
ATOM     24  C   UNL     1       3.425  -7.036  -3.328  0.00  0.00    -0.029 A 
ATOM     25  C   UNL     1       2.839  -7.427  -1.996  0.00  0.00    +0.045 C 
ENDBRANCH  17  19
ENDBRANCH  15  17
ENDBRANCH   1  15
TORSDOF 6
