REMARK  Name = ZINC12521600
REMARK  9 active torsions:
REMARK  status: ('A' for Active; 'I' for Inactive)
REMARK    1  A    between atoms: C_1  and  C_2
REMARK    2  A    between atoms: C_2  and  C_3
REMARK    3  A    between atoms: C_4  and  C_21
REMARK    4  A    between atoms: C_5  and  N_20
REMARK    5  A    between atoms: C_7  and  S_9
REMARK    6  A    between atoms: S_9  and  C_10
REMARK    7  A    between atoms: C_10  and  C_11
REMARK    8  A    between atoms: C_11  and  C_13
REMARK    9  A    between atoms: C_11  and  O_19
REMARK                            x       y       z     vdW  Elec       q    Type
REMARK                         _______ _______ _______ _____ _____    ______ ____
ROOT
ATOM      1  C   UNL     1      -3.385   1.084  -1.058  0.00  0.00    +0.055 A 
ATOM      2  C   UNL     1      -2.505   1.003   0.019  0.00  0.00    +0.043 A 
ATOM      3  C   UNL     1      -2.861   0.190   1.111  0.00  0.00    +0.129 A 
ATOM      4  N   UNL     1      -4.013  -0.469   1.072  0.00  0.00    -0.207 NA
ATOM      5  C   UNL     1      -4.817  -0.365   0.023  0.00  0.00    +0.190 A 
ATOM      6  N   UNL     1      -4.512   0.392  -1.022  0.00  0.00    -0.226 NA
ENDROOT
BRANCH   2   7
ATOM      7  C   UNL     1      -1.228   1.758   0.017  0.00  0.00    -0.013 A 
ATOM      8  C   UNL     1      -0.013   1.076   0.008  0.00  0.00    +0.010 A 
ATOM      9  C   UNL     1       1.172   1.783   0.000  0.00  0.00    +0.020 A 
ATOM     10  C   UNL     1       1.155   3.167   0.008  0.00  0.00    +0.041 A 
ATOM     11  C   UNL     1      -0.050   3.849   0.022  0.00  0.00    +0.020 A 
ATOM     12  C   UNL     1      -1.240   3.151   0.030  0.00  0.00    +0.010 A 
ATOM     13 CL   UNL     1       2.649   4.051  -0.002  0.00  0.00    -0.084 Cl
ENDBRANCH   2   7
BRANCH   3  14
ATOM     14  N   UNL     1      -2.025   0.079   2.208  0.00  0.00    -0.343 N 
ATOM     15  H   UNL     1      -1.185   0.564   2.229  0.00  0.00    +0.144 HD
ATOM     16  H   UNL     1      -2.279  -0.484   2.956  0.00  0.00    +0.144 HD
ENDBRANCH   3  14
BRANCH   1  18
ATOM     17  C   UNL     1      -2.283   1.117  -3.278  0.00  0.00    +0.010 C 
ATOM     18  C   UNL     1      -3.055   1.945  -2.250  0.00  0.00    +0.053 C 
ENDBRANCH   1  18
BRANCH   5  19
ATOM     19  S   UNL     1      -6.336  -1.258   0.018  0.00  0.00    -0.083 S 
BRANCH  19  20
ATOM     20  C   UNL     1      -6.224  -2.078   1.627  0.00  0.00    +0.113 C 
BRANCH  20  21
ATOM     21  C   UNL     1      -7.471  -2.937   1.851  0.00  0.00    +0.155 C 
BRANCH  21  22
ATOM     22  C   UNL     1      -7.377  -3.620   3.190  0.00  0.00    -0.018 A 
ATOM     23  C   UNL     1      -7.783  -2.958   4.334  0.00  0.00    +0.006 A 
ATOM     24  C   UNL     1      -7.701  -3.587   5.562  0.00  0.00    +0.000 A 
ATOM     25  C   UNL     1      -7.205  -4.874   5.648  0.00  0.00    +0.000 A 
ATOM     26  C   UNL     1      -6.793  -5.534   4.505  0.00  0.00    +0.000 A 
ATOM     27  C   UNL     1      -6.879  -4.907   3.276  0.00  0.00    +0.006 A 
ENDBRANCH  21  22
BRANCH  21  28
ATOM     28  O   UNL     1      -8.633  -2.106   1.820  0.00  0.00    -0.386 OA
ATOM     29  H   UNL     1      -8.639  -1.413   2.495  0.00  0.00    +0.210 HD
ENDBRANCH  21  28
ENDBRANCH  20  21
ENDBRANCH  19  20
ENDBRANCH   5  19
TORSDOF 8
