REMARK  Name = ZINC19296556
REMARK  8 active torsions:
REMARK  status: ('A' for Active; 'I' for Inactive)
REMARK    1  A    between atoms: C_1  and  C_2
REMARK    2  A    between atoms: C_5  and  C_8
REMARK    3  A    between atoms: C_8  and  C_10
REMARK    4  A    between atoms: C_8  and  N_15
REMARK    5  A    between atoms: C_16  and  C_18
REMARK    6  A    between atoms: C_18  and  O_19
REMARK    7  A    between atoms: O_19  and  C_20
REMARK    8  A    between atoms: C_25  and  C_26
REMARK                            x       y       z     vdW  Elec       q    Type
REMARK                         _______ _______ _______ _____ _____    ______ ____
ROOT
ATOM      1  N   UNL     1      -2.102  -2.997   0.006  0.00  0.00    -0.301 N 
ATOM      2  C   UNL     1      -1.044  -2.161   0.000  0.00  0.00    +0.251 C 
ATOM      3  O   UNL     1       0.082  -2.610  -0.013  0.00  0.00    -0.272 OA
ATOM      4  H   UNL     1      -3.124  -2.590   0.018  0.00  0.00    +0.150 HD
ENDROOT
BRANCH   1   5
ATOM      5  C   UNL     1      -1.891  -4.446  -0.004  0.00  0.00    +0.140 C 
BRANCH   5  10
ATOM      6  C   UNL     1      -6.520  -7.054  -2.276  0.00  0.00    +0.044 C 
ATOM      7  C   UNL     1      -5.313  -6.374  -1.683  0.00  0.00    -0.050 A 
ATOM      8  C   UNL     1      -4.043  -6.827  -1.991  0.00  0.00    +0.004 A 
ATOM      9  C   UNL     1      -2.936  -6.204  -1.447  0.00  0.00    +0.006 A 
ATOM     10  C   UNL     1      -3.098  -5.126  -0.596  0.00  0.00    -0.022 A 
ATOM     11  C   UNL     1      -4.367  -4.676  -0.284  0.00  0.00    +0.006 A 
ATOM     12  C   UNL     1      -5.474  -5.297  -0.832  0.00  0.00    +0.004 A 
ENDBRANCH   5  10
BRANCH   5  13
ATOM     13  C   UNL     1      -1.682  -4.933   1.407  0.00  0.00    +0.014 A 
ATOM     14  C   UNL     1      -0.817  -5.869   1.868  0.00  0.00    +0.013 A 
ATOM     15  C   UNL     1      -0.796  -6.155   3.220  0.00  0.00    +0.008 A 
ATOM     16  C   UNL     1      -1.649  -5.499   4.044  0.00  0.00    +0.045 A 
ATOM     17  S   UNL     1      -2.515  -4.432   2.904  0.00  0.00    -0.099 S 
ENDBRANCH   5  13
ENDBRANCH   1   5
BRANCH   2  18
ATOM     18  C   UNL     1      -1.262  -0.670   0.011  0.00  0.00    +0.324 C 
BRANCH  18  19
ATOM     19  O   UNL     1       0.002  -0.004   0.002  0.00  0.00    -0.482 OA
BRANCH  19  20
ATOM     20  C   UNL     1      -0.016   1.352   0.009  0.00  0.00    +0.131 A 
ATOM     21  C   UNL     1      -1.225   2.032   0.019  0.00  0.00    +0.046 A 
ATOM     22  C   UNL     1      -1.242   3.413   0.032  0.00  0.00    +0.004 A 
ATOM     23  C   UNL     1      -0.056   4.130   0.025  0.00  0.00    +0.001 A 
ATOM     24  C   UNL     1       1.154   3.474   0.010  0.00  0.00    +0.015 A 
ATOM     25  C   UNL     1       1.188   2.074   0.002  0.00  0.00    +0.056 A 
BRANCH  25  26
ATOM     26  C   UNL     1       2.474   1.366  -0.015  0.00  0.00    +0.262 C 
ATOM     27  O   UNL     1       3.512   1.994  -0.021  0.00  0.00    -0.296 OA
ENDBRANCH  25  26
ENDBRANCH  19  20
ENDBRANCH  18  19
ENDBRANCH   2  18
TORSDOF 7
