REMARK  Name = ZINC36145493
REMARK  11 active torsions:
REMARK  status: ('A' for Active; 'I' for Inactive)
REMARK    1  A    between atoms: C_1  and  C_2
REMARK    2  A    between atoms: C_5  and  C_8
REMARK    3  A    between atoms: C_8  and  N_9
REMARK    4  A    between atoms: N_9  and  C_10
REMARK    5  A    between atoms: N_9  and  C_30
REMARK    6  A    between atoms: C_10  and  C_11
REMARK    7  A    between atoms: C_14  and  C_16
REMARK    8  A    between atoms: C_16  and  C_17
REMARK    9  A    between atoms: C_16  and  C_23
REMARK   10  A    between atoms: C_16  and  O_29
REMARK   11  A    between atoms: C_30  and  C_31
REMARK                            x       y       z     vdW  Elec       q    Type
REMARK                         _______ _______ _______ _____ _____    ______ ____
ROOT
ATOM      1  C   UNL     1       3.733  -6.548   0.961  0.00  0.00    +0.089 A 
ATOM      2  C   UNL     1       4.943  -6.678   1.533  0.00  0.00    +0.043 A 
ATOM      3  C   UNL     1       5.869  -6.899   0.488  0.00  0.00    +0.048 A 
ATOM      4  C   UNL     1       5.169  -6.892  -0.661  0.00  0.00    +0.146 A 
ATOM      5  O   UNL     1       3.875  -6.684  -0.368  0.00  0.00    -0.463 OA
ENDROOT
BRANCH   1   6
ATOM      6  C   UNL     1       2.436  -6.298   1.687  0.00  0.00    -0.003 C 
BRANCH   6   7
ATOM      7  N   UNL     1       2.211  -4.851   1.804  0.00  0.00    +0.389 N 
ATOM      8  H   UNL     1       3.010  -4.422   2.247  0.00  0.00    -0.081 HD
BRANCH   7   9
ATOM      9  C   UNL     1       1.011  -4.607   2.615  0.00  0.00    -0.042 C 
BRANCH   9  14
ATOM     10  C   UNL     1       1.960  -6.350   8.042  0.00  0.00    +0.044 C 
ATOM     11  C   UNL     1       1.713  -5.895   6.627  0.00  0.00    -0.050 A 
ATOM     12  C   UNL     1       2.123  -4.638   6.223  0.00  0.00    +0.003 A 
ATOM     13  C   UNL     1       1.896  -4.221   4.925  0.00  0.00    +0.002 A 
ATOM     14  C   UNL     1       1.260  -5.061   4.030  0.00  0.00    -0.064 A 
ATOM     15  C   UNL     1       0.851  -6.319   4.434  0.00  0.00    +0.002 A 
ATOM     16  C   UNL     1       1.081  -6.737   5.731  0.00  0.00    +0.003 A 
ENDBRANCH   9  14
ENDBRANCH   7   9
BRANCH   7  17
ATOM     17  C   UNL     1       2.024  -4.275   0.466  0.00  0.00    -0.046 C 
BRANCH  17  18
ATOM     18  C   UNL     1       1.955  -2.750   0.573  0.00  0.00    +0.102 C 
ATOM     19  C   UNL     1       1.724  -2.137  -0.825  0.00  0.00    +0.032 C 
ATOM     20  C   UNL     1       2.629  -0.875  -0.785  0.00  0.00    +0.030 C 
ATOM     21  C   UNL     1       3.803  -1.383   0.089  0.00  0.00    +0.160 C 
ATOM     22  O   UNL     1       3.197  -2.241   1.071  0.00  0.00    -0.378 OA
ENDBRANCH  17  18
ENDBRANCH   7  17
ENDBRANCH   6   7
ENDBRANCH   1   6
BRANCH   4  23
ATOM     23  C   UNL     1       5.740  -7.089  -2.042  0.00  0.00    +0.174 C 
BRANCH  23  24
ATOM     24  C   UNL     1       4.703  -7.731  -2.927  0.00  0.00    -0.004 A 
ATOM     25  C   UNL     1       4.940  -8.976  -3.477  0.00  0.00    +0.007 A 
ATOM     26  C   UNL     1       3.989  -9.565  -4.289  0.00  0.00    +0.000 A 
ATOM     27  C   UNL     1       2.801  -8.909  -4.551  0.00  0.00    +0.000 A 
ATOM     28  C   UNL     1       2.563  -7.663  -3.999  0.00  0.00    +0.000 A 
ATOM     29  C   UNL     1       3.513  -7.076  -3.184  0.00  0.00    +0.007 A 
ENDBRANCH  23  24
BRANCH  23  30
ATOM     30  C   UNL     1       6.134  -5.753  -2.617  0.00  0.00    -0.004 A 
ATOM     31  C   UNL     1       5.306  -4.658  -2.454  0.00  0.00    +0.007 A 
ATOM     32  C   UNL     1       5.668  -3.433  -2.982  0.00  0.00    +0.000 A 
ATOM     33  C   UNL     1       6.858  -3.302  -3.673  0.00  0.00    +0.000 A 
ATOM     34  C   UNL     1       7.687  -4.397  -3.835  0.00  0.00    +0.000 A 
ATOM     35  C   UNL     1       7.327  -5.621  -3.303  0.00  0.00    +0.007 A 
ENDBRANCH  23  30
BRANCH  23  36
ATOM     36  O   UNL     1       6.890  -7.933  -1.966  0.00  0.00    -0.372 OA
ATOM     37  H   UNL     1       6.710  -8.812  -1.604  0.00  0.00    +0.212 HD
ENDBRANCH  23  36
ENDBRANCH   4  23
TORSDOF 10
