REMARK  Name = ZINC35726560
REMARK  14 active torsions:
REMARK  status: ('A' for Active; 'I' for Inactive)
REMARK    1  A    between atoms: C_1  and  C_2
REMARK    2  A    between atoms: C_2  and  O_3
REMARK    3  A    between atoms: O_3  and  C_4
REMARK    4  A    between atoms: C_4  and  C_6
REMARK    5  A    between atoms: C_7  and  C_36
REMARK    6  A    between atoms: N_8  and  C_21
REMARK    7  A    between atoms: C_12  and  C_14
REMARK    8  A    between atoms: C_21  and  C_22
REMARK    9  A    between atoms: C_26  and  C_28
REMARK   10  A    between atoms: N_30  and  C_31
REMARK   11  A    between atoms: C_31  and  C_32
REMARK   12  A    between atoms: C_32  and  N_33
REMARK   13  A    between atoms: N_33  and  C_34
REMARK   14  A    between atoms: N_33  and  C_35
REMARK                            x       y       z     vdW  Elec       q    Type
REMARK                         _______ _______ _______ _____ _____    ______ ____
ROOT
ATOM      1  C   UNL     1       1.239  -2.362  -2.581  0.00  0.00    +0.061 C 
ATOM      2  C   UNL     1       1.612  -3.653  -2.586  0.00  0.00    +0.021 C 
ATOM      3  N   UNL     1       2.395  -4.162  -3.587  0.00  0.00    -0.271 N 
ATOM      4  C   UNL     1       2.583  -3.482  -4.733  0.00  0.00    +0.221 C 
ATOM      5  O   UNL     1       3.350  -3.909  -5.569  0.00  0.00    -0.275 OA
ATOM      6  C   UNL     1       1.843  -2.192  -4.980  0.00  0.00    +0.109 C 
ATOM      7  C   UNL     1       1.704  -1.426  -3.667  0.00  0.00    +0.066 C 
ATOM      8  C   UNL     1       1.162  -4.557  -1.467  0.00  0.00    +0.061 C 
ENDROOT
BRANCH   7   9
ATOM      9  C   UNL     1       3.040  -0.842  -3.288  0.00  0.00    -0.039 A 
ATOM     10  C   UNL     1       4.125  -1.674  -3.083  0.00  0.00    +0.007 A 
ATOM     11  C   UNL     1       5.351  -1.139  -2.736  0.00  0.00    +0.038 A 
ATOM     12  C   UNL     1       5.493   0.230  -2.593  0.00  0.00    +0.123 A 
ATOM     13  C   UNL     1       4.406   1.063  -2.798  0.00  0.00    +0.038 A 
ATOM     14  C   UNL     1       3.182   0.526  -3.151  0.00  0.00    +0.007 A 
ATOM     15  F   UNL     1       6.691   0.754  -2.254  0.00  0.00    -0.205 F 
ENDBRANCH   7   9
BRANCH   1  16
ATOM     16  C   UNL     1       0.397  -1.879  -1.551  0.00  0.00    +0.337 C 
ATOM     17  O   UNL     1      -0.088  -2.654  -0.748  0.00  0.00    -0.245 OA
BRANCH  16  18
ATOM     18  O   UNL     1       0.132  -0.559  -1.460  0.00  0.00    -0.462 OA
BRANCH  18  20
ATOM     19  C   UNL     1      -0.908   1.377  -0.453  0.00  0.00    +0.048 C 
ATOM     20  C   UNL     1      -0.725  -0.141  -0.395  0.00  0.00    +0.229 C 
ENDBRANCH  18  20
ENDBRANCH  16  18
ENDBRANCH   1  16
BRANCH   3  21
ATOM     21  C   UNL     1       3.038  -5.466  -3.409  0.00  0.00    +0.148 C 
BRANCH  21  22
ATOM     22  C   UNL     1       2.121  -6.551  -3.912  0.00  0.00    -0.029 A 
ATOM     23  C   UNL     1       1.207  -7.136  -3.053  0.00  0.00    +0.005 A 
ATOM     24  C   UNL     1       0.361  -8.132  -3.506  0.00  0.00    +0.001 A 
ATOM     25  C   UNL     1       0.424  -8.549  -4.820  0.00  0.00    +0.013 A 
ATOM     26  C   UNL     1       1.344  -7.964  -5.692  0.00  0.00    +0.037 A 
ATOM     27  C   UNL     1       2.190  -6.955  -5.229  0.00  0.00    +0.018 A 
BRANCH  26  28
ATOM     28  C   UNL     1       1.417  -8.406  -7.100  0.00  0.00    +0.244 C 
ATOM     29  O   UNL     1       2.219  -7.894  -7.857  0.00  0.00    -0.270 OA
ATOM     30  N   UNL     1       0.595  -9.377  -7.545  0.00  0.00    -0.313 N 
ATOM     31  H   UNL     1      -0.044  -9.786  -6.942  0.00  0.00    +0.149 HD
BRANCH  30  32
ATOM     32  C   UNL     1       0.668  -9.816  -8.941  0.00  0.00    +0.086 C 
BRANCH  32  33
ATOM     33  C   UNL     1      -0.364 -10.919  -9.184  0.00  0.00    -0.061 C 
BRANCH  33  34
ATOM     34  N   UNL     1      -0.290 -11.359 -10.584  0.00  0.00    +0.377 N 
ATOM     35  C   UNL     1       1.015 -11.986 -10.833  0.00  0.00    -0.097 C 
ATOM     36  C   UNL     1      -1.359 -12.332 -10.848  0.00  0.00    -0.097 C 
ATOM     37  H   UNL     1      -0.403 -10.562 -11.193  0.00  0.00    -0.083 HD
ENDBRANCH  33  34
ENDBRANCH  32  33
ENDBRANCH  30  32
ENDBRANCH  26  28
ENDBRANCH  21  22
ENDBRANCH   3  21
TORSDOF 10
