REMARK  Name = ZINC12711554
REMARK  5 active torsions:
REMARK  status: ('A' for Active; 'I' for Inactive)
REMARK    1  A    between atoms: C_4  and  C_7
REMARK    2  A    between atoms: C_10  and  C_13
REMARK    3  A    between atoms: C_13  and  N_14
REMARK    4  A    between atoms: C_15  and  C_17
REMARK    5  A    between atoms: C_24  and  C_26
REMARK                            x       y       z     vdW  Elec       q    Type
REMARK                         _______ _______ _______ _____ _____    ______ ____
ROOT
ATOM      1  N   UNL     1       1.607   3.709  -1.369  0.00  0.00    -0.304 N 
ATOM      2  C   UNL     1       1.937   4.993  -1.611  0.00  0.00    +0.245 C 
ATOM      3  O   UNL     1       2.234   5.728  -0.689  0.00  0.00    -0.270 OA
ATOM      4  H   UNL     1       1.370   3.122  -2.105  0.00  0.00    +0.149 HD
ENDROOT
BRANCH   2   5
ATOM      5  C   UNL     1       1.937   5.507  -2.995  0.00  0.00    +0.040 A 
ATOM      6  C   UNL     1       1.594   4.659  -4.056  0.00  0.00    +0.015 A 
ATOM      7  C   UNL     1       1.592   5.123  -5.337  0.00  0.00    +0.032 A 
ATOM      8  C   UNL     1       1.932   6.454  -5.600  0.00  0.00    +0.110 A 
ATOM      9  C   UNL     1       2.276   7.311  -4.542  0.00  0.00    +0.156 A 
ATOM     10  C   UNL     1       2.273   6.838  -3.242  0.00  0.00    +0.061 A 
ATOM     11  O   UNL     1       2.550   8.511  -5.101  0.00  0.00    -0.439 OA
ATOM     12  C   UNL     1       2.384   8.400  -6.428  0.00  0.00    +0.200 A 
ATOM     13  N   UNL     1       2.019   7.191  -6.738  0.00  0.00    -0.213 NA
BRANCH  12  14
ATOM     14  C   UNL     1       2.592   9.517  -7.417  0.00  0.00    +0.075 C 
ATOM     15  C   UNL     1       1.286   9.782  -8.170  0.00  0.00    +0.013 C 
ATOM     16  C   UNL     1       1.497  10.916  -9.175  0.00  0.00    +0.001 C 
ATOM     17  C   UNL     1       2.588  10.518 -10.171  0.00  0.00    +0.000 C 
ATOM     18  C   UNL     1       3.894  10.254  -9.419  0.00  0.00    +0.001 C 
ATOM     19  C   UNL     1       3.683   9.120  -8.414  0.00  0.00    +0.013 C 
ENDBRANCH  12  14
ENDBRANCH   2   5
BRANCH   1  20
ATOM     20  C   UNL     1       1.607   3.199   0.004  0.00  0.00    +0.180 C 
BRANCH  20  24
ATOM     21  C   UNL     1       1.245  -0.431  -0.012  0.00  0.00    +0.162 A 
ATOM     22  N   UNL     1       2.048   0.678  -0.014  0.00  0.00    -0.324 N 
ATOM     23  H   UNL     1       3.018   0.698  -0.023  0.00  0.00    +0.169 HD
ATOM     24  C   UNL     1       1.205   1.746  -0.000  0.00  0.00    +0.148 A 
ATOM     25  N   UNL     1      -0.015   1.281   0.009  0.00  0.00    -0.133 NA
ATOM     26  N   UNL     1       0.002  -0.004   0.002  0.00  0.00    -0.129 NA
BRANCH  21  30
ATOM     27  C   UNL     1       2.527  -4.481  -0.049  0.00  0.00    +0.000 A 
ATOM     28  C   UNL     1       1.176  -4.186  -0.034  0.00  0.00    +0.001 A 
ATOM     29  C   UNL     1       0.753  -2.873  -0.022  0.00  0.00    +0.011 A 
ATOM     30  C   UNL     1       1.692  -1.841  -0.025  0.00  0.00    +0.019 A 
ATOM     31  C   UNL     1       3.053  -2.145  -0.046  0.00  0.00    +0.011 A 
ATOM     32  C   UNL     1       3.463  -3.462  -0.052  0.00  0.00    +0.001 A 
ENDBRANCH  21  30
ENDBRANCH  20  24
ENDBRANCH   1  20
TORSDOF 5
