REMARK  Name = ZINC21467788
REMARK  7 active torsions:
REMARK  status: ('A' for Active; 'I' for Inactive)
REMARK    1  A    between atoms: C_1  and  C_2
REMARK    2  A    between atoms: C_5  and  N_8
REMARK    3  A    between atoms: C_10  and  C_15
REMARK    4  A    between atoms: C_15  and  O_17
REMARK    5  A    between atoms: O_17  and  C_18
REMARK    6  A    between atoms: C_18  and  C_19
REMARK    7  A    between atoms: N_21  and  C_22
REMARK                            x       y       z     vdW  Elec       q    Type
REMARK                         _______ _______ _______ _____ _____    ______ ____
ROOT
ATOM      1  C   UNL     1       0.289  -6.451   0.093  0.00  0.00    +0.328 C 
ENDROOT
BRANCH   1   2
ATOM      2  C   UNL     1      -0.057  -4.985   0.115  0.00  0.00    +0.255 C 
ATOM      3  O   UNL     1      -1.128  -4.621   0.553  0.00  0.00    -0.272 OA
ATOM      4  N   UNL     1       0.824  -4.078  -0.352  0.00  0.00    -0.283 N 
ATOM      5  H   UNL     1       1.758  -4.412  -0.828  0.00  0.00    +0.155 HD
BRANCH   4   6
ATOM      6  C   UNL     1       0.550  -2.709  -0.231  0.00  0.00    +0.037 A 
ATOM      7  C   UNL     1       0.987  -1.825  -1.208  0.00  0.00    +0.027 A 
ATOM      8  C   UNL     1       0.718  -0.474  -1.091  0.00  0.00    +0.051 A 
ATOM      9  C   UNL     1       0.013   0.000   0.002  0.00  0.00    +0.167 A 
ATOM     10  C   UNL     1      -0.426  -0.886   0.986  0.00  0.00    +0.169 A 
ATOM     11  C   UNL     1      -0.157  -2.237   0.868  0.00  0.00    +0.073 A 
ATOM     12  O   UNL     1      -1.089  -0.168   1.947  0.00  0.00    -0.447 OA
ATOM     13  C   UNL     1      -1.460   1.045   1.275  0.00  0.00    +0.254 C 
ATOM     14  O   UNL     1      -0.380   1.265   0.355  0.00  0.00    -0.448 OA
ATOM     15  C   UNL     1      -2.794   0.887   0.538  0.00  0.00    +0.093 C 
ATOM     16  C   UNL     1      -3.828   1.539   1.494  0.00  0.00    +0.008 C 
ATOM     17  C   UNL     1      -3.045   2.741   2.082  0.00  0.00    +0.008 C 
ATOM     18  C   UNL     1      -1.605   2.207   2.256  0.00  0.00    +0.093 C 
ENDBRANCH   4   6
ENDBRANCH   1   2
BRANCH   1  19
ATOM     19  O   UNL     1      -0.814  -7.217   0.645  0.00  0.00    -0.455 OA
BRANCH  19  20
ATOM     20  C   UNL     1      -0.665  -8.550   0.697  0.00  0.00    +0.313 C 
ATOM     21  O   UNL     1       0.354  -9.060   0.295  0.00  0.00    -0.250 OA
BRANCH  20  24
ATOM     22  N   UNL     1      -1.943 -11.489   2.440  0.00  0.00    -0.271 N 
ATOM     23  C   UNL     1      -1.377 -10.905   1.218  0.00  0.00    +0.128 C 
ATOM     24  C   UNL     1      -1.768  -9.411   1.257  0.00  0.00    +0.124 C 
ATOM     25  C   UNL     1      -1.941  -9.170   2.775  0.00  0.00    +0.112 C 
ATOM     26  C   UNL     1      -2.264 -10.538   3.333  0.00  0.00    +0.221 C 
ATOM     27  O   UNL     1      -2.742 -10.746   4.429  0.00  0.00    -0.275 OA
BRANCH  22  32
ATOM     28  C   UNL     1      -2.683 -17.051   3.281  0.00  0.00    +0.044 C 
ATOM     29  C   UNL     1      -2.487 -15.573   3.057  0.00  0.00    -0.050 A 
ATOM     30  C   UNL     1      -1.837 -15.128   1.921  0.00  0.00    +0.005 A 
ATOM     31  C   UNL     1      -1.655 -13.775   1.713  0.00  0.00    +0.024 A 
ATOM     32  C   UNL     1      -2.127 -12.861   2.647  0.00  0.00    +0.036 A 
ATOM     33  C   UNL     1      -2.775 -13.312   3.789  0.00  0.00    +0.024 A 
ATOM     34  C   UNL     1      -2.958 -14.666   3.989  0.00  0.00    +0.005 A 
ENDBRANCH  22  32
ENDBRANCH  20  24
ENDBRANCH  19  20
ENDBRANCH   1  19
TORSDOF 6
