REMARK  Name = ZINC22089220
REMARK  8 active torsions:
REMARK  status: ('A' for Active; 'I' for Inactive)
REMARK    1  A    between atoms: C_1  and  C_2
REMARK    2  A    between atoms: C_4  and  N_26
REMARK    3  A    between atoms: C_6  and  S_8
REMARK    4  A    between atoms: S_8  and  C_9
REMARK    5  A    between atoms: C_9  and  C_10
REMARK    6  A    between atoms: N_12  and  C_13
REMARK    7  A    between atoms: C_16  and  N_23
REMARK    8  A    between atoms: C_18  and  C_19
REMARK                            x       y       z     vdW  Elec       q    Type
REMARK                         _______ _______ _______ _____ _____    ______ ____
ROOT
ATOM      1  C   UNL     1      -4.115   1.229   0.031  0.00  0.00    +0.227 C 
ATOM      2  O   UNL     1      -4.348   2.420   0.032  0.00  0.00    -0.275 OA
ATOM      3  N   UNL     1      -5.132   0.344   0.028  0.00  0.00    -0.284 N 
ATOM      4  H   UNL     1      -4.923  -0.732  -0.065  0.00  0.00    +0.155 HD
ENDROOT
BRANCH   3   5
ATOM      5  C   UNL     1      -6.452   0.794   0.142  0.00  0.00    +0.045 A 
ATOM      6  C   UNL     1      -6.722   2.010   0.756  0.00  0.00    +0.026 A 
ATOM      7  C   UNL     1      -8.025   2.452   0.868  0.00  0.00    +0.034 A 
ATOM      8  C   UNL     1      -9.062   1.684   0.368  0.00  0.00    +0.127 A 
ATOM      9  C   UNL     1      -8.796   0.473  -0.243  0.00  0.00    +0.047 A 
ATOM     10  C   UNL     1      -7.494   0.029  -0.363  0.00  0.00    +0.078 A 
BRANCH  10  11
ATOM     11  C   UNL     1      -7.205  -1.289  -1.035  0.00  0.00    +0.419 C 
ATOM     12  F   UNL     1      -8.406  -1.870  -1.457  0.00  0.00    -0.166 F 
ATOM     13  F   UNL     1      -6.376  -1.076  -2.142  0.00  0.00    -0.166 F 
ATOM     14  F   UNL     1      -6.566  -2.144  -0.131  0.00  0.00    -0.166 F 
ENDBRANCH  10  11
BRANCH   8  15
ATOM     15  N   UNL     1     -10.458   2.160   0.489  0.00  0.00    +0.056 N 
ATOM     16  O   UNL     1     -10.693   3.227   1.027  0.00  0.00    -0.126 OA
ATOM     17  O   UNL     1     -11.372   1.485   0.050  0.00  0.00    -0.126 OA
ENDBRANCH   8  15
ENDBRANCH   3   5
BRANCH   1  18
ATOM     18  C   UNL     1      -2.690   0.740   0.034  0.00  0.00    +0.173 C 
BRANCH  18  19
ATOM     19  S   UNL     1      -1.565   2.158   0.038  0.00  0.00    -0.077 S 
BRANCH  19  25
ATOM     20  C   UNL     1       3.552   2.255   0.033  0.00  0.00    +0.066 C 
ATOM     21  C   UNL     1       2.287   1.435   0.035  0.00  0.00    +0.044 A 
ATOM     22  C   UNL     1       2.350   0.055   0.033  0.00  0.00    +0.066 A 
ATOM     23  C   UNL     1       1.155  -0.667   0.035  0.00  0.00    +0.121 A 
ATOM     24  N   UNL     1       0.002  -0.005   0.039  0.00  0.00    -0.207 NA
ATOM     25  C   UNL     1      -0.016   1.320   0.041  0.00  0.00    +0.191 A 
ATOM     26  N   UNL     1       1.104   2.030   0.039  0.00  0.00    -0.227 NA
BRANCH  23  27
ATOM     27  N   UNL     1       1.170  -2.052   0.034  0.00  0.00    -0.343 N 
ATOM     28  H   UNL     1       0.224  -2.613   0.036  0.00  0.00    +0.144 HD
ATOM     29  H   UNL     1       2.129  -2.591   0.031  0.00  0.00    +0.144 HD
ENDBRANCH  23  27
ENDBRANCH  19  25
ENDBRANCH  18  19
ENDBRANCH   1  18
TORSDOF 7
