REMARK  Name = ZINC58021669
REMARK  5 active torsions:
REMARK  status: ('A' for Active; 'I' for Inactive)
REMARK    1  A    between atoms: C_1  and  C_2
REMARK    2  A    between atoms: C_11  and  C_12
REMARK    3  A    between atoms: C_15  and  C_16
REMARK    4  A    between atoms: C_19  and  C_23
REMARK    5  A    between atoms: C_20  and  N_22
REMARK                            x       y       z     vdW  Elec       q    Type
REMARK                         _______ _______ _______ _____ _____    ______ ____
ROOT
ATOM      1  C   UNL     1       2.838   1.983   1.545  0.00  0.00    +0.046 C 
ATOM      2  C   UNL     1       3.221   0.539   1.734  0.00  0.00    -0.026 A 
ATOM      3  C   UNL     1       4.469   0.258   1.185  0.00  0.00    +0.005 A 
ATOM      4  C   UNL     1       5.021  -1.000   1.239  0.00  0.00    +0.001 A 
ATOM      5  C   UNL     1       4.306  -1.996   1.857  0.00  0.00    +0.010 A 
ATOM      6  C   UNL     1       3.050  -1.729   2.415  0.00  0.00    +0.002 A 
ATOM      7  C   UNL     1       2.464  -0.432   2.369  0.00  0.00    +0.060 A 
ATOM      8  N   UNL     1       1.210  -0.243   2.950  0.00  0.00    -0.275 N 
ATOM      9  C   UNL     1       0.595  -1.330   3.543  0.00  0.00    +0.162 A 
ATOM     10  C   UNL     1       1.150  -2.625   3.599  0.00  0.00    +0.052 A 
ATOM     11  C   UNL     1       2.357  -2.850   3.053  0.00  0.00    -0.038 A 
ATOM     12  C   UNL     1       2.956  -4.232   3.108  0.00  0.00    +0.044 C 
ATOM     13  N   UNL     1      -0.579  -0.961   4.041  0.00  0.00    -0.129 NA
ATOM     14  N   UNL     1      -0.749   0.268   3.805  0.00  0.00    -0.128 NA
ATOM     15  C   UNL     1       0.304   0.757   3.144  0.00  0.00    +0.169 A 
ENDROOT
BRANCH  15  16
ATOM     16  C   UNL     1       0.251   2.191   2.794  0.00  0.00    +0.021 A 
ATOM     17  C   UNL     1       0.749   3.148   3.681  0.00  0.00    +0.012 A 
ATOM     18  C   UNL     1       0.698   4.487   3.351  0.00  0.00    +0.006 A 
ATOM     19  C   UNL     1       0.154   4.887   2.144  0.00  0.00    -0.030 A 
ATOM     20  C   UNL     1      -0.344   3.942   1.255  0.00  0.00    +0.028 A 
ATOM     21  C   UNL     1      -0.292   2.594   1.574  0.00  0.00    +0.034 A 
ATOM     22  C   UNL     1       0.102   6.351   1.792  0.00  0.00    +0.045 C 
BRANCH  20  23
ATOM     23  N   UNL     1      -0.893   4.351   0.037  0.00  0.00    -0.358 N 
ATOM     24  H   UNL     1      -0.926   5.294  -0.188  0.00  0.00    +0.142 HD
ATOM     25  H   UNL     1      -1.241   3.692  -0.584  0.00  0.00    +0.142 HD
ENDBRANCH  20  23
ENDBRANCH  15  16
TORSDOF 2
