REMARK  Name = ZINC35910955
REMARK  8 active torsions:
REMARK  status: ('A' for Active; 'I' for Inactive)
REMARK    1  A    between atoms: C_1  and  C_2
REMARK    2  A    between atoms: C_5  and  S_8
REMARK    3  A    between atoms: S_8  and  N_11
REMARK    4  A    between atoms: N_11  and  C_12
REMARK    5  A    between atoms: C_16  and  C_18
REMARK    6  A    between atoms: N_20  and  C_25
REMARK    7  A    between atoms: C_28  and  C_32
REMARK    8  A    between atoms: C_29  and  C_31
REMARK                            x       y       z     vdW  Elec       q    Type
REMARK                         _______ _______ _______ _____ _____    ______ ____
ROOT
ATOM      1  C   UNL     1       2.425  -4.512   1.234  0.00  0.00    +0.048 A 
ATOM      2  C   UNL     1       2.211  -3.338   1.945  0.00  0.00    +0.024 A 
ATOM      3  C   UNL     1       2.933  -3.087   3.094  0.00  0.00    +0.002 A 
ATOM      4  C   UNL     1       3.870  -4.002   3.538  0.00  0.00    +0.006 A 
ATOM      5  C   UNL     1       4.087  -5.171   2.833  0.00  0.00    -0.015 A 
ATOM      6  C   UNL     1       3.363  -5.432   1.686  0.00  0.00    +0.030 A 
ENDROOT
BRANCH   5   7
ATOM      7  C   UNL     1       5.109  -6.165   3.320  0.00  0.00    +0.170 C 
ATOM      8  N   UNL     1       5.293  -6.065   4.780  0.00  0.00    -0.254 N 
ATOM      9  C   UNL     1       6.522  -6.023   5.277  0.00  0.00    +0.231 C 
ATOM     10  O   UNL     1       6.715  -5.946   6.472  0.00  0.00    -0.274 OA
ATOM     11  C   UNL     1       7.681  -6.077   4.295  0.00  0.00    +0.167 C 
ATOM     12  S   UNL     1       6.796  -5.733   2.711  0.00  0.00    -0.124 S 
BRANCH   8  13
ATOM     13  C   UNL     1       4.183  -6.013   5.631  0.00  0.00    +0.038 A 
ATOM     14  C   UNL     1       4.030  -4.950   6.511  0.00  0.00    +0.024 A 
ATOM     15  C   UNL     1       2.934  -4.902   7.349  0.00  0.00    +0.005 A 
ATOM     16  C   UNL     1       1.989  -5.912   7.313  0.00  0.00    -0.047 A 
ATOM     17  C   UNL     1       2.139  -6.972   6.439  0.00  0.00    -0.046 A 
ATOM     18  C   UNL     1       3.231  -7.023   5.593  0.00  0.00    +0.027 A 
ATOM     19  C   UNL     1       1.108  -8.070   6.403  0.00  0.00    +0.044 C 
ATOM     20  C   UNL     1       0.794  -5.857   8.230  0.00  0.00    +0.044 C 
ENDBRANCH   8  13
ENDBRANCH   5   7
BRANCH   1  21
ATOM     21  N   UNL     1       1.696  -4.770   0.071  0.00  0.00    -0.216 N 
ATOM     22  H   UNL     1       2.148  -5.093  -0.724  0.00  0.00    +0.174 HD
BRANCH  21  23
ATOM     23  S   UNL     1       0.058  -4.525   0.050  0.00  0.00    +0.072 S 
ATOM     24  O   UNL     1      -0.401  -4.957  -1.224  0.00  0.00    -0.150 OA
ATOM     25  O   UNL     1      -0.162  -3.206   0.532  0.00  0.00    -0.150 OA
BRANCH  23  30
ATOM     26  C   UNL     1      -2.363  -8.270   4.115  0.00  0.00    +0.044 C 
ATOM     27  C   UNL     1      -1.758  -7.335   3.099  0.00  0.00    -0.050 A 
ATOM     28  C   UNL     1      -1.277  -6.101   3.497  0.00  0.00    +0.005 A 
ATOM     29  C   UNL     1      -0.722  -5.243   2.565  0.00  0.00    +0.029 A 
ATOM     30  C   UNL     1      -0.648  -5.619   1.237  0.00  0.00    +0.109 A 
ATOM     31  C   UNL     1      -1.129  -6.853   0.840  0.00  0.00    +0.029 A 
ATOM     32  C   UNL     1      -1.679  -7.713   1.772  0.00  0.00    +0.005 A 
ENDBRANCH  23  30
ENDBRANCH  21  23
ENDBRANCH   1  21
TORSDOF 5
