REMARK  Name = ZINC12105045
REMARK  8 active torsions:
REMARK  status: ('A' for Active; 'I' for Inactive)
REMARK    1  A    between atoms: C_1  and  C_2
REMARK    2  A    between atoms: C_2  and  C_4
REMARK    3  A    between atoms: C_2  and  S_16
REMARK    4  A    between atoms: N_9  and  C_10
REMARK    5  A    between atoms: S_16  and  C_17
REMARK    6  A    between atoms: C_21  and  C_23
REMARK    7  A    between atoms: C_23  and  C_24
REMARK    8  A    between atoms: C_24  and  C_25
REMARK                            x       y       z     vdW  Elec       q    Type
REMARK                         _______ _______ _______ _____ _____    ______ ____
ROOT
ATOM      1  C   UNL     1      -0.006   1.538   0.018  0.00  0.00    +0.029 C 
ATOM      2  C   UNL     1       0.004   0.008   0.005  0.00  0.00    +0.137 C 
ENDROOT
BRANCH   2   3
ATOM      3  C   UNL     1       0.732  -0.499   1.224  0.00  0.00    +0.234 C 
ATOM      4  O   UNL     1       1.909  -0.779   1.154  0.00  0.00    -0.274 OA
ATOM      5  N   UNL     1       0.073  -0.642   2.391  0.00  0.00    -0.239 N 
ATOM      6  C   UNL     1       0.723  -1.095   3.481  0.00  0.00    +0.310 C 
ATOM      7  O   UNL     1       1.903  -1.376   3.411  0.00  0.00    -0.252 OA
ATOM      8  N   UNL     1       0.064  -1.238   4.648  0.00  0.00    -0.269 N 
ATOM      9  H   UNL     1      -0.870  -0.418   2.446  0.00  0.00    +0.159 HD
ATOM     10  H   UNL     1      -0.860  -0.951   4.721  0.00  0.00    +0.156 HD
BRANCH   8  11
ATOM     11  C   UNL     1       0.713  -1.799   5.753  0.00  0.00    +0.035 A 
ATOM     12  C   UNL     1       0.007  -2.604   6.639  0.00  0.00    +0.023 A 
ATOM     13  C   UNL     1       0.650  -3.156   7.730  0.00  0.00    +0.002 A 
ATOM     14  C   UNL     1       1.995  -2.909   7.940  0.00  0.00    +0.000 A 
ATOM     15  C   UNL     1       2.699  -2.109   7.060  0.00  0.00    +0.002 A 
ATOM     16  C   UNL     1       2.064  -1.558   5.964  0.00  0.00    +0.023 A 
ENDBRANCH   8  11
ENDBRANCH   2   3
BRANCH   2  17
ATOM     17  S   UNL     1       0.848  -0.579  -1.490  0.00  0.00    -0.074 S 
BRANCH  17  18
ATOM     18  C   UNL     1      -0.191  -0.036  -2.806  0.00  0.00    +0.185 A 
ATOM     19  N   UNL     1       0.020  -0.244  -4.124  0.00  0.00    -0.254 N 
ATOM     20  H   UNL     1       0.766  -0.717  -4.526  0.00  0.00    +0.191 HD
ATOM     21  N   UNL     1      -1.054   0.360  -4.796  0.00  0.00    -0.157 NA
ATOM     22  C   UNL     1      -1.830   0.882  -3.885  0.00  0.00    +0.152 A 
ATOM     23  N   UNL     1      -1.314   0.639  -2.679  0.00  0.00    -0.206 NA
BRANCH  22  24
ATOM     24  C   UNL     1      -3.109   1.634  -4.152  0.00  0.00    +0.078 C 
BRANCH  24  25
ATOM     25  C   UNL     1      -4.283   0.653  -4.166  0.00  0.00    +0.011 C 
BRANCH  25  26
ATOM     26  C   UNL     1      -5.581   1.416  -4.437  0.00  0.00    -0.011 C 
ATOM     27  C   UNL     1      -5.917   2.331  -3.241  0.00  0.00    +0.003 C 
ATOM     28  C   UNL     1      -7.460   2.261  -3.131  0.00  0.00    +0.000 C 
ATOM     29  C   UNL     1      -7.760   0.778  -3.462  0.00  0.00    +0.000 C 
ATOM     30  C   UNL     1      -6.753   0.429  -4.578  0.00  0.00    +0.003 C 
ENDBRANCH  25  26
ENDBRANCH  24  25
ENDBRANCH  22  24
ENDBRANCH  17  18
ENDBRANCH   2  17
TORSDOF 7
