REMARK  Name = ZINC39684113
REMARK  6 active torsions:
REMARK  status: ('A' for Active; 'I' for Inactive)
REMARK    1  A    between atoms: C_1  and  C_2
REMARK    2  A    between atoms: C_7  and  C_11
REMARK    3  A    between atoms: C_11  and  C_12
REMARK    4  A    between atoms: C_12  and  N_13
REMARK    5  A    between atoms: C_14  and  C_16
REMARK    6  A    between atoms: C_27  and  C_29
REMARK                            x       y       z     vdW  Elec       q    Type
REMARK                         _______ _______ _______ _____ _____    ______ ____
ROOT
ATOM      1  C   UNL     1      -8.826   1.365  -5.629  0.00  0.00    +0.100 C 
ATOM      2  C   UNL     1     -10.088   2.028  -5.032  0.00  0.00    +0.121 C 
ATOM      3  N   UNL     1     -11.196   1.580  -5.907  0.00  0.00    -0.296 N 
ATOM      4  C   UNL     1     -10.880   0.163  -6.207  0.00  0.00    +0.115 C 
ATOM      5  C   UNL     1      -9.351   0.141  -6.398  0.00  0.00    -0.004 C 
ATOM      6  C   UNL     1      -8.765  -1.141  -5.814  0.00  0.00    -0.010 C 
ATOM      7  C   UNL     1      -9.254  -2.340  -6.632  0.00  0.00    -0.082 C 
ATOM      8  N   UNL     1      -8.840  -2.182  -8.031  0.00  0.00    +0.379 N 
ATOM      9  C   UNL     1      -9.482  -0.997  -8.613  0.00  0.00    -0.082 C 
ATOM     10  C   UNL     1      -9.002   0.258  -7.879  0.00  0.00    -0.010 C 
ATOM     11  C   UNL     1     -12.253   2.299  -6.335  0.00  0.00    +0.247 C 
ATOM     12  O   UNL     1     -12.309   3.492  -6.109  0.00  0.00    -0.270 OA
ATOM     13  H   UNL     1      -7.837  -2.074  -8.073  0.00  0.00    -0.086 HD
ATOM     14  H   UNL     1      -9.110  -3.001  -8.555  0.00  0.00    -0.086 HD
ENDROOT
BRANCH  11  15
ATOM     15  C   UNL     1     -13.345   1.636  -7.080  0.00  0.00    +0.037 A 
ATOM     16  C   UNL     1     -13.524   0.255  -6.980  0.00  0.00    +0.013 A 
ATOM     17  C   UNL     1     -14.546  -0.357  -7.677  0.00  0.00    +0.001 A 
ATOM     18  C   UNL     1     -15.391   0.395  -8.473  0.00  0.00    +0.000 A 
ATOM     19  C   UNL     1     -15.219   1.764  -8.576  0.00  0.00    +0.001 A 
ATOM     20  C   UNL     1     -14.206   2.389  -7.880  0.00  0.00    +0.013 A 
ENDBRANCH  11  15
BRANCH   1  22
ATOM     21  N   UNL     1      -6.561   0.904  -4.748  0.00  0.00    -0.315 N 
ATOM     22  C   UNL     1      -7.891   0.932  -4.530  0.00  0.00    +0.218 C 
ATOM     23  O   UNL     1      -8.334   0.610  -3.448  0.00  0.00    -0.275 OA
ATOM     24  H   UNL     1      -6.207   1.162  -5.614  0.00  0.00    +0.149 HD
BRANCH  21  25
ATOM     25  C   UNL     1      -5.652   0.484  -3.680  0.00  0.00    +0.109 C 
BRANCH  25  26
ATOM     26  C   UNL     1      -4.209   0.542  -4.186  0.00  0.00    +0.056 C 
BRANCH  26  33
ATOM     27  C   UNL     1      -0.521  -2.259   0.043  0.00  0.00    +0.046 C 
ATOM     28  C   UNL     1      -1.474  -2.337  -1.123  0.00  0.00    -0.027 A 
ATOM     29  C   UNL     1      -1.818  -3.562  -1.653  0.00  0.00    +0.005 A 
ATOM     30  C   UNL     1      -2.693  -3.647  -2.727  0.00  0.00    +0.001 A 
ATOM     31  C   UNL     1      -3.231  -2.517  -3.276  0.00  0.00    +0.010 A 
ATOM     32  C   UNL     1      -2.896  -1.266  -2.754  0.00  0.00    +0.003 A 
ATOM     33  C   UNL     1      -3.273   0.109  -3.087  0.00  0.00    -0.021 A 
ATOM     34  C   UNL     1      -2.627   0.912  -2.226  0.00  0.00    +0.087 A 
ATOM     35  N   UNL     1      -1.867   0.163  -1.370  0.00  0.00    -0.360 N 
ATOM     36  C   UNL     1      -2.013  -1.175  -1.663  0.00  0.00    +0.050 A 
ATOM     37  H   UNL     1      -1.310   0.521  -0.661  0.00  0.00    +0.165 HD
ENDBRANCH  26  33
ENDBRANCH  25  26
ENDBRANCH  21  25
ENDBRANCH   1  22
TORSDOF 5
