REMARK  Name = ZINC09883692
REMARK  9 active torsions:
REMARK  status: ('A' for Active; 'I' for Inactive)
REMARK    1  A    between atoms: C_1  and  O_2
REMARK    2  A    between atoms: O_2  and  C_3
REMARK    3  A    between atoms: C_3  and  C_4
REMARK    4  A    between atoms: C_4  and  N_5
REMARK    5  A    between atoms: C_6  and  C_8
REMARK    6  A    between atoms: C_12  and  N_13
REMARK    7  A    between atoms: C_14  and  C_16
REMARK    8  A    between atoms: C_16  and  N_64
REMARK    9  A    between atoms: C_20  and  C_22
REMARK                            x       y       z     vdW  Elec       q    Type
REMARK                         _______ _______ _______ _____ _____    ______ ____
ROOT
ATOM      1  N   UNL     1      -2.197   4.145  -4.358  0.00  0.00    -0.281 N 
ATOM      2  C   UNL     1      -1.665   4.209  -3.122  0.00  0.00    +0.201 C 
ATOM      3  O   UNL     1      -1.192   5.250  -2.719  0.00  0.00    -0.278 OA
ATOM      4  H   UNL     1      -2.576   3.312  -4.681  0.00  0.00    +0.155 HD
ENDROOT
BRANCH   1   9
ATOM      5  C   UNL     1      -2.703   5.400  -6.458  0.00  0.00    +0.069 A 
ATOM      6  C   UNL     1      -2.586   6.701  -7.094  0.00  0.00    -0.023 A 
ATOM      7  C   UNL     1      -1.994   7.657  -6.345  0.00  0.00    -0.004 A 
ATOM      8  S   UNL     1      -1.602   6.855  -4.816  0.00  0.00    -0.077 S 
ATOM      9  C   UNL     1      -2.205   5.269  -5.169  0.00  0.00    +0.084 A 
ATOM     10  C   UNL     1      -1.738   9.080  -6.735  0.00  0.00    +0.043 C 
ATOM     11  C   UNL     1      -1.910   9.203  -8.256  0.00  0.00    +0.005 C 
ATOM     12  C   UNL     1      -3.219   8.519  -8.661  0.00  0.00    +0.005 C 
ATOM     13  C   UNL     1      -3.084   7.004  -8.502  0.00  0.00    +0.037 C 
BRANCH   5  15
ATOM     14  N   UNL     1      -2.569   3.442  -7.903  0.00  0.00    -0.309 N 
ATOM     15  C   UNL     1      -3.324   4.267  -7.151  0.00  0.00    +0.247 C 
ATOM     16  O   UNL     1      -4.521   4.072  -7.048  0.00  0.00    -0.270 OA
ATOM     17  H   UNL     1      -1.615   3.597  -7.985  0.00  0.00    +0.149 HD
BRANCH  14  18
ATOM     18  C   UNL     1      -3.190   2.310  -8.596  0.00  0.00    +0.132 C 
BRANCH  18  19
ATOM     19  C   UNL     1      -2.120   1.539  -9.373  0.00  0.00    +0.178 C 
BRANCH  19  21
ATOM     20  C   UNL     1      -0.146   0.211  -9.081  0.00  0.00    +0.194 C 
ATOM     21  O   UNL     1      -1.192   0.958  -8.455  0.00  0.00    -0.381 OA
ENDBRANCH  19  21
ENDBRANCH  18  19
ENDBRANCH  14  18
ENDBRANCH   5  15
ENDBRANCH   1   9
BRANCH   2  22
ATOM     22  C   UNL     1      -1.656   2.986  -2.241  0.00  0.00    +0.020 C 
BRANCH  22  27
ATOM     23  C   UNL     1      -1.595   4.549  -0.386  0.00  0.00    -0.077 C 
ATOM     24  C   UNL     1      -2.135   4.200   1.017  0.00  0.00    -0.020 C 
ATOM     25  C   UNL     1      -1.333   2.926   1.392  0.00  0.00    -0.010 C 
ATOM     26  C   UNL     1      -1.210   2.218   0.020  0.00  0.00    -0.011 C 
ATOM     27  N   UNL     1      -1.011   3.318  -0.944  0.00  0.00    +0.391 N 
ATOM     28  H   UNL     1      -0.005   3.459  -1.096  0.00  0.00    -0.080 HD
BRANCH  26  29
ATOM     29  C   UNL     1      -0.016   1.299   0.009  0.00  0.00    +0.066 A 
ATOM     30  N   UNL     1       0.002  -0.004   0.002  0.00  0.00    -0.246 NA
ATOM     31  C   UNL     1       1.150  -0.713  -0.013  0.00  0.00    +0.078 A 
ATOM     32  C   UNL     1       1.331  -2.114  -0.022  0.00  0.00    +0.029 A 
ATOM     33  C   UNL     1       2.580  -2.653  -0.037  0.00  0.00    +0.002 A 
ATOM     34  C   UNL     1       3.717  -1.856  -0.044  0.00  0.00    +0.001 A 
ATOM     35  C   UNL     1       3.582  -0.481  -0.035  0.00  0.00    +0.017 A 
ATOM     36  C   UNL     1       2.325   0.073  -0.020  0.00  0.00    +0.039 A 
ATOM     37  S   UNL     1       1.668   1.722  -0.005  0.00  0.00    -0.074 S 
ENDBRANCH  26  29
ENDBRANCH  22  27
ENDBRANCH   2  22
TORSDOF 8
