REMARK  Name = ZINC12710218
REMARK  9 active torsions:
REMARK  status: ('A' for Active; 'I' for Inactive)
REMARK    1  A    between atoms: C_5  and  N_7
REMARK    2  A    between atoms: N_7  and  C_8
REMARK    3  A    between atoms: C_8  and  C_9
REMARK    4  A    between atoms: N_11  and  C_12
REMARK    5  A    between atoms: C_18  and  C_20
REMARK    6  A    between atoms: C_20  and  S_21
REMARK    7  A    between atoms: S_21  and  C_23
REMARK    8  A    between atoms: C_23  and  C_24
REMARK    9  A    between atoms: N_26  and  C_27
REMARK                            x       y       z     vdW  Elec       q    Type
REMARK                         _______ _______ _______ _____ _____    ______ ____
ROOT
ATOM      1  N   UNL     1      10.058  -4.911   6.361  0.00  0.00    -0.259 N 
ATOM      2  C   UNL     1       8.889  -4.737   5.714  0.00  0.00    +0.233 C 
ATOM      3  O   UNL     1       8.085  -5.644   5.660  0.00  0.00    -0.274 OA
ENDROOT
BRANCH   1   8
ATOM      4  C   UNL     1      11.860  -1.925   7.530  0.00  0.00    +0.002 A 
ATOM      5  C   UNL     1      12.822  -1.795   6.545  0.00  0.00    +0.003 A 
ATOM      6  C   UNL     1      12.870  -2.697   5.498  0.00  0.00    +0.040 A 
ATOM      7  C   UNL     1      11.955  -3.733   5.434  0.00  0.00    +0.145 A 
ATOM      8  C   UNL     1      10.987  -3.864   6.423  0.00  0.00    +0.072 A 
ATOM      9  C   UNL     1      10.939  -2.953   7.468  0.00  0.00    +0.026 A 
ATOM     10  F   UNL     1      12.002  -4.614   4.410  0.00  0.00    -0.204 F 
ENDBRANCH   1   8
BRANCH   1  11
ATOM     11  C   UNL     1      10.358  -6.195   6.999  0.00  0.00    +0.209 C 
BRANCH  11  12
ATOM     12  C   UNL     1      11.059  -7.095   6.014  0.00  0.00    +0.231 C 
ATOM     13  O   UNL     1      11.286  -6.702   4.889  0.00  0.00    -0.274 OA
ATOM     14  N   UNL     1      11.434  -8.335   6.383  0.00  0.00    -0.311 N 
ATOM     15  H   UNL     1      11.253  -8.649   7.283  0.00  0.00    +0.149 HD
BRANCH  14  16
ATOM     16  C   UNL     1      12.115  -9.210   5.425  0.00  0.00    +0.073 C 
ATOM     17  C   UNL     1      11.076  -9.937   4.570  0.00  0.00    +0.022 C 
ATOM     18  C   UNL     1      11.787 -10.850   3.569  0.00  0.00    +0.002 C 
ATOM     19  C   UNL     1      12.632 -11.876   4.327  0.00  0.00    +0.000 C 
ATOM     20  C   UNL     1      13.671 -11.149   5.182  0.00  0.00    +0.002 C 
ATOM     21  C   UNL     1      12.960 -10.236   6.183  0.00  0.00    +0.022 C 
ENDBRANCH  14  16
ENDBRANCH  11  12
ENDBRANCH   1  11
BRANCH   2  22
ATOM     22  C   UNL     1       8.580  -3.416   5.057  0.00  0.00    +0.200 C 
BRANCH  22  23
ATOM     23  S   UNL     1       6.945  -3.497   4.276  0.00  0.00    +0.040 S 
ATOM     24  O   UNL     1       6.959  -4.477   3.247  0.00  0.00    -0.256 OA
BRANCH  23  25
ATOM     25  C   UNL     1       6.728  -1.853   3.541  0.00  0.00    +0.200 C 
BRANCH  25  26
ATOM     26  C   UNL     1       5.391  -1.783   2.851  0.00  0.00    +0.230 C 
ATOM     27  O   UNL     1       4.656  -2.748   2.854  0.00  0.00    -0.274 OA
ATOM     28  N   UNL     1       5.011  -0.649   2.229  0.00  0.00    -0.285 N 
ATOM     29  H   UNL     1       5.628   0.096   2.160  0.00  0.00    +0.155 HD
BRANCH  28  30
ATOM     30  C   UNL     1       3.725  -0.547   1.683  0.00  0.00    +0.037 A 
ATOM     31  C   UNL     1       2.657  -1.191   2.295  0.00  0.00    +0.027 A 
ATOM     32  C   UNL     1       1.388  -1.090   1.758  0.00  0.00    +0.051 A 
ATOM     33  C   UNL     1       1.177  -0.347   0.608  0.00  0.00    +0.166 A 
ATOM     34  C   UNL     1       2.246   0.301  -0.008  0.00  0.00    +0.168 A 
ATOM     35  C   UNL     1       3.517   0.199   0.531  0.00  0.00    +0.072 A 
ATOM     36  O   UNL     1       1.781   0.958  -1.110  0.00  0.00    -0.453 OA
ATOM     37  C   UNL     1       0.354   1.044  -0.934  0.00  0.00    +0.466 C 
ATOM     38  O   UNL     1       0.042  -0.094  -0.110  0.00  0.00    -0.453 OA
ENDBRANCH  28  30
ENDBRANCH  25  26
ENDBRANCH  23  25
ENDBRANCH  22  23
ENDBRANCH   2  22
TORSDOF 9
