REMARK  Name = ZINC65074630
REMARK  7 active torsions:
REMARK  status: ('A' for Active; 'I' for Inactive)
REMARK    1  A    between atoms: C_1  and  C_2
REMARK    2  A    between atoms: C_2  and  C_3
REMARK    3  A    between atoms: C_3  and  C_4
REMARK    4  A    between atoms: C_7  and  S_10
REMARK    5  A    between atoms: S_10  and  N_13
REMARK    6  A    between atoms: N_24  and  C_25
REMARK    7  A    between atoms: C_25  and  C_26
REMARK                            x       y       z     vdW  Elec       q    Type
REMARK                         _______ _______ _______ _____ _____    ______ ____
ROOT
ATOM      1  N   UNL     1       0.024  -7.039   0.081  0.00  0.00    -0.176 NA
ATOM      2  C   UNL     1       0.770  -7.252   1.329  0.00  0.00    +0.111 C 
ATOM      3  C   UNL     1       0.101  -6.446   2.446  0.00  0.00    +0.047 C 
ATOM      4  C   UNL     1      -1.380  -6.826   2.529  0.00  0.00    +0.075 C 
ATOM      5  C   UNL     1      -2.068  -6.480   1.206  0.00  0.00    +0.047 C 
ATOM      6  C   UNL     1      -1.425  -7.281   0.075  0.00  0.00    +0.111 C 
ATOM      7  C   UNL     1      -2.032  -6.065   3.648  0.00  0.00    +0.089 C 
ATOM      8  N   UNL     1      -2.845  -6.592   4.483  0.00  0.00    -0.374 N 
ATOM      9  C   UNL     1      -3.235  -7.998   4.458  0.00  0.00    +0.129 C 
ATOM     10  C   UNL     1      -2.891  -8.614   3.100  0.00  0.00    +0.102 C 
ATOM     11  N   UNL     1      -1.496  -8.271   2.772  0.00  0.00    -0.303 NA
ATOM     12  N   UNL     1      -1.738  -4.733   3.783  0.00  0.00    -0.329 N 
ATOM     13  H   UNL     1      -1.172  -8.799   1.976  0.00  0.00    +0.123 HD
ATOM     14  H   UNL     1      -1.125  -4.307   3.164  0.00  0.00    +0.147 HD
ATOM     15  H   UNL     1      -3.225  -6.024   5.172  0.00  0.00    +0.161 HD
ENDROOT
BRANCH   1  16
ATOM     16  S   UNL     1       0.800  -6.530  -1.291  0.00  0.00    +0.061 S 
ATOM     17  O   UNL     1      -0.003  -6.941  -2.388  0.00  0.00    -0.153 OA
ATOM     18  O   UNL     1       2.161  -6.919  -1.155  0.00  0.00    -0.153 OA
BRANCH  16  22
ATOM     19  C   UNL     1       0.739  -2.004  -1.265  0.00  0.00    -0.047 A 
ATOM     20  C   UNL     1       1.788  -2.685  -0.675  0.00  0.00    +0.005 A 
ATOM     21  C   UNL     1       1.806  -4.067  -0.683  0.00  0.00    +0.029 A 
ATOM     22  C   UNL     1       0.776  -4.769  -1.280  0.00  0.00    +0.105 A 
ATOM     23  C   UNL     1      -0.273  -4.088  -1.869  0.00  0.00    +0.029 A 
ATOM     24  C   UNL     1      -0.294  -2.706  -1.858  0.00  0.00    +0.005 A 
BRANCH  19  25
ATOM     25  C   UNL     1       0.718  -0.497  -1.257  0.00  0.00    +0.035 C 
BRANCH  25  27
ATOM     26  C   UNL     1      -0.019   1.526   0.010  0.00  0.00    +0.004 C 
ATOM     27  C   UNL     1       0.002  -0.004   0.002  0.00  0.00    +0.001 C 
ENDBRANCH  25  27
ENDBRANCH  19  25
ENDBRANCH  16  22
ENDBRANCH   1  16
BRANCH  12  28
ATOM     28  C   UNL     1      -2.352  -3.953   4.860  0.00  0.00    +0.138 C 
BRANCH  28  29
ATOM     29  C   UNL     1      -1.868  -2.528   4.787  0.00  0.00    -0.030 A 
ATOM     30  C   UNL     1      -0.726  -2.150   5.469  0.00  0.00    +0.008 A 
ATOM     31  C   UNL     1      -0.281  -0.844   5.403  0.00  0.00    +0.038 A 
ATOM     32  C   UNL     1      -0.978   0.087   4.652  0.00  0.00    +0.123 A 
ATOM     33  C   UNL     1      -2.122  -0.292   3.969  0.00  0.00    +0.038 A 
ATOM     34  C   UNL     1      -2.562  -1.600   4.033  0.00  0.00    +0.008 A 
ATOM     35  F   UNL     1      -0.544   1.365   4.587  0.00  0.00    -0.205 F 
ENDBRANCH  28  29
ENDBRANCH  12  28
TORSDOF 6
