REMARK  Name = ZINC09631623
REMARK  6 active torsions:
REMARK  status: ('A' for Active; 'I' for Inactive)
REMARK    1  A    between atoms: C_1  and  N_2
REMARK    2  A    between atoms: N_4  and  C_5
REMARK    3  A    between atoms: C_7  and  S_16
REMARK    4  A    between atoms: C_10  and  N_11
REMARK    5  A    between atoms: S_16  and  N_19
REMARK    6  A    between atoms: N_19  and  C_20
REMARK                            x       y       z     vdW  Elec       q    Type
REMARK                         _______ _______ _______ _____ _____    ______ ____
ROOT
ATOM      1  C   UNL     1       1.738  -0.741   3.104  0.00  0.00    +0.056 A 
ATOM      2  C   UNL     1       1.745  -2.126   3.051  0.00  0.00    +0.054 A 
ATOM      3  C   UNL     1       2.271  -2.856   4.100  0.00  0.00    +0.112 A 
ATOM      4  C   UNL     1       2.790  -2.208   5.206  0.00  0.00    +0.031 A 
ATOM      5  C   UNL     1       2.787  -0.828   5.269  0.00  0.00    +0.027 A 
ATOM      6  C   UNL     1       2.267  -0.087   4.217  0.00  0.00    +0.051 A 
ENDROOT
BRANCH   1  10
ATOM      7  C   UNL     1      -1.442   0.169   1.195  0.00  0.00    +0.141 C 
ATOM      8  N   UNL     1      -0.432  -0.566   0.428  0.00  0.00    -0.370 N 
ATOM      9  C   UNL     1       0.857  -0.625   0.877  0.00  0.00    +0.143 C 
ATOM     10  N   UNL     1       1.205   0.001   2.041  0.00  0.00    -0.294 N 
ATOM     11  S   UNL     1       2.001  -1.458   0.009  0.00  0.00    -0.016 SA
ATOM     12  H   UNL     1       1.084   0.960   2.131  0.00  0.00    +0.154 HD
ATOM     13  H   UNL     1      -0.680  -1.011  -0.398  0.00  0.00    +0.161 HD
ENDBRANCH   1  10
BRANCH   6  14
ATOM     14  N   UNL     1       2.269   1.311   4.275  0.00  0.00    -0.328 N 
ATOM     15  C   UNL     1       1.198   2.146   4.839  0.00  0.00    +0.105 C 
ATOM     16  C   UNL     1       1.625   3.619   4.661  0.00  0.00    +0.020 C 
ATOM     17  C   UNL     1       2.650   3.546   3.499  0.00  0.00    +0.020 C 
ATOM     18  C   UNL     1       3.347   2.190   3.786  0.00  0.00    +0.105 C 
ENDBRANCH   6  14
BRANCH   3  19
ATOM     19  S   UNL     1       2.278  -4.617   4.029  0.00  0.00    +0.092 S 
ATOM     20  O   UNL     1       2.327  -5.077   5.372  0.00  0.00    -0.148 OA
ATOM     21  O   UNL     1       1.241  -4.991   3.133  0.00  0.00    -0.148 OA
BRANCH  19  22
ATOM     22  N   UNL     1       3.704  -5.072   3.320  0.00  0.00    -0.096 NA
BRANCH  22  23
ATOM     23  C   UNL     1       3.989  -6.426   3.130  0.00  0.00    +0.094 A 
ATOM     24  C   UNL     1       3.075  -7.392   3.530  0.00  0.00    +0.048 A 
ATOM     25  C   UNL     1       3.359  -8.732   3.341  0.00  0.00    +0.043 A 
ATOM     26  C   UNL     1       4.554  -9.111   2.754  0.00  0.00    +0.021 A 
ATOM     27  C   UNL     1       5.466  -8.151   2.355  0.00  0.00    +0.023 A 
ATOM     28  C   UNL     1       5.185  -6.810   2.535  0.00  0.00    +0.065 A 
ATOM     29 CL   UNL     1       6.328  -5.606   2.027  0.00  0.00    -0.082 Cl
ATOM     30 CL   UNL     1       2.217  -9.940   3.841  0.00  0.00    -0.083 Cl
ENDBRANCH  22  23
ENDBRANCH  19  22
ENDBRANCH   3  19
TORSDOF 5
