REMARK  Name = ZINC61363640
REMARK  6 active torsions:
REMARK  status: ('A' for Active; 'I' for Inactive)
REMARK    1  A    between atoms: C_1  and  C_2
REMARK    2  A    between atoms: C_2  and  C_4
REMARK    3  A    between atoms: C_2  and  N_9
REMARK    4  A    between atoms: N_9  and  S_10
REMARK    5  A    between atoms: S_10  and  C_13
REMARK    6  A    between atoms: C_16  and  C_18
REMARK                            x       y       z     vdW  Elec       q    Type
REMARK                         _______ _______ _______ _____ _____    ______ ____
ROOT
ATOM      1  S   UNL     1      -2.092  -0.923   1.446  0.00  0.00    +0.065 S 
ATOM      2  O   UNL     1      -3.411  -1.347   1.131  0.00  0.00    -0.153 OA
ATOM      3  O   UNL     1      -1.170  -1.752   2.140  0.00  0.00    -0.153 OA
ENDROOT
BRANCH   1   4
ATOM      4  C   UNL     1      -2.251   0.555   2.392  0.00  0.00    +0.143 A 
ATOM      5  C   UNL     1      -3.293   1.426   2.410  0.00  0.00    +0.037 A 
ATOM      6  C   UNL     1      -3.226   2.529   3.223  0.00  0.00    +0.025 A 
ATOM      7  C   UNL     1      -2.064   2.656   3.974  0.00  0.00    +0.102 A 
ATOM      8  S   UNL     1      -1.152   1.205   3.484  0.00  0.00    -0.062 S 
BRANCH   7   9
ATOM      9  C   UNL     1      -1.701   3.671   4.895  0.00  0.00    +0.393 C 
ATOM     10  O   UNL     1      -2.466   4.602   5.113  0.00  0.00    -0.240 OA
ATOM     11  O   UNL     1      -0.622   3.617   5.472  0.00  0.00    -0.240 OA
ENDBRANCH   7   9
ENDBRANCH   1   4
BRANCH   1  12
ATOM     12  N   UNL     1      -1.372  -0.511   0.012  0.00  0.00    -0.182 NA
ATOM     13  H   UNL     1      -1.861  -0.606  -0.820  0.00  0.00    +0.149 HD
BRANCH  12  15
ATOM     14  C   UNL     1      -0.019   1.526   0.010  0.00  0.00    +0.031 C 
ATOM     15  C   UNL     1       0.002  -0.004   0.002  0.00  0.00    +0.104 C 
BRANCH  15  16
ATOM     16  C   UNL     1       0.707  -0.490  -1.238  0.00  0.00    -0.022 A 
ATOM     17  C   UNL     1       2.024  -0.906  -1.178  0.00  0.00    +0.013 A 
ATOM     18  C   UNL     1       2.629  -1.338  -2.312  0.00  0.00    +0.045 A 
ATOM     19  S   UNL     1       1.324  -1.162  -3.517  0.00  0.00    -0.105 S 
ATOM     20  C   UNL     1       0.058  -0.531  -2.427  0.00  0.00    +0.050 A 
ENDBRANCH  15  16
ENDBRANCH  12  15
ENDBRANCH   1  12
TORSDOF 5
