REMARK  Name = ZINC39710555
REMARK  13 active torsions:
REMARK  status: ('A' for Active; 'I' for Inactive)
REMARK    1  A    between atoms: C_1  and  C_2
REMARK    2  A    between atoms: C_2  and  C_3
REMARK    3  A    between atoms: C_10  and  C_15
REMARK    4  A    between atoms: C_15  and  C_17
REMARK    5  A    between atoms: C_15  and  N_27
REMARK    6  A    between atoms: N_22  and  C_23
REMARK    7  A    between atoms: C_23  and  C_24
REMARK    8  A    between atoms: C_23  and  C_25
REMARK    9  A    between atoms: C_23  and  C_26
REMARK   10  A    between atoms: N_27  and  C_28
REMARK   11  A    between atoms: N_27  and  C_34
REMARK   12  A    between atoms: C_28  and  C_29
REMARK   13  A    between atoms: C_34  and  C_35
REMARK                            x       y       z     vdW  Elec       q    Type
REMARK                         _______ _______ _______ _____ _____    ______ ____
ROOT
ATOM      1  C   UNL     1       0.305  -3.543   6.342  0.00  0.00    -0.009 C 
ENDROOT
BRANCH   1   9
ATOM      2  C   UNL     1       0.929  -1.792   0.811  0.00  0.00    -0.047 A 
ATOM      3  C   UNL     1       2.285  -2.118   0.810  0.00  0.00    +0.005 A 
ATOM      4  C   UNL     1       2.969  -2.410   1.947  0.00  0.00    +0.024 A 
ATOM      5  C   UNL     1       2.320  -2.394   3.195  0.00  0.00    +0.040 A 
ATOM      6  N   UNL     1       3.002  -2.683   4.304  0.00  0.00    -0.285 N 
ATOM      7  C   UNL     1       2.454  -2.687   5.508  0.00  0.00    +0.223 C 
ATOM      8  O   UNL     1       3.127  -2.958   6.484  0.00  0.00    -0.275 OA
ATOM      9  C   UNL     1       0.988  -2.352   5.666  0.00  0.00    +0.088 C 
ATOM     10  C   UNL     1       0.208  -2.023   4.408  0.00  0.00    -0.006 C 
ATOM     11  C   UNL     1       0.887  -2.053   3.226  0.00  0.00    -0.007 A 
ATOM     12  C   UNL     1       0.213  -1.744   1.964  0.00  0.00    +0.013 A 
ATOM     13  H   UNL     1       3.944  -2.900   4.224  0.00  0.00    +0.155 HD
BRANCH   2  15
ATOM     14  C   UNL     1       0.354   0.019  -0.783  0.00  0.00    +0.009 C 
ATOM     15  C   UNL     1       0.244  -1.479  -0.495  0.00  0.00    +0.032 C 
ENDBRANCH   2  15
ENDBRANCH   1   9
BRANCH   1  16
ATOM     16  C   UNL     1       0.507  -4.798   5.491  0.00  0.00    +0.205 C 
ATOM     17  N   UNL     1       1.940  -5.048   5.279  0.00  0.00    -0.152 NA
ATOM     18  N   UNL     1       2.178  -5.001   4.071  0.00  0.00    -0.070 NA
ATOM     19  N   UNL     1       1.045  -4.732   3.304  0.00  0.00    -0.179 N 
ATOM     20  N   UNL     1      -0.040  -4.594   4.133  0.00  0.00    -0.183 NA
ATOM     21  H   UNL     1       1.026  -4.654   2.337  0.00  0.00    +0.191 HD
BRANCH  20  22
ATOM     22  C   UNL     1      -1.071  -5.595   3.826  0.00  0.00    +0.035 C 
ATOM     23  C   UNL     1      -2.212  -5.479   4.838  0.00  0.00    +0.029 C 
ATOM     24  C   UNL     1      -1.613  -5.353   2.416  0.00  0.00    +0.029 C 
ATOM     25  C   UNL     1      -0.460  -6.996   3.904  0.00  0.00    +0.029 C 
ENDBRANCH  20  22
ENDBRANCH   1  16
BRANCH   1  26
ATOM     26  N   UNL     1       0.892  -3.753   7.672  0.00  0.00    +0.389 N 
ATOM     27  H   UNL     1       1.883  -3.923   7.580  0.00  0.00    -0.081 HD
BRANCH  26  28
ATOM     28  C   UNL     1       0.255  -4.912   8.311  0.00  0.00    -0.035 C 
BRANCH  28  29
ATOM     29  C   UNL     1       0.926  -5.190   9.632  0.00  0.00    -0.027 A 
ATOM     30  C   UNL     1       0.560  -4.794  10.875  0.00  0.00    +0.009 A 
ATOM     31  C   UNL     1       1.336  -5.172  11.955  0.00  0.00    +0.008 A 
ATOM     32  C   UNL     1       2.440  -5.928  11.738  0.00  0.00    +0.045 A 
ATOM     33  S   UNL     1       2.405  -6.133   9.964  0.00  0.00    -0.103 S 
ENDBRANCH  28  29
ENDBRANCH  26  28
BRANCH  26  34
ATOM     34  C   UNL     1       0.676  -2.558   8.498  0.00  0.00    -0.046 C 
BRANCH  34  35
ATOM     35  C   UNL     1      -0.813  -2.205   8.504  0.00  0.00    +0.102 C 
ATOM     36  C   UNL     1      -1.033  -0.874   9.254  0.00  0.00    +0.032 C 
ATOM     37  C   UNL     1      -2.348  -1.148  10.034  0.00  0.00    +0.030 C 
ATOM     38  C   UNL     1      -2.191  -2.656  10.354  0.00  0.00    +0.160 C 
ATOM     39  O   UNL     1      -1.550  -3.220   9.197  0.00  0.00    -0.378 OA
ENDBRANCH  34  35
ENDBRANCH  26  34
ENDBRANCH   1  26
TORSDOF 9
