REMARK  Name = ZINC67413807
REMARK  7 active torsions:
REMARK  status: ('A' for Active; 'I' for Inactive)
REMARK    1  A    between atoms: C_1  and  C_2
REMARK    2  A    between atoms: C_13  and  C_15
REMARK    3  A    between atoms: C_15  and  C_17
REMARK    4  A    between atoms: C_15  and  N_18
REMARK    5  A    between atoms: C_22  and  C_25
REMARK    6  A    between atoms: C_25  and  N_26
REMARK    7  A    between atoms: C_27  and  C_29
REMARK                            x       y       z     vdW  Elec       q    Type
REMARK                         _______ _______ _______ _____ _____    ______ ____
ROOT
ATOM      1  C   UNL     1       1.643  -0.144   3.426  0.00  0.00    +0.017 C 
ATOM      2  C   UNL     1       3.134  -0.205   3.090  0.00  0.00    -0.004 C 
ENDROOT
BRANCH   1  14
ATOM      3  C   UNL     1       1.394  -2.398   2.589  0.00  0.00    +0.028 C 
ATOM      4  C   UNL     1       1.458  -1.901   1.144  0.00  0.00    +0.079 C 
ATOM      5  C   UNL     1       0.547  -2.761   0.258  0.00  0.00    +0.027 C 
ATOM      6  C   UNL     1       0.681  -2.291  -1.191  0.00  0.00    +0.039 C 
ATOM      7  C   UNL     1       0.479  -0.802  -1.283  0.00  0.00    -0.026 A 
ATOM      8  C   UNL     1       0.132  -0.247  -2.504  0.00  0.00    +0.005 A 
ATOM      9  C   UNL     1      -0.057   1.116  -2.621  0.00  0.00    +0.000 A 
ATOM     10  C   UNL     1       0.100   1.937  -1.519  0.00  0.00    +0.002 A 
ATOM     11  C   UNL     1       0.445   1.392  -0.298  0.00  0.00    +0.024 A 
ATOM     12  C   UNL     1       0.633   0.020  -0.177  0.00  0.00    +0.040 A 
ATOM     13  N   UNL     1       0.977  -0.514   1.073  0.00  0.00    -0.270 N 
ATOM     14  C   UNL     1       0.865   0.230   2.190  0.00  0.00    +0.206 C 
ATOM     15  O   UNL     1       0.138   1.201   2.202  0.00  0.00    -0.277 OA
ENDBRANCH   1  14
BRANCH   1  16
ATOM     16  N   UNL     1       1.417   0.865   4.470  0.00  0.00    +0.387 N 
ATOM     17  C   UNL     1       2.302   0.593   5.609  0.00  0.00    -0.078 C 
ATOM     18  C   UNL     1       2.129   1.687   6.666  0.00  0.00    -0.018 C 
ATOM     19  C   UNL     1       0.673   1.704   7.141  0.00  0.00    +0.001 C 
ATOM     20  C   UNL     1      -0.245   1.914   5.934  0.00  0.00    -0.011 C 
ATOM     21  C   UNL     1       0.016   0.812   4.904  0.00  0.00    -0.073 C 
ATOM     22  H   UNL     1       1.619   1.781   4.101  0.00  0.00    -0.081 HD
BRANCH  20  23
ATOM     23  C   UNL     1      -1.705   1.856   6.387  0.00  0.00    +0.105 C 
BRANCH  23  24
ATOM     24  N   UNL     1      -1.983   2.980   7.284  0.00  0.00    -0.315 N 
ATOM     25  C   UNL     1      -3.214   3.134   7.810  0.00  0.00    +0.210 C 
ATOM     26  O   UNL     1      -4.092   2.342   7.541  0.00  0.00    -0.276 OA
ATOM     27  C   UNL     1      -3.500   4.290   8.733  0.00  0.00    +0.109 C 
ATOM     28  H   UNL     1      -1.281   3.614   7.499  0.00  0.00    +0.149 HD
ENDBRANCH  23  24
ENDBRANCH  20  23
ENDBRANCH   1  16
TORSDOF 4
