REMARK  Name = ZINC02736124
REMARK  7 active torsions:
REMARK  status: ('A' for Active; 'I' for Inactive)
REMARK    1  A    between atoms: C_1  and  C_2
REMARK    2  A    between atoms: C_5  and  C_8
REMARK    3  A    between atoms: C_9  and  C_28
REMARK    4  A    between atoms: C_14  and  C_16
REMARK    5  A    between atoms: C_19  and  C_27
REMARK    6  A    between atoms: C_20  and  C_26
REMARK    7  A    between atoms: C_22  and  C_24
REMARK                            x       y       z     vdW  Elec       q    Type
REMARK                         _______ _______ _______ _____ _____    ______ ____
ROOT
ATOM      1  C   UNL     1       2.122  -2.489   0.578  0.00  0.00    +0.083 A 
ATOM      2  C   UNL     1       2.919  -3.212  -0.265  0.00  0.00    +0.016 A 
ATOM      3  S   UNL     1       2.153  -4.823  -0.144  0.00  0.00    -0.057 S 
ATOM      4  C   UNL     1       0.857  -4.369   1.000  0.00  0.00    +0.165 A 
ATOM      5  N   UNL     1       1.109  -3.087   1.187  0.00  0.00    -0.224 NA
ATOM      6  N   UNL     1      -0.149  -5.156   1.546  0.00  0.00    -0.264 N 
ATOM      7  C   UNL     1      -0.235  -6.462   1.222  0.00  0.00    +0.223 C 
ATOM      8  O   UNL     1       0.567  -6.949   0.454  0.00  0.00    -0.275 OA
ATOM      9  C   UNL     1       4.114  -2.773  -1.071  0.00  0.00    +0.054 C 
ATOM     10  H   UNL     1      -0.791  -4.766   2.160  0.00  0.00    +0.157 HD
ENDROOT
BRANCH   7  11
ATOM     11  C   UNL     1      -1.326  -7.315   1.815  0.00  0.00    +0.093 C 
ATOM     12  C   UNL     1      -0.773  -8.705   2.139  0.00  0.00    +0.044 C 
ATOM     13  C   UNL     1      -0.492  -9.458   0.872  0.00  0.00    -0.073 C 
ATOM     14  C   UNL     1      -0.974  -9.136  -0.285  0.00  0.00    -0.073 C 
ATOM     15  C   UNL     1      -1.873  -7.959  -0.523  0.00  0.00    +0.046 C 
ATOM     16  C   UNL     1      -2.466  -7.472   0.801  0.00  0.00    +0.118 C 
ATOM     17  C   UNL     1      -0.609  -9.998  -1.467  0.00  0.00    +0.039 C 
ATOM     18  C   UNL     1       0.407 -10.665   0.953  0.00  0.00    +0.039 C 
BRANCH  16  19
ATOM     19  C   UNL     1      -3.149  -6.144   0.597  0.00  0.00    +0.360 C 
ATOM     20  O   UNL     1      -2.766  -5.169   1.200  0.00  0.00    -0.246 OA
ATOM     21  O   UNL     1      -4.182  -6.044  -0.254  0.00  0.00    -0.246 OA
ENDBRANCH  16  19
ENDBRANCH   7  11
BRANCH   1  26
ATOM     22  C   UNL     1       3.144   3.110   1.456  0.00  0.00    +0.044 C 
ATOM     23  C   UNL     1       2.876   1.645   1.226  0.00  0.00    -0.050 A 
ATOM     24  C   UNL     1       1.574   1.177   1.203  0.00  0.00    +0.004 A 
ATOM     25  C   UNL     1       1.324  -0.163   0.993  0.00  0.00    +0.010 A 
ATOM     26  C   UNL     1       2.385  -1.047   0.804  0.00  0.00    +0.001 A 
ATOM     27  C   UNL     1       3.695  -0.570   0.828  0.00  0.00    +0.010 A 
ATOM     28  C   UNL     1       3.933   0.773   1.039  0.00  0.00    +0.004 A 
ENDBRANCH   1  26
TORSDOF 3
