REMARK  Name = ZINC24713793
REMARK  13 active torsions:
REMARK  status: ('A' for Active; 'I' for Inactive)
REMARK    1  A    between atoms: C_1  and  C_2
REMARK    2  A    between atoms: C_2  and  C_35
REMARK    3  A    between atoms: C_3  and  C_4
REMARK    4  A    between atoms: C_6  and  C_11
REMARK    5  A    between atoms: C_8  and  C_9
REMARK    6  A    between atoms: C_8  and  C_10
REMARK    7  A    between atoms: N_13  and  N_14
REMARK    8  A    between atoms: C_15  and  C_17
REMARK    9  A    between atoms: C_21  and  S_23
REMARK   10  A    between atoms: S_23  and  N_26
REMARK   11  A    between atoms: N_26  and  C_27
REMARK   12  A    between atoms: C_32  and  O_33
REMARK   13  A    between atoms: O_33  and  C_34
REMARK                            x       y       z     vdW  Elec       q    Type
REMARK                         _______ _______ _______ _____ _____    ______ ____
ROOT
ATOM      1  C   UNL     1       1.415   2.112   0.746  0.00  0.00    +0.040 A 
ATOM      2  C   UNL     1       1.466   3.507   0.764  0.00  0.00    +0.013 A 
ATOM      3  C   UNL     1       2.666   4.152   0.543  0.00  0.00    +0.003 A 
ATOM      4  C   UNL     1       3.813   3.420   0.292  0.00  0.00    +0.029 A 
ATOM      5  C   UNL     1       3.767   2.038   0.268  0.00  0.00    +0.109 A 
ATOM      6  C   UNL     1       2.575   1.380   0.493  0.00  0.00    +0.042 A 
ENDROOT
BRANCH   1   8
ATOM      7  N   UNL     1      -0.986   2.124   1.226  0.00  0.00    -0.230 N 
ATOM      8  C   UNL     1       0.134   1.414   0.988  0.00  0.00    +0.260 C 
ATOM      9  O   UNL     1       0.091   0.199   0.966  0.00  0.00    -0.269 OA
ATOM     10  H   UNL     1      -0.947   3.223   1.245  0.00  0.00    +0.173 HD
BRANCH   7  13
ATOM     11  C   UNL     1      -3.321   2.172   1.688  0.00  0.00    +0.233 C 
ATOM     12  O   UNL     1      -3.278   3.384   1.709  0.00  0.00    -0.274 OA
ATOM     13  N   UNL     1      -2.201   1.462   1.449  0.00  0.00    -0.234 N 
ATOM     14  H   UNL     1      -2.240   0.363   1.430  0.00  0.00    +0.173 HD
BRANCH  11  16
ATOM     15  C   UNL     1      -5.653   1.463   0.792  0.00  0.00    +0.030 C 
ATOM     16  C   UNL     1      -4.628   1.461   1.928  0.00  0.00    +0.090 C 
ATOM     17  C   UNL     1      -5.890   2.319   2.039  0.00  0.00    -0.016 C 
ATOM     18  C   UNL     1      -6.973   1.859   3.016  0.00  0.00    +0.012 C 
ATOM     19  C   UNL     1      -5.729   3.833   1.897  0.00  0.00    +0.012 C 
BRANCH  15  22
ATOM     20  C   UNL     1      -7.312   1.202  -1.469  0.00  0.00    +0.038 C 
ATOM     21  C   UNL     1      -7.276   0.111  -0.430  0.00  0.00    -0.079 C 
ATOM     22  C   UNL     1      -6.505   0.232   0.621  0.00  0.00    -0.023 C 
ATOM     23  C   UNL     1      -8.129  -1.121  -0.602  0.00  0.00    +0.038 C 
ENDBRANCH  15  22
ENDBRANCH  11  16
ENDBRANCH   7  13
ENDBRANCH   1   8
BRANCH   5  24
ATOM     24  S   UNL     1       5.234   1.115  -0.052  0.00  0.00    +0.072 S 
ATOM     25  O   UNL     1       6.325   1.950   0.309  0.00  0.00    -0.150 OA
ATOM     26  O   UNL     1       5.037  -0.171   0.519  0.00  0.00    -0.150 OA
BRANCH  24  27
ATOM     27  N   UNL     1       5.327   0.897  -1.691  0.00  0.00    -0.213 N 
ATOM     28  H   UNL     1       5.315  -0.119  -2.112  0.00  0.00    +0.174 HD
BRANCH  27  29
ATOM     29  C   UNL     1       5.423   2.005  -2.540  0.00  0.00    +0.090 A 
ATOM     30  C   UNL     1       6.141   3.124  -2.145  0.00  0.00    +0.028 A 
ATOM     31  C   UNL     1       6.238   4.216  -2.988  0.00  0.00    +0.002 A 
ATOM     32  C   UNL     1       5.612   4.199  -4.221  0.00  0.00    +0.004 A 
ATOM     33  C   UNL     1       4.890   3.089  -4.619  0.00  0.00    +0.047 A 
ATOM     34  C   UNL     1       4.792   1.989  -3.783  0.00  0.00    +0.142 A 
BRANCH  34  35
ATOM     35  O   UNL     1       4.082   0.897  -4.173  0.00  0.00    -0.493 OA
ATOM     36  C   UNL     1       3.462   0.952  -5.459  0.00  0.00    +0.277 C 
ENDBRANCH  34  35
ENDBRANCH  27  29
ENDBRANCH  24  27
ENDBRANCH   5  24
TORSDOF 8
