REMARK  Name = ZINC39221210
REMARK  12 active torsions:
REMARK  status: ('A' for Active; 'I' for Inactive)
REMARK    1  A    between atoms: C_1  and  C_2
REMARK    2  A    between atoms: C_2  and  C_3
REMARK    3  A    between atoms: C_3  and  C_4
REMARK    4  A    between atoms: C_4  and  N_5
REMARK    5  A    between atoms: C_14  and  C_16
REMARK    6  A    between atoms: C_16  and  O_18
REMARK    7  A    between atoms: O_18  and  C_19
REMARK    8  A    between atoms: C_19  and  C_20
REMARK    9  A    between atoms: C_22  and  O_23
REMARK   10  A    between atoms: C_32  and  O_34
REMARK   11  A    between atoms: O_34  and  C_35
REMARK   12  A    between atoms: C_35  and  C_36
REMARK                            x       y       z     vdW  Elec       q    Type
REMARK                         _______ _______ _______ _____ _____    ______ ____
ROOT
ATOM      1  C   UNL     1      -4.466  -3.469   4.752  0.00  0.00    +0.269 C 
ENDROOT
BRANCH   1   2
ATOM      2  C   UNL     1      -3.857  -3.033   6.059  0.00  0.00    +0.007 A 
ATOM      3  C   UNL     1      -3.585  -1.700   6.301  0.00  0.00    +0.095 A 
ATOM      4  C   UNL     1      -3.024  -1.317   7.510  0.00  0.00    +0.285 A 
ATOM      5  O   UNL     1      -2.736  -2.215   8.460  0.00  0.00    -0.425 OA
ATOM      6  C   UNL     1      -2.981  -3.529   8.275  0.00  0.00    +0.141 A 
ATOM      7  C   UNL     1      -3.556  -3.975   7.064  0.00  0.00    +0.024 A 
ATOM      8  C   UNL     1      -3.818  -5.343   6.870  0.00  0.00    +0.014 A 
ATOM      9  C   UNL     1      -3.522  -6.236   7.850  0.00  0.00    +0.024 A 
ATOM     10  C   UNL     1      -2.953  -5.800   9.061  0.00  0.00    +0.040 A 
ATOM     11  C   UNL     1      -2.678  -4.446   9.265  0.00  0.00    +0.070 A 
ATOM     12  N   UNL     1      -2.661  -6.703  10.034  0.00  0.00    -0.251 N 
ATOM     13  C   UNL     1      -2.425  -6.290  11.272  0.00  0.00    +0.405 C 
ATOM     14  O   UNL     1      -2.592  -5.119  11.567  0.00  0.00    -0.226 OA
ATOM     15  H   UNL     1      -2.626  -7.649   9.823  0.00  0.00    +0.158 HD
BRANCH   4  16
ATOM     16  O   UNL     1      -2.764  -0.015   7.733  0.00  0.00    -0.480 OA
ATOM     17  H   UNL     1      -2.374   0.166   8.600  0.00  0.00    +0.295 HD
ENDBRANCH   4  16
BRANCH  13  18
ATOM     18  O   UNL     1      -1.998  -7.168  12.207  0.00  0.00    -0.450 OA
BRANCH  18  19
ATOM     19  C   UNL     1      -1.763  -6.655  13.520  0.00  0.00    +0.230 C 
ATOM     20  C   UNL     1      -1.290  -7.787  14.433  0.00  0.00    +0.048 C 
ENDBRANCH  18  19
ENDBRANCH  13  18
ENDBRANCH   1   2
BRANCH   1  21
ATOM     21  O   UNL     1      -3.656  -3.005   3.670  0.00  0.00    -0.455 OA
BRANCH  21  22
ATOM     22  C   UNL     1      -4.066  -3.313   2.423  0.00  0.00    +0.360 C 
ATOM     23  O   UNL     1      -5.082  -3.958   2.260  0.00  0.00    -0.243 OA
BRANCH  22  33
ATOM     24  N   UNL     1      -1.444  -1.748   0.469  0.00  0.00    -0.228 N 
ATOM     25  C   UNL     1      -1.713  -1.970  -0.834  0.00  0.00    +0.275 A 
ATOM     26  O   UNL     1      -0.976  -1.544  -1.704  0.00  0.00    -0.266 OA
ATOM     27  C   UNL     1      -2.916  -2.740  -1.179  0.00  0.00    +0.050 A 
ATOM     28  C   UNL     1      -3.282  -3.023  -2.491  0.00  0.00    +0.014 A 
ATOM     29  C   UNL     1      -4.428  -3.751  -2.730  0.00  0.00    +0.001 A 
ATOM     30  C   UNL     1      -5.215  -4.202  -1.679  0.00  0.00    +0.001 A 
ATOM     31  C   UNL     1      -4.870  -3.932  -0.372  0.00  0.00    +0.011 A 
ATOM     32  C   UNL     1      -3.718  -3.199  -0.108  0.00  0.00    +0.021 A 
ATOM     33  C   UNL     1      -3.279  -2.868   1.258  0.00  0.00    +0.176 A 
ATOM     34  N   UNL     1      -2.178  -2.175   1.425  0.00  0.00    -0.161 NA
BRANCH  24  35
ATOM     35  C   UNL     1      -0.243  -0.980   0.807  0.00  0.00    +0.147 C 
BRANCH  35  36
ATOM     36  C   UNL     1      -0.593   0.508   0.881  0.00  0.00    +0.023 C 
BRANCH  36  38
ATOM     37  C   UNL     1       0.312   2.797   1.309  0.00  0.00    +0.004 C 
ATOM     38  C   UNL     1       0.662   1.310   1.235  0.00  0.00    -0.002 C 
ENDBRANCH  36  38
ENDBRANCH  35  36
ENDBRANCH  24  35
ENDBRANCH  22  33
ENDBRANCH  21  22
ENDBRANCH   1  21
TORSDOF 10
