REMARK  Name = ZINC39041382
REMARK  11 active torsions:
REMARK  status: ('A' for Active; 'I' for Inactive)
REMARK    1  A    between atoms: C_1  and  C_2
REMARK    2  A    between atoms: C_2  and  C_3
REMARK    3  A    between atoms: C_2  and  C_4
REMARK    4  A    between atoms: C_2  and  O_5
REMARK    5  A    between atoms: O_5  and  C_6
REMARK    6  A    between atoms: N_8  and  C_9
REMARK    7  A    between atoms: C_9  and  C_11
REMARK    8  A    between atoms: C_9  and  C_21
REMARK    9  A    between atoms: C_11  and  C_12
REMARK   10  A    between atoms: C_21  and  O_23
REMARK   11  A    between atoms: O_23  and  C_24
REMARK                            x       y       z     vdW  Elec       q    Type
REMARK                         _______ _______ _______ _____ _____    ______ ____
ROOT
ATOM      1  C   UNL     1       4.043  -0.033  -2.594  0.00  0.00    +0.189 C 
ENDROOT
BRANCH   1   4
ATOM      2  C   UNL     1       1.972   0.035  -1.311  0.00  0.00    +0.401 C 
ATOM      3  O   UNL     1       2.534   0.739  -0.496  0.00  0.00    -0.226 OA
ATOM      4  N   UNL     1       2.639  -0.404  -2.397  0.00  0.00    -0.268 N 
ATOM      5  H   UNL     1       2.191  -0.967  -3.047  0.00  0.00    +0.153 HD
BRANCH   2   6
ATOM      6  O   UNL     1       0.683  -0.307  -1.130  0.00  0.00    -0.445 OA
BRANCH   6   8
ATOM      7  C   UNL     1       0.058   1.724   0.022  0.00  0.00    +0.055 C 
ATOM      8  C   UNL     1       0.037   0.194   0.043  0.00  0.00    +0.107 C 
ATOM      9  C   UNL     1       0.775  -0.310   1.285  0.00  0.00    +0.055 C 
ATOM     10  C   UNL     1      -1.412  -0.296   0.076  0.00  0.00    +0.055 C 
ENDBRANCH   6   8
ENDBRANCH   2   6
ENDBRANCH   1   4
BRANCH   1  11
ATOM     11  C   UNL     1       4.863  -0.535  -1.434  0.00  0.00    +0.333 C 
ATOM     12  O   UNL     1       4.326  -0.809  -0.387  0.00  0.00    -0.248 OA
BRANCH  11  13
ATOM     13  O   UNL     1       6.192  -0.677  -1.564  0.00  0.00    -0.425 OA
BRANCH  13  14
ATOM     14  C   UNL     1       6.906  -1.035  -0.463  0.00  0.00    +0.133 A 
ATOM     15  C   UNL     1       6.896  -2.357  -0.032  0.00  0.00    +0.048 A 
ATOM     16  C   UNL     1       7.620  -2.736   1.081  0.00  0.00    +0.027 A 
ATOM     17  C   UNL     1       8.361  -1.794   1.778  0.00  0.00    +0.041 A 
ATOM     18  C   UNL     1       8.367  -0.456   1.349  0.00  0.00    +0.061 A 
ATOM     19  C   UNL     1       7.644  -0.084   0.219  0.00  0.00    +0.061 A 
ATOM     20  C   UNL     1       9.146   0.539   2.118  0.00  0.00    +0.250 C 
ATOM     21  O   UNL     1       9.300   1.675   1.714  0.00  0.00    -0.270 OA
ATOM     22  N   UNL     1       9.680   0.128   3.290  0.00  0.00    -0.279 N 
ATOM     23  C   UNL     1      10.696   0.809   4.095  0.00  0.00    +0.110 C 
ATOM     24  C   UNL     1      11.046  -0.127   5.273  0.00  0.00    +0.022 C 
ATOM     25  C   UNL     1      10.589  -1.520   4.763  0.00  0.00    +0.044 C 
ATOM     26  C   UNL     1       9.329  -1.150   3.946  0.00  0.00    +0.161 C 
ATOM     27  N   UNL     1       9.107  -2.156   2.899  0.00  0.00    -0.325 N 
ATOM     28  H   UNL     1       9.470  -3.051   2.986  0.00  0.00    +0.148 HD
ENDBRANCH  13  14
ENDBRANCH  11  13
ENDBRANCH   1  11
BRANCH   1  29
ATOM     29  C   UNL     1       4.159   1.491  -2.679  0.00  0.00    +0.071 C 
BRANCH  29  30
ATOM     30  C   UNL     1       3.440   1.981  -3.909  0.00  0.00    -0.020 A 
ATOM     31  C   UNL     1       2.010   2.279  -4.022  0.00  0.00    +0.003 A 
ATOM     32  C   UNL     1       0.934   2.221  -3.135  0.00  0.00    +0.010 A 
ATOM     33  C   UNL     1      -0.315   2.576  -3.559  0.00  0.00    +0.001 A 
ATOM     34  C   UNL     1      -0.523   2.994  -4.866  0.00  0.00    +0.002 A 
ATOM     35  C   UNL     1       0.524   3.059  -5.759  0.00  0.00    +0.026 A 
ATOM     36  C   UNL     1       1.804   2.702  -5.348  0.00  0.00    +0.047 A 
ATOM     37  N   UNL     1       3.026   2.660  -5.982  0.00  0.00    -0.360 N 
ATOM     38  C   UNL     1       3.989   2.234  -5.108  0.00  0.00    +0.087 A 
ATOM     39  H   UNL     1       3.182   2.900  -6.909  0.00  0.00    +0.165 HD
ENDBRANCH  29  30
ENDBRANCH   1  29
TORSDOF 8
