REMARK  Name = ZINC09489974
REMARK  9 active torsions:
REMARK  status: ('A' for Active; 'I' for Inactive)
REMARK    1  A    between atoms: C_1  and  C_2
REMARK    2  A    between atoms: C_2  and  C_3
REMARK    3  A    between atoms: C_2  and  C_4
REMARK    4  A    between atoms: C_2  and  C_5
REMARK    5  A    between atoms: C_12  and  N_16
REMARK    6  A    between atoms: C_13  and  C_14
REMARK    7  A    between atoms: C_17  and  C_19
REMARK    8  A    between atoms: C_25  and  C_34
REMARK    9  A    between atoms: C_28  and  C_30
REMARK                            x       y       z     vdW  Elec       q    Type
REMARK                         _______ _______ _______ _____ _____    ______ ____
ROOT
ATOM      1  N   UNL     1       5.690  -1.800  -5.015  0.00  0.00    -0.275 N 
ATOM      2  C   UNL     1       6.741  -0.957  -5.060  0.00  0.00    +0.253 C 
ATOM      3  O   UNL     1       6.773   0.015  -4.329  0.00  0.00    -0.270 OA
ATOM      4  H   UNL     1       5.665  -2.575  -5.598  0.00  0.00    +0.156 HD
ENDROOT
BRANCH   2   5
ATOM      5  C   UNL     1       7.846  -1.212  -5.991  0.00  0.00    +0.096 A 
ATOM      6  C   UNL     1       7.952  -2.291  -6.905  0.00  0.00    +0.149 A 
ATOM      7  N   UNL     1       9.077  -2.168  -7.555  0.00  0.00    -0.177 NA
ATOM      8  N   UNL     1       9.743  -1.029  -7.106  0.00  0.00    -0.238 N 
ATOM      9  C   UNL     1       8.984  -0.442  -6.151  0.00  0.00    +0.130 A 
ATOM     10  N   UNL     1       9.361   0.718  -5.497  0.00  0.00    -0.319 N 
ATOM     11  C   UNL     1      10.762   1.145  -5.682  0.00  0.00    +0.140 C 
ATOM     12  C   UNL     1      11.128   0.981  -7.162  0.00  0.00    +0.066 C 
ATOM     13  C   UNL     1      11.036  -0.501  -7.554  0.00  0.00    +0.215 C 
ATOM     14  H   UNL     1       8.739   1.222  -4.949  0.00  0.00    +0.148 HD
BRANCH  11  15
ATOM     15  C   UNL     1      10.909   2.589  -5.277  0.00  0.00    +0.125 A 
ATOM     16  C   UNL     1      11.949   3.115  -4.605  0.00  0.00    +0.046 A 
ATOM     17  C   UNL     1      11.674   4.492  -4.439  0.00  0.00    +0.041 A 
ATOM     18  C   UNL     1      10.483   4.724  -5.019  0.00  0.00    +0.195 A 
ATOM     19  O   UNL     1      10.027   3.569  -5.530  0.00  0.00    -0.466 OA
ENDBRANCH  11  15
BRANCH  13  20
ATOM     20  C   UNL     1      11.141  -0.624  -9.076  0.00  0.00    +0.412 C 
ATOM     21  F   UNL     1      10.108   0.105  -9.675  0.00  0.00    -0.168 F 
ATOM     22  F   UNL     1      12.375  -0.120  -9.501  0.00  0.00    -0.168 F 
ATOM     23  F   UNL     1      11.036  -1.970  -9.443  0.00  0.00    -0.168 F 
ENDBRANCH  13  20
ENDBRANCH   2   5
BRANCH   1  30
ATOM     24  C   UNL     1       0.718  -0.497  -1.257  0.00  0.00    -0.000 C 
ATOM     25  C   UNL     1       0.745  -2.029  -1.264  0.00  0.00    +0.009 C 
ATOM     26  C   UNL     1       1.234  -2.534  -2.624  0.00  0.00    +0.037 C 
ATOM     27  C   UNL     1       2.546  -1.840  -2.959  0.00  0.00    -0.018 A 
ATOM     28  C   UNL     1       2.920  -0.705  -2.331  0.00  0.00    -0.004 A 
ATOM     29  S   UNL     1       4.484  -0.290  -3.047  0.00  0.00    -0.077 S 
ATOM     30  C   UNL     1       4.645  -1.559  -4.135  0.00  0.00    +0.090 A 
ATOM     31  C   UNL     1       3.495  -2.310  -3.953  0.00  0.00    +0.084 A 
ATOM     32  C   UNL     1       2.161   0.028  -1.267  0.00  0.00    +0.047 C 
BRANCH  24  34
ATOM     33  C   UNL     1      -0.019   1.526   0.010  0.00  0.00    +0.011 C 
ATOM     34  C   UNL     1       0.002  -0.004   0.002  0.00  0.00    -0.035 C 
ATOM     35  C   UNL     1       0.742  -0.511   1.242  0.00  0.00    +0.011 C 
ATOM     36  C   UNL     1      -1.433  -0.534   0.013  0.00  0.00    +0.011 C 
ENDBRANCH  24  34
BRANCH  31  37
ATOM     37  C   UNL     1       3.253  -3.500  -4.712  0.00  0.00    +0.102 C 
ATOM     38  N   UNL     1       3.062  -4.444  -5.314  0.00  0.00    -0.191 NA
ENDBRANCH  31  37
ENDBRANCH   1  30
TORSDOF 6
