REMARK  Name = ZINC07991220
REMARK  7 active torsions:
REMARK  status: ('A' for Active; 'I' for Inactive)
REMARK    1  A    between atoms: C_1  and  N_2
REMARK    2  A    between atoms: C_6  and  C_23
REMARK    3  A    between atoms: C_8  and  C_16
REMARK    4  A    between atoms: C_10  and  C_11
REMARK    5  A    between atoms: C_10  and  O_15
REMARK    6  A    between atoms: C_16  and  C_18
REMARK    7  A    between atoms: C_27  and  O_29
REMARK                            x       y       z     vdW  Elec       q    Type
REMARK                         _______ _______ _______ _____ _____    ______ ____
ROOT
ATOM      1  C   UNL     1      -0.559   1.034  -1.837  0.00  0.00    +0.137 C 
ATOM      2  N   UNL     1      -0.368  -0.269  -1.195  0.00  0.00    -0.253 N 
ATOM      3  C   UNL     1      -0.147  -1.351  -1.957  0.00  0.00    +0.305 C 
ATOM      4  O   UNL     1      -0.122  -1.218  -3.166  0.00  0.00    -0.253 OA
ATOM      5  N   UNL     1       0.048  -2.572  -1.439  0.00  0.00    -0.292 N 
ATOM      6  C   UNL     1       0.018  -2.800   0.007  0.00  0.00    +0.120 C 
ATOM      7  C   UNL     1       0.468  -1.524   0.726  0.00  0.00    +0.145 C 
ATOM      8  C   UNL     1      -0.416  -0.363   0.265  0.00  0.00    +0.245 C 
ATOM      9  H   UNL     1       0.212  -3.321  -2.034  0.00  0.00    +0.151 HD
ENDROOT
BRANCH   6  10
ATOM     10  C   UNL     1      -1.384  -3.152   0.432  0.00  0.00    -0.023 A 
ATOM     11  C   UNL     1      -2.459  -2.773  -0.350  0.00  0.00    +0.006 A 
ATOM     12  C   UNL     1      -3.747  -3.095   0.037  0.00  0.00    +0.004 A 
ATOM     13  C   UNL     1      -3.962  -3.795   1.208  0.00  0.00    +0.045 A 
ATOM     14  C   UNL     1      -2.885  -4.176   1.995  0.00  0.00    +0.117 A 
ATOM     15  C   UNL     1      -1.593  -3.857   1.601  0.00  0.00    +0.051 A 
BRANCH  14  16
ATOM     16  O   UNL     1      -3.094  -4.865   3.148  0.00  0.00    -0.507 OA
ATOM     17  H   UNL     1      -3.099  -5.825   3.037  0.00  0.00    +0.292 HD
ENDBRANCH  14  16
ENDBRANCH   6  10
BRANCH   8  18
ATOM     18  C   UNL     1       0.092   0.943   0.878  0.00  0.00    +0.436 C 
ATOM     19  F   UNL     1      -0.805   1.976   0.585  0.00  0.00    -0.166 F 
ATOM     20  F   UNL     1       0.198   0.796   2.265  0.00  0.00    -0.166 F 
ATOM     21  F   UNL     1       1.348   1.251   0.345  0.00  0.00    -0.166 F 
ENDBRANCH   8  18
BRANCH   8  22
ATOM     22  O   UNL     1      -1.761  -0.598   0.684  0.00  0.00    -0.364 OA
ATOM     23  H   UNL     1      -2.382   0.096   0.423  0.00  0.00    +0.212 HD
ENDBRANCH   8  22
BRANCH   7  24
ATOM     24  C   UNL     1       1.906  -1.230   0.384  0.00  0.00    +0.180 C 
ATOM     25  O   UNL     1       2.171  -0.465  -0.521  0.00  0.00    -0.291 OA
BRANCH  24  26
ATOM     26  C   UNL     1       2.946  -1.845   1.116  0.00  0.00    +0.055 A 
ATOM     27  C   UNL     1       4.323  -1.708   0.968  0.00  0.00    +0.019 A 
ATOM     28  C   UNL     1       5.090  -2.441   1.837  0.00  0.00    +0.008 A 
ATOM     29  C   UNL     1       4.476  -3.229   2.757  0.00  0.00    +0.046 A 
ATOM     30  S   UNL     1       2.837  -2.992   2.475  0.00  0.00    -0.094 S 
ENDBRANCH  24  26
ENDBRANCH   7  24
TORSDOF 6
