REMARK  Name = ZINC09816264
REMARK  10 active torsions:
REMARK  status: ('A' for Active; 'I' for Inactive)
REMARK    1  A    between atoms: C_1  and  C_2
REMARK    2  A    between atoms: C_2  and  C_3
REMARK    3  A    between atoms: C_2  and  S_4
REMARK    4  A    between atoms: S_4  and  C_5
REMARK    5  A    between atoms: C_8  and  C_11
REMARK    6  A    between atoms: C_17  and  C_19
REMARK    7  A    between atoms: N_22  and  S_25
REMARK    8  A    between atoms: S_25  and  C_28
REMARK    9  A    between atoms: C_31  and  O_34
REMARK   10  A    between atoms: O_34  and  C_35
REMARK                            x       y       z     vdW  Elec       q    Type
REMARK                         _______ _______ _______ _____ _____    ______ ____
ROOT
ATOM      1  C   UNL     1       1.897  -6.051  -2.782  0.00  0.00    +0.250 A 
ATOM      2  N   UNL     1       1.322  -5.991  -1.605  0.00  0.00    -0.106 NA
ATOM      3  N   UNL     1       1.067  -4.764  -1.316  0.00  0.00    -0.092 NA
ATOM      4  C   UNL     1       1.460  -3.992  -2.300  0.00  0.00    +0.314 A 
ATOM      5  O   UNL     1       1.997  -4.786  -3.246  0.00  0.00    -0.405 OA
ATOM      6  N   UNL     1       1.350  -2.611  -2.354  0.00  0.00    -0.238 N 
ATOM      7  C   UNL     1       0.788  -1.940  -1.329  0.00  0.00    +0.224 C 
ATOM      8  O   UNL     1       0.379  -2.543  -0.361  0.00  0.00    -0.275 OA
ATOM      9  H   UNL     1       1.678  -2.128  -3.129  0.00  0.00    +0.159 HD
ENDROOT
BRANCH   1  13
ATOM     10  C   UNL     1       3.207  -9.570  -4.769  0.00  0.00    +0.008 A 
ATOM     11  C   UNL     1       2.610  -9.662  -3.515  0.00  0.00    +0.015 A 
ATOM     12  C   UNL     1       2.184  -8.522  -2.869  0.00  0.00    +0.014 A 
ATOM     13  C   UNL     1       2.353  -7.274  -3.473  0.00  0.00    +0.039 A 
ATOM     14  C   UNL     1       2.948  -7.186  -4.733  0.00  0.00    +0.014 A 
ATOM     15  C   UNL     1       3.376  -8.328  -5.373  0.00  0.00    +0.015 A 
BRANCH  10  16
ATOM     16  S   UNL     1       3.749 -11.030  -5.593  0.00  0.00    -0.122 S 
BRANCH  16  18
ATOM     17  C   UNL     1       5.915  -9.722  -6.632  0.00  0.00    +0.019 C 
ATOM     18  C   UNL     1       4.616 -10.409  -7.060  0.00  0.00    +0.045 C 
ATOM     19  C   UNL     1       4.941 -11.578  -7.993  0.00  0.00    +0.019 C 
ENDBRANCH  16  18
ENDBRANCH  10  16
ENDBRANCH   1  13
BRANCH   7  20
ATOM     20  C   UNL     1       0.668  -0.439  -1.388  0.00  0.00    +0.078 C 
ATOM     21  C   UNL     1      -0.001   0.070  -0.109  0.00  0.00    +0.030 C 
ATOM     22  C   UNL     1      -0.152   1.592  -0.187  0.00  0.00    +0.110 C 
ATOM     23  N   UNL     1       1.165   2.185  -0.456  0.00  0.00    -0.177 NA
ATOM     24  C   UNL     1       1.935   1.703  -1.611  0.00  0.00    +0.110 C 
ATOM     25  C   UNL     1       2.063   0.179  -1.516  0.00  0.00    +0.030 C 
BRANCH  23  26
ATOM     26  S   UNL     1       1.771   3.374   0.525  0.00  0.00    +0.061 S 
ATOM     27  O   UNL     1       2.710   4.103  -0.253  0.00  0.00    -0.153 OA
ATOM     28  O   UNL     1       0.655   3.993   1.150  0.00  0.00    -0.153 OA
BRANCH  26  29
ATOM     29  C   UNL     1       2.686   2.579   1.804  0.00  0.00    +0.106 A 
ATOM     30  C   UNL     1       2.057   2.219   2.982  0.00  0.00    +0.032 A 
ATOM     31  C   UNL     1       2.770   1.590   3.983  0.00  0.00    +0.047 A 
ATOM     32  C   UNL     1       4.122   1.329   3.812  0.00  0.00    +0.120 A 
ATOM     33  C   UNL     1       4.752   1.696   2.631  0.00  0.00    +0.047 A 
ATOM     34  C   UNL     1       4.033   2.320   1.630  0.00  0.00    +0.032 A 
BRANCH  32  35
ATOM     35  O   UNL     1       4.827   0.716   4.798  0.00  0.00    -0.495 OA
ATOM     36  C   UNL     1       4.114   0.367   5.985  0.00  0.00    +0.277 C 
ENDBRANCH  32  35
ENDBRANCH  26  29
ENDBRANCH  23  26
ENDBRANCH   7  20
TORSDOF 7
