REMARK  Name = ZINC08456265
REMARK  9 active torsions:
REMARK  status: ('A' for Active; 'I' for Inactive)
REMARK    1  A    between atoms: C_1  and  C_2
REMARK    2  A    between atoms: C_2  and  N_3
REMARK    3  A    between atoms: N_3  and  C_4
REMARK    4  A    between atoms: N_3  and  C_6
REMARK    5  A    between atoms: C_4  and  C_5
REMARK    6  A    between atoms: C_9  and  C_12
REMARK    7  A    between atoms: C_17  and  C_36
REMARK    8  A    between atoms: C_17  and  C_37
REMARK    9  A    between atoms: C_28  and  C_30
REMARK                            x       y       z     vdW  Elec       q    Type
REMARK                         _______ _______ _______ _____ _____    ______ ____
ROOT
ATOM      1  C   UNL     1      -0.264  -5.815  -1.233  0.00  0.00    +0.147 C 
ATOM      2  C   UNL     1       0.922  -6.049  -2.137  0.00  0.00    +0.037 C 
ATOM      3  C   UNL     1       2.171  -5.968  -1.475  0.00  0.00    +0.163 C 
ATOM      4  C   UNL     1       3.473  -6.143  -2.198  0.00  0.00    +0.086 C 
ATOM      5  C   UNL     1       3.284  -5.705  -3.655  0.00  0.00    -0.023 C 
ATOM      6  C   UNL     1       2.147  -6.537  -4.247  0.00  0.00    +0.058 C 
ATOM      7  C   UNL     1       0.871  -6.314  -3.454  0.00  0.00    +0.017 C 
ATOM      8  N   UNL     1      -0.274  -6.418  -4.176  0.00  0.00    -0.316 N 
ATOM      9  C   UNL     1      -1.335  -5.525  -4.119  0.00  0.00    +0.053 A 
ATOM     10  C   UNL     1      -1.707  -4.744  -5.200  0.00  0.00    +0.025 A 
ATOM     11  C   UNL     1      -2.806  -3.910  -5.089  0.00  0.00    +0.002 A 
ATOM     12  C   UNL     1      -3.526  -3.858  -3.909  0.00  0.00    +0.002 A 
ATOM     13  C   UNL     1      -3.146  -4.625  -2.822  0.00  0.00    +0.025 A 
ATOM     14  C   UNL     1      -2.033  -5.444  -2.923  0.00  0.00    +0.059 A 
ATOM     15  N   UNL     1      -1.542  -6.147  -1.825  0.00  0.00    -0.254 N 
ATOM     16  C   UNL     1      -2.274  -7.151  -1.303  0.00  0.00    +0.252 C 
ATOM     17  O   UNL     1      -1.880  -7.741  -0.316  0.00  0.00    -0.270 OA
ATOM     18  C   UNL     1       2.920  -4.220  -3.707  0.00  0.00    +0.011 C 
ATOM     19  C   UNL     1       4.572  -5.952  -4.442  0.00  0.00    +0.011 C 
ATOM     20  O   UNL     1       2.188  -5.747  -0.280  0.00  0.00    -0.292 OA
ATOM     21  H   UNL     1      -0.356  -7.174  -4.779  0.00  0.00    +0.152 HD
ENDROOT
BRANCH   1  25
ATOM     22  C   UNL     1      -0.323  -1.692  -0.118  0.00  0.00    +0.013 A 
ATOM     23  C   UNL     1      -0.533  -2.054  -1.435  0.00  0.00    +0.022 A 
ATOM     24  C   UNL     1      -0.514  -3.389  -1.796  0.00  0.00    +0.007 A 
ATOM     25  C   UNL     1      -0.284  -4.360  -0.840  0.00  0.00    -0.022 A 
ATOM     26  C   UNL     1      -0.073  -3.997   0.477  0.00  0.00    +0.007 A 
ATOM     27  C   UNL     1      -0.088  -2.663   0.837  0.00  0.00    +0.022 A 
BRANCH  22  28
ATOM     28  N   UNL     1      -0.342  -0.342   0.247  0.00  0.00    -0.394 NA
ATOM     29  H   UNL     1      -0.168  -0.259   1.238  0.00  0.00    +0.126 HD
BRANCH  28  31
ATOM     30  C   UNL     1       2.077  -0.124  -0.065  0.00  0.00    +0.022 C 
ATOM     31  C   UNL     1       0.699   0.381  -0.496  0.00  0.00    +0.081 C 
ENDBRANCH  28  31
BRANCH  28  32
ATOM     32  C   UNL     1      -1.657   0.232  -0.068  0.00  0.00    +0.081 C 
ATOM     33  C   UNL     1      -2.723  -0.417   0.818  0.00  0.00    +0.022 C 
ENDBRANCH  28  32
ENDBRANCH  22  28
ENDBRANCH   1  25
BRANCH  16  34
ATOM     34  C   UNL     1      -3.556  -7.535  -1.931  0.00  0.00    +0.037 A 
ATOM     35  C   UNL     1      -3.796  -7.237  -3.273  0.00  0.00    +0.013 A 
ATOM     36  C   UNL     1      -4.995  -7.598  -3.853  0.00  0.00    +0.001 A 
ATOM     37  C   UNL     1      -5.958  -8.254  -3.107  0.00  0.00    +0.000 A 
ATOM     38  C   UNL     1      -5.726  -8.553  -1.776  0.00  0.00    +0.001 A 
ATOM     39  C   UNL     1      -4.530  -8.203  -1.186  0.00  0.00    +0.013 A 
ENDBRANCH  16  34
TORSDOF 5
