REMARK  Name = ZINC57607141
REMARK  12 active torsions:
REMARK  status: ('A' for Active; 'I' for Inactive)
REMARK    1  A    between atoms: C_1  and  C_2
REMARK    2  A    between atoms: C_2  and  N_3
REMARK    3  A    between atoms: C_4  and  C_6
REMARK    4  A    between atoms: C_6  and  N_7
REMARK    5  A    between atoms: N_7  and  C_8
REMARK    6  A    between atoms: C_8  and  C_9
REMARK    7  A    between atoms: C_10  and  C_12
REMARK    8  A    between atoms: N_18  and  C_29
REMARK    9  A    between atoms: C_19  and  C_21
REMARK   10  A    between atoms: C_26  and  O_27
REMARK   11  A    between atoms: O_27  and  C_28
REMARK   12  A    between atoms: C_32  and  C_35
REMARK                            x       y       z     vdW  Elec       q    Type
REMARK                         _______ _______ _______ _____ _____    ______ ____
ROOT
ATOM      1  C   UNL     1      -2.845  -5.974  -1.325  0.00  0.00    +0.101 C 
ATOM      2  C   UNL     1      -1.686  -6.623  -0.558  0.00  0.00    +0.024 C 
ATOM      3  C   UNL     1      -1.813  -8.143  -0.684  0.00  0.00    +0.097 C 
ATOM      4  C   UNL     1      -2.025  -8.521  -2.122  0.00  0.00    +0.220 C 
ATOM      5  O   UNL     1      -1.825  -9.671  -2.449  0.00  0.00    -0.275 OA
ATOM      6  N   UNL     1      -2.422  -7.659  -3.059  0.00  0.00    -0.263 N 
ATOM      7  C   UNL     1      -2.657  -6.240  -2.819  0.00  0.00    +0.127 C 
ENDROOT
BRANCH   6   8
ATOM      8  C   UNL     1      -2.628  -8.146  -4.354  0.00  0.00    +0.037 A 
ATOM      9  C   UNL     1      -1.960  -7.574  -5.428  0.00  0.00    +0.024 A 
ATOM     10  C   UNL     1      -2.166  -8.058  -6.705  0.00  0.00    +0.005 A 
ATOM     11  C   UNL     1      -3.037  -9.111  -6.915  0.00  0.00    -0.050 A 
ATOM     12  C   UNL     1      -3.704  -9.683  -5.848  0.00  0.00    +0.005 A 
ATOM     13  C   UNL     1      -3.498  -9.208  -4.567  0.00  0.00    +0.024 A 
ATOM     14  C   UNL     1      -3.260  -9.636  -8.310  0.00  0.00    +0.044 C 
ENDBRANCH   6   8
BRANCH   7  15
ATOM     15  C   UNL     1      -3.894  -5.804  -3.562  0.00  0.00    +0.016 A 
ATOM     16  C   UNL     1      -4.936  -6.691  -3.750  0.00  0.00    +0.009 A 
ATOM     17  C   UNL     1      -6.071  -6.292  -4.431  0.00  0.00    +0.001 A 
ATOM     18  C   UNL     1      -6.166  -5.004  -4.926  0.00  0.00    +0.004 A 
ATOM     19  C   UNL     1      -5.127  -4.113  -4.740  0.00  0.00    +0.046 A 
ATOM     20  C   UNL     1      -3.990  -4.510  -4.052  0.00  0.00    +0.125 A 
BRANCH  20  21
ATOM     21  O   UNL     1      -2.969  -3.633  -3.862  0.00  0.00    -0.495 OA
ATOM     22  C   UNL     1      -3.136  -2.317  -4.394  0.00  0.00    +0.277 C 
ENDBRANCH  20  21
ENDBRANCH   7  15
BRANCH   1  24
ATOM     23  N   UNL     1      -3.882  -3.921  -0.417  0.00  0.00    -0.293 N 
ATOM     24  C   UNL     1      -2.850  -4.489  -1.072  0.00  0.00    +0.221 C 
ATOM     25  O   UNL     1      -1.926  -3.805  -1.457  0.00  0.00    -0.275 OA
BRANCH  23  26
ATOM     26  C   UNL     1      -4.936  -4.760   0.159  0.00  0.00    +0.105 C 
ATOM     27  C   UNL     1      -6.096  -4.873  -0.832  0.00  0.00    +0.024 C 
ENDBRANCH  23  26
BRANCH  23  28
ATOM     28  C   UNL     1      -3.950  -2.463  -0.281  0.00  0.00    +0.203 C 
BRANCH  28  30
ATOM     29  N   UNL     1      -3.180  -0.739   1.316  0.00  0.00    -0.314 N 
ATOM     30  C   UNL     1      -3.245  -2.043   0.982  0.00  0.00    +0.230 C 
ATOM     31  O   UNL     1      -2.736  -2.878   1.699  0.00  0.00    -0.274 OA
ATOM     32  H   UNL     1      -3.587  -0.071   0.743  0.00  0.00    +0.149 HD
BRANCH  29  34
ATOM     33  C   UNL     1      -2.566   1.192   2.686  0.00  0.00    +0.024 C 
ATOM     34  C   UNL     1      -2.495  -0.330   2.545  0.00  0.00    +0.101 C 
ENDBRANCH  29  34
ENDBRANCH  28  30
ENDBRANCH  23  28
ENDBRANCH   1  24
TORSDOF 8
