REMARK  Name = ZINC12194590
REMARK  9 active torsions:
REMARK  status: ('A' for Active; 'I' for Inactive)
REMARK    1  A    between atoms: C_1  and  C_2
REMARK    2  A    between atoms: C_2  and  C_3
REMARK    3  A    between atoms: C_3  and  C_4
REMARK    4  A    between atoms: C_4  and  C_19
REMARK    5  A    between atoms: N_7  and  C_11
REMARK    6  A    between atoms: C_11  and  C_12
REMARK    7  A    between atoms: C_12  and  C_13
REMARK    8  A    between atoms: C_18  and  N_74
REMARK    9  A    between atoms: C_25  and  C_27
REMARK                            x       y       z     vdW  Elec       q    Type
REMARK                         _______ _______ _______ _____ _____    ______ ____
ROOT
ATOM      1  C   UNL     1       4.910  -3.539   0.208  0.00  0.00    +0.115 C 
ATOM      2  C   UNL     1       3.485  -3.291   0.658  0.00  0.00    +0.247 C 
ATOM      3  O   UNL     1       2.899  -3.836   1.569  0.00  0.00    -0.273 OA
ATOM      4  N   UNL     1       3.002  -2.339  -0.165  0.00  0.00    -0.224 N 
ATOM      5  C   UNL     1       3.915  -1.959  -1.067  0.00  0.00    +0.309 C 
ATOM      6  O   UNL     1       3.712  -1.116  -1.919  0.00  0.00    -0.252 OA
ATOM      7  N   UNL     1       5.083  -2.611  -0.923  0.00  0.00    -0.285 N 
ATOM      8  H   UNL     1       5.881  -2.494  -1.461  0.00  0.00    +0.151 HD
ENDROOT
BRANCH   1   9
ATOM      9  C   UNL     1       5.895  -3.207   1.331  0.00  0.00    +0.024 C 
ATOM     10  C   UNL     1       5.693  -4.184   2.492  0.00  0.00    +0.025 C 
ATOM     11  C   UNL     1       6.703  -3.870   3.600  0.00  0.00    +0.108 C 
ATOM     12  N   UNL     1       6.572  -2.455   3.973  0.00  0.00    -0.297 N 
ATOM     13  C   UNL     1       6.660  -1.436   2.918  0.00  0.00    +0.108 C 
ATOM     14  C   UNL     1       5.650  -1.776   1.818  0.00  0.00    +0.025 C 
ATOM     15  C   UNL     1       6.375  -2.099   5.257  0.00  0.00    +0.250 C 
ATOM     16  O   UNL     1       6.346  -0.923   5.565  0.00  0.00    -0.270 OA
BRANCH  15  17
ATOM     17  C   UNL     1       6.194  -3.134   6.289  0.00  0.00    +0.085 A 
ATOM     18  C   UNL     1       6.976  -4.231   6.511  0.00  0.00    +0.209 A 
ATOM     19  O   UNL     1       6.474  -4.924   7.544  0.00  0.00    -0.466 OA
ATOM     20  C   UNL     1       5.383  -4.342   8.034  0.00  0.00    +0.116 A 
ATOM     21  C   UNL     1       5.141  -3.207   7.303  0.00  0.00    +0.070 A 
ATOM     22  C   UNL     1       3.998  -2.329   7.573  0.00  0.00    +0.167 C 
ATOM     23  O   UNL     1       3.885  -1.234   7.063  0.00  0.00    -0.292 OA
ATOM     24  C   UNL     1       2.968  -2.888   8.544  0.00  0.00    +0.080 C 
ATOM     25  C   UNL     1       3.714  -3.569   9.695  0.00  0.00    +0.016 C 
ATOM     26  C   UNL     1       4.511  -4.773   9.185  0.00  0.00    +0.075 C 
ENDBRANCH  15  17
ENDBRANCH   1   9
BRANCH   1  27
ATOM     27  C   UNL     1       5.087  -4.988  -0.249  0.00  0.00    +0.035 C 
BRANCH  27  29
ATOM     28  C   UNL     1       4.397  -6.692  -1.942  0.00  0.00    +0.004 C 
ATOM     29  C   UNL     1       4.221  -5.242  -1.484  0.00  0.00    -0.001 C 
ENDBRANCH  27  29
ENDBRANCH   1  27
BRANCH   4  30
ATOM     30  C   UNL     1       1.645  -1.793  -0.087  0.00  0.00    +0.116 C 
BRANCH  30  31
ATOM     31  C   UNL     1       1.636  -0.583   0.849  0.00  0.00    +0.004 C 
BRANCH  31  32
ATOM     32  C   UNL     1       0.200  -0.083   1.021  0.00  0.00    -0.068 C 
ATOM     33  C   UNL     1      -0.654  -1.167   1.710  0.00  0.00    -0.017 C 
ATOM     34  C   UNL     1      -1.569  -0.344   2.654  0.00  0.00    -0.020 C 
ATOM     35  C   UNL     1      -0.618   0.796   3.097  0.00  0.00    -0.079 C 
ATOM     36  C   UNL     1       1.549   1.508   2.261  0.00  0.00    -0.096 C 
ATOM     37  N   UNL     1       0.167   1.109   1.888  0.00  0.00    +0.380 N 
ATOM     38  H   UNL     1      -0.281   1.884   1.384  0.00  0.00    -0.082 HD
ENDBRANCH  31  32
ENDBRANCH  30  31
ENDBRANCH   4  30
TORSDOF 7
