REMARK  Name = ZINC61312258
REMARK  8 active torsions:
REMARK  status: ('A' for Active; 'I' for Inactive)
REMARK    1  A    between atoms: C_1  and  C_2
REMARK    2  A    between atoms: C_2  and  C_3
REMARK    3  A    between atoms: C_3  and  N_4
REMARK    4  A    between atoms: N_4  and  C_5
REMARK    5  A    between atoms: C_5  and  C_6
REMARK    6  A    between atoms: C_9  and  C_12
REMARK    7  A    between atoms: C_13  and  C_15
REMARK    8  A    between atoms: C_15  and  N_16
REMARK                            x       y       z     vdW  Elec       q    Type
REMARK                         _______ _______ _______ _____ _____    ______ ____
ROOT
ATOM      1  C   UNL     1      -1.438  -1.906  -2.467  0.00  0.00    +0.213 C 
ENDROOT
BRANCH   1   2
ATOM      2  N   UNL     1      -1.436  -2.848  -3.582  0.00  0.00    -0.215 N 
ATOM      3  C   UNL     1      -0.333  -3.368  -4.165  0.00  0.00    +0.247 C 
ATOM      4  O   UNL     1       0.785  -3.444  -3.718  0.00  0.00    -0.273 OA
ATOM      5  C   UNL     1      -0.809  -3.802  -5.541  0.00  0.00    +0.113 C 
ATOM      6  C   UNL     1      -0.793  -2.584  -6.463  0.00  0.00    +0.035 C 
ATOM      7  C   UNL     1      -0.867  -2.990  -7.935  0.00  0.00    +0.003 C 
ATOM      8  C   UNL     1      -2.308  -3.259  -8.405  0.00  0.00    +0.000 C 
ATOM      9  C   UNL     1      -2.741  -4.638  -7.876  0.00  0.00    +0.000 C 
ATOM     10  C   UNL     1      -1.594  -5.637  -8.040  0.00  0.00    +0.000 C 
ATOM     11  C   UNL     1      -0.999  -6.027  -6.691  0.00  0.00    +0.003 C 
ATOM     12  C   UNL     1      -0.051  -4.975  -6.117  0.00  0.00    +0.035 C 
ATOM     13  N   UNL     1      -2.189  -4.185  -5.177  0.00  0.00    -0.285 N 
ATOM     14  C   UNL     1      -2.530  -3.360  -4.158  0.00  0.00    +0.310 C 
ATOM     15  O   UNL     1      -3.667  -3.124  -3.820  0.00  0.00    -0.252 OA
ATOM     16  H   UNL     1      -2.721  -4.922  -5.476  0.00  0.00    +0.151 HD
ENDBRANCH   1   2
BRANCH   1  18
ATOM     17  N   UNL     1      -1.413  -1.998   0.005  0.00  0.00    -0.296 N 
ATOM     18  C   UNL     1      -1.415  -2.666  -1.166  0.00  0.00    +0.234 C 
ATOM     19  O   UNL     1      -1.399  -3.879  -1.173  0.00  0.00    -0.274 OA
BRANCH  17  20
ATOM     20  C   UNL     1      -1.433  -0.534   0.013  0.00  0.00    +0.108 C 
BRANCH  20  22
ATOM     21  C   UNL     1      -0.019   1.526   0.010  0.00  0.00    +0.005 C 
ATOM     22  C   UNL     1       0.002  -0.004   0.002  0.00  0.00    +0.016 C 
ENDBRANCH  20  22
ENDBRANCH  17  20
BRANCH  17  23
ATOM     23  C   UNL     1      -1.391  -2.738   1.269  0.00  0.00    +0.142 C 
BRANCH  23  24
ATOM     24  C   UNL     1      -2.804  -3.010   1.716  0.00  0.00    -0.030 A 
ATOM     25  C   UNL     1      -3.463  -2.099   2.521  0.00  0.00    +0.005 A 
ATOM     26  C   UNL     1      -4.759  -2.350   2.931  0.00  0.00    +0.003 A 
ATOM     27  C   UNL     1      -5.397  -3.511   2.536  0.00  0.00    -0.050 A 
ATOM     28  C   UNL     1      -4.739  -4.421   1.731  0.00  0.00    +0.003 A 
ATOM     29  C   UNL     1      -3.444  -4.169   1.317  0.00  0.00    +0.005 A 
ATOM     30  C   UNL     1      -6.810  -3.784   2.984  0.00  0.00    +0.044 C 
ENDBRANCH  23  24
ENDBRANCH  17  23
ENDBRANCH   1  18
TORSDOF 6
