REMARK  Name = ZINC37175586
REMARK  7 active torsions:
REMARK  status: ('A' for Active; 'I' for Inactive)
REMARK    1  A    between atoms: C_1  and  C_2
REMARK    2  A    between atoms: C_2  and  C_4
REMARK    3  A    between atoms: C_2  and  N_21
REMARK    4  A    between atoms: C_7  and  S_10
REMARK    5  A    between atoms: S_10  and  N_13
REMARK    6  A    between atoms: N_13  and  C_14
REMARK    7  A    between atoms: N_13  and  C_15
REMARK                            x       y       z     vdW  Elec       q    Type
REMARK                         _______ _______ _______ _____ _____    ______ ____
ROOT
ATOM      1  C   UNL     1       0.707  -0.490  -1.238  0.00  0.00    -0.062 A 
ATOM      2  C   UNL     1       0.038  -0.522  -2.447  0.00  0.00    +0.004 A 
ATOM      3  C   UNL     1       0.685  -0.967  -3.584  0.00  0.00    +0.029 A 
ATOM      4  C   UNL     1       2.002  -1.381  -3.513  0.00  0.00    +0.105 A 
ATOM      5  C   UNL     1       2.672  -1.349  -2.304  0.00  0.00    +0.029 A 
ATOM      6  C   UNL     1       2.026  -0.899  -1.167  0.00  0.00    +0.004 A 
ENDROOT
BRANCH   4   7
ATOM      7  S   UNL     1       2.826  -1.951  -4.962  0.00  0.00    +0.061 S 
ATOM      8  O   UNL     1       3.882  -2.794  -4.524  0.00  0.00    -0.153 OA
ATOM      9  O   UNL     1       1.815  -2.397  -5.855  0.00  0.00    -0.153 OA
BRANCH   7  10
ATOM     10  N   UNL     1       3.535  -0.633  -5.671  0.00  0.00    -0.176 NA
ATOM     11  C   UNL     1       4.902  -0.252  -5.307  0.00  0.00    +0.132 C 
BRANCH  10  12
ATOM     12  C   UNL     1       2.796   0.152  -6.663  0.00  0.00    +0.090 C 
ATOM     13  C   UNL     1       3.532   0.069  -8.000  0.00  0.00    +0.032 C 
ATOM     14  C   UNL     1       3.264   1.347  -8.843  0.00  0.00    +0.071 C 
ATOM     15  S   UNL     1       3.325   2.617  -7.503  0.00  0.00    -0.159 S 
ATOM     16  C   UNL     1       2.643   1.593  -6.138  0.00  0.00    +0.089 C 
ENDBRANCH  10  12
ENDBRANCH   7  10
ENDBRANCH   4   7
BRANCH   1  18
ATOM     17  C   UNL     1      -0.019   1.526   0.010  0.00  0.00    -0.009 C 
ATOM     18  C   UNL     1       0.002  -0.004   0.002  0.00  0.00    -0.047 C 
BRANCH  18  19
ATOM     19  N   UNL     1      -1.376  -0.512   0.012  0.00  0.00    +0.382 N 
ATOM     20  H   UNL     1      -1.864  -0.178  -0.805  0.00  0.00    -0.089 HD
ATOM     21  H   UNL     1      -1.362  -1.521   0.007  0.00  0.00    -0.089 HD
ATOM     22  H   UNL     1      -1.848  -0.187   0.843  0.00  0.00    -0.089 HD
ENDBRANCH  18  19
ENDBRANCH   1  18
TORSDOF 5
