REMARK  Name = ZINC39636044
REMARK  6 active torsions:
REMARK  status: ('A' for Active; 'I' for Inactive)
REMARK    1  A    between atoms: C_1  and  C_2
REMARK    2  A    between atoms: C_8  and  N_10
REMARK    3  A    between atoms: C_11  and  C_13
REMARK    4  A    between atoms: C_24  and  C_26
REMARK    5  A    between atoms: C_30  and  O_31
REMARK    6  A    between atoms: O_31  and  C_32
REMARK                            x       y       z     vdW  Elec       q    Type
REMARK                         _______ _______ _______ _____ _____    ______ ____
ROOT
ATOM      1  C   UNL     1       4.202   0.627   2.375  0.00  0.00    +0.100 C 
ATOM      2  C   UNL     1       5.154  -0.390   1.705  0.00  0.00    +0.121 C 
ATOM      3  N   UNL     1       6.408  -0.301   2.490  0.00  0.00    -0.296 N 
ATOM      4  C   UNL     1       5.955  -0.157   3.894  0.00  0.00    +0.115 C 
ATOM      5  C   UNL     1       4.731   0.777   3.811  0.00  0.00    -0.004 C 
ATOM      6  C   UNL     1       5.150   2.220   4.072  0.00  0.00    -0.010 C 
ATOM      7  C   UNL     1       5.619   2.356   5.523  0.00  0.00    -0.082 C 
ATOM      8  N   UNL     1       4.530   1.970   6.429  0.00  0.00    +0.379 N 
ATOM      9  C   UNL     1       4.197   0.553   6.236  0.00  0.00    -0.082 C 
ATOM     10  C   UNL     1       3.668   0.341   4.814  0.00  0.00    -0.010 C 
ATOM     11  C   UNL     1       7.674  -0.343   2.030  0.00  0.00    +0.251 C 
ATOM     12  O   UNL     1       7.886  -0.365   0.832  0.00  0.00    -0.270 OA
ATOM     13  H   UNL     1       4.821   2.118   7.384  0.00  0.00    -0.086 HD
ATOM     14  H   UNL     1       3.717   2.535   6.236  0.00  0.00    -0.086 HD
ENDROOT
BRANCH  11  15
ATOM     15  C   UNL     1       8.800  -0.360   2.976  0.00  0.00    +0.087 A 
ATOM     16  C   UNL     1       8.713  -1.009   4.189  0.00  0.00    +0.063 A 
ATOM     17  S   UNL     1      10.210  -0.757   4.902  0.00  0.00    -0.081 S 
ATOM     18  C   UNL     1      11.002   0.208   3.634  0.00  0.00    +0.120 A 
ATOM     19  C   UNL     1      10.052   0.296   2.676  0.00  0.00    +0.158 A 
ATOM     20 CL   UNL     1      12.607   0.870   3.626  0.00  0.00    -0.072 Cl
BRANCH  19  21
ATOM     21  O   UNL     1      10.259   0.964   1.508  0.00  0.00    -0.492 OA
ATOM     22  C   UNL     1       9.924   2.353   1.486  0.00  0.00    +0.277 C 
ENDBRANCH  19  21
ENDBRANCH  11  15
BRANCH   1  24
ATOM     23  N   UNL     1       1.754   0.944   2.525  0.00  0.00    -0.312 N 
ATOM     24  C   UNL     1       2.792   0.096   2.388  0.00  0.00    +0.218 C 
ATOM     25  O   UNL     1       2.591  -1.095   2.275  0.00  0.00    -0.275 OA
ATOM     26  H   UNL     1       1.914   1.897   2.615  0.00  0.00    +0.149 HD
BRANCH  23  33
ATOM     27  C   UNL     1      -0.020   1.552   4.732  0.00  0.00    +0.009 C 
ATOM     28  C   UNL     1      -0.522   1.402   3.294  0.00  0.00    +0.006 C 
ATOM     29  C   UNL     1      -1.954   0.863   3.308  0.00  0.00    +0.005 C 
ATOM     30  C   UNL     1      -2.456   0.713   1.870  0.00  0.00    +0.000 C 
ATOM     31  C   UNL     1      -1.551  -0.261   1.113  0.00  0.00    +0.002 C 
ATOM     32  C   UNL     1      -0.119   0.278   1.100  0.00  0.00    +0.022 C 
ATOM     33  C   UNL     1       0.383   0.428   2.537  0.00  0.00    +0.076 C 
ENDBRANCH  23  33
ENDBRANCH   1  24
TORSDOF 4
