REMARK  Name = ZINC15733764
REMARK  10 active torsions:
REMARK  status: ('A' for Active; 'I' for Inactive)
REMARK    1  A    between atoms: C_1  and  C_2
REMARK    2  A    between atoms: C_2  and  C_3
REMARK    3  A    between atoms: C_3  and  C_4
REMARK    4  A    between atoms: C_4  and  C_6
REMARK    5  A    between atoms: C_4  and  N_7
REMARK    6  A    between atoms: N_10  and  S_13
REMARK    7  A    between atoms: S_13  and  C_16
REMARK    8  A    between atoms: C_21  and  C_22
REMARK    9  A    between atoms: C_28  and  C_32
REMARK   10  A    between atoms: C_28  and  C_33
REMARK                            x       y       z     vdW  Elec       q    Type
REMARK                         _______ _______ _______ _____ _____    ______ ____
ROOT
ATOM      1  C   UNL     1       2.730  -4.623   4.775  0.00  0.00    +0.110 A 
ATOM      2  C   UNL     1       2.739  -5.905   5.280  0.00  0.00    +0.055 A 
ATOM      3  C   UNL     1       2.752  -6.111   6.655  0.00  0.00    +0.049 A 
ATOM      4  C   UNL     1       2.755  -5.001   7.519  0.00  0.00    +0.011 A 
ATOM      5  C   UNL     1       2.744  -3.712   6.993  0.00  0.00    +0.016 A 
ATOM      6  C   UNL     1       2.738  -3.529   5.627  0.00  0.00    -0.023 A 
ATOM      7  C   UNL     1       2.734  -2.134   5.058  0.00  0.00    +0.046 C 
ATOM      8  C   UNL     1       2.770  -5.560   8.873  0.00  0.00    +0.046 A 
ATOM      9  C   UNL     1       2.780  -6.940   8.735  0.00  0.00    +0.028 A 
ATOM     10  N   UNL     1       2.764  -7.254   7.433  0.00  0.00    -0.357 N 
ATOM     11  H   UNL     1       2.761  -8.159   7.084  0.00  0.00    +0.166 HD
ATOM     12  C   UNL     1       2.812  -7.861   9.932  0.00  0.00    +0.060 C 
ATOM     13  C   UNL     1       3.478  -7.109  11.092  0.00  0.00    -0.023 C 
ATOM     14  C   UNL     1       2.747  -5.795  11.368  0.00  0.00    +0.086 C 
ATOM     15  C   UNL     1       2.775  -4.918  10.135  0.00  0.00    +0.166 C 
ATOM     16  O   UNL     1       2.801  -3.708  10.225  0.00  0.00    -0.292 OA
ATOM     17  C   UNL     1       4.934  -6.811  10.730  0.00  0.00    +0.011 C 
ATOM     18  C   UNL     1       3.438  -7.982  12.348  0.00  0.00    +0.011 C 
ENDROOT
BRANCH   1  19
ATOM     19  S   UNL     1       2.715  -4.371   3.031  0.00  0.00    +0.061 S 
ATOM     20  O   UNL     1       2.682  -5.660   2.435  0.00  0.00    -0.153 OA
ATOM     21  O   UNL     1       3.739  -3.427   2.748  0.00  0.00    -0.153 OA
BRANCH  19  25
ATOM     22  N   UNL     1      -0.724  -2.474   1.105  0.00  0.00    -0.297 NA
ATOM     23  C   UNL     1       0.536  -1.746   1.308  0.00  0.00    +0.102 C 
ATOM     24  C   UNL     1       1.159  -2.172   2.642  0.00  0.00    +0.125 C 
ATOM     25  N   UNL     1       1.278  -3.638   2.654  0.00  0.00    -0.174 NA
ATOM     26  C   UNL     1       0.088  -4.436   2.325  0.00  0.00    +0.125 C 
ATOM     27  C   UNL     1      -0.493  -3.921   1.003  0.00  0.00    +0.102 C 
BRANCH  22  28
ATOM     28  C   UNL     1      -1.438  -1.970  -0.076  0.00  0.00    +0.054 C 
ATOM     29  C   UNL     1      -0.721  -2.440  -1.344  0.00  0.00    +0.024 C 
BRANCH  28  30
ATOM     30  C   UNL     1      -2.871  -2.506  -0.073  0.00  0.00    +0.018 C 
BRANCH  30  32
ATOM     31  C   UNL     1      -5.083  -2.393   1.083  0.00  0.00    +0.004 C 
ATOM     32  C   UNL     1      -3.620  -1.948   1.139  0.00  0.00    -0.002 C 
ENDBRANCH  30  32
ENDBRANCH  28  30
ENDBRANCH  22  28
ENDBRANCH  19  25
ENDBRANCH   1  19
TORSDOF 5
