REMARK  Name = ZINC36206287
REMARK  13 active torsions:
REMARK  status: ('A' for Active; 'I' for Inactive)
REMARK    1  A    between atoms: C_1  and  C_2
REMARK    2  A    between atoms: C_2  and  C_3
REMARK    3  A    between atoms: C_3  and  C_4
REMARK    4  A    between atoms: C_4  and  C_6
REMARK    5  A    between atoms: C_4  and  O_34
REMARK    6  A    between atoms: C_6  and  N_7
REMARK    7  A    between atoms: N_7  and  C_8
REMARK    8  A    between atoms: N_7  and  C_14
REMARK    9  A    between atoms: C_8  and  C_9
REMARK   10  A    between atoms: C_14  and  C_15
REMARK   11  A    between atoms: C_21  and  C_26
REMARK   12  A    between atoms: C_29  and  O_32
REMARK   13  A    between atoms: O_32  and  C_33
REMARK                            x       y       z     vdW  Elec       q    Type
REMARK                         _______ _______ _______ _____ _____    ______ ____
ROOT
ATOM      1  C   UNL     1       1.871  -6.058   3.635  0.00  0.00    +0.094 A 
ATOM      2  N   UNL     1       2.294  -6.763   4.716  0.00  0.00    -0.312 N 
ATOM      3  H   UNL     1       2.615  -6.287   5.498  0.00  0.00    +0.170 HD
ATOM      4  C   UNL     1       2.276  -8.109   4.723  0.00  0.00    +0.260 A 
ATOM      5  O   UNL     1       2.659  -8.727   5.702  0.00  0.00    -0.267 OA
ATOM      6  C   UNL     1       1.802  -8.803   3.565  0.00  0.00    +0.080 A 
ATOM      7  C   UNL     1       1.686 -10.238   3.332  0.00  0.00    +0.004 A 
ATOM      8  C   UNL     1       1.203 -10.668   2.142  0.00  0.00    +0.056 A 
ATOM      9  S   UNL     1       0.873  -9.154   1.259  0.00  0.00    -0.076 S 
ATOM     10  C   UNL     1       1.387  -7.991   2.497  0.00  0.00    +0.116 A 
ATOM     11  N   UNL     1       1.429  -6.663   2.565  0.00  0.00    -0.229 NA
ENDROOT
BRANCH   7  12
ATOM     12  C   UNL     1       2.091 -11.208   4.378  0.00  0.00    -0.016 A 
ATOM     13  C   UNL     1       3.334 -11.088   4.998  0.00  0.00    +0.012 A 
ATOM     14  C   UNL     1       3.707 -11.992   5.971  0.00  0.00    +0.046 A 
ATOM     15  C   UNL     1       2.846 -13.020   6.332  0.00  0.00    +0.120 A 
ATOM     16  C   UNL     1       1.609 -13.142   5.716  0.00  0.00    +0.046 A 
ATOM     17  C   UNL     1       1.227 -12.238   4.747  0.00  0.00    +0.012 A 
BRANCH  15  18
ATOM     18  O   UNL     1       3.217 -13.909   7.291  0.00  0.00    -0.495 OA
ATOM     19  C   UNL     1       2.283 -14.941   7.614  0.00  0.00    +0.277 C 
ENDBRANCH  15  18
ENDBRANCH   7  12
BRANCH   1  20
ATOM     20  C   UNL     1       1.908  -4.552   3.672  0.00  0.00    -0.003 C 
BRANCH  20  21
ATOM     21  N   UNL     1       1.400  -4.018   2.401  0.00  0.00    +0.391 N 
ATOM     22  H   UNL     1       1.915  -4.425   1.635  0.00  0.00    -0.080 HD
BRANCH  21  23
ATOM     23  C   UNL     1       1.566  -2.559   2.382  0.00  0.00    -0.046 C 
BRANCH  23  24
ATOM     24  C   UNL     1       3.056  -2.216   2.324  0.00  0.00    +0.098 C 
BRANCH  24  25
ATOM     25  O   UNL     1       3.676  -2.578   3.559  0.00  0.00    -0.394 OA
ATOM     26  H   UNL     1       3.309  -2.127   4.332  0.00  0.00    +0.210 HD
ENDBRANCH  24  25
BRANCH  24  27
ATOM     27  C   UNL     1       3.224  -0.713   2.091  0.00  0.00    +0.029 C 
BRANCH  27  29
ATOM     28  C   UNL     1       4.877   1.114   1.675  0.00  0.00    +0.004 C 
ATOM     29  C   UNL     1       4.708  -0.388   1.909  0.00  0.00    -0.001 C 
ENDBRANCH  27  29
ENDBRANCH  24  27
ENDBRANCH  23  24
ENDBRANCH  21  23
BRANCH  21  30
ATOM     30  C   UNL     1      -0.024  -4.351   2.265  0.00  0.00    -0.002 C 
BRANCH  30  31
ATOM     31  C   UNL     1      -0.510  -3.931   0.902  0.00  0.00    +0.089 A 
ATOM     32  C   UNL     1      -0.584  -4.721  -0.184  0.00  0.00    +0.042 A 
ATOM     33  C   UNL     1      -1.091  -3.925  -1.237  0.00  0.00    +0.041 A 
ATOM     34  C   UNL     1      -1.296  -2.695  -0.731  0.00  0.00    +0.195 A 
ATOM     35  O   UNL     1      -0.948  -2.707   0.566  0.00  0.00    -0.470 OA
ENDBRANCH  30  31
ENDBRANCH  21  30
ENDBRANCH  20  21
ENDBRANCH   1  20
TORSDOF 11
