REMARK  Name = ZINC39666472
REMARK  11 active torsions:
REMARK  status: ('A' for Active; 'I' for Inactive)
REMARK    1  A    between atoms: C_1  and  C_2
REMARK    2  A    between atoms: C_2  and  C_3
REMARK    3  A    between atoms: C_3  and  C_4
REMARK    4  A    between atoms: C_3  and  C_6
REMARK    5  A    between atoms: C_4  and  C_5
REMARK    6  A    between atoms: C_10  and  C_19
REMARK    7  A    between atoms: N_21  and  C_22
REMARK    8  A    between atoms: C_22  and  C_23
REMARK    9  A    between atoms: C_23  and  C_25
REMARK   10  A    between atoms: C_23  and  O_26
REMARK   11  A    between atoms: O_26  and  C_27
REMARK                            x       y       z     vdW  Elec       q    Type
REMARK                         _______ _______ _______ _____ _____    ______ ____
ROOT
ATOM      1  C   UNL     1      -1.241  -0.606  -0.495  0.00  0.00    +0.219 C 
ATOM      2  O   UNL     1      -0.161  -1.057  -0.179  0.00  0.00    -0.275 OA
ATOM      3  N   UNL     1      -2.360  -1.325  -0.281  0.00  0.00    -0.300 N 
ATOM      4  C   UNL     1      -3.765  -0.909  -0.506  0.00  0.00    +0.121 C 
ATOM      5  C   UNL     1      -4.456  -2.166  -1.081  0.00  0.00    +0.100 C 
ATOM      6  C   UNL     1      -3.600  -3.345  -0.590  0.00  0.00    -0.004 C 
ATOM      7  C   UNL     1      -2.465  -2.714   0.229  0.00  0.00    +0.115 C 
ATOM      8  C   UNL     1      -3.023  -4.110  -1.777  0.00  0.00    -0.010 C 
ATOM      9  C   UNL     1      -2.223  -5.311  -1.264  0.00  0.00    -0.082 C 
ATOM     10  N   UNL     1      -3.099  -6.183  -0.472  0.00  0.00    +0.379 N 
ATOM     11  C   UNL     1      -3.575  -5.468   0.717  0.00  0.00    -0.082 C 
ATOM     12  C   UNL     1      -4.433  -4.274   0.288  0.00  0.00    -0.010 C 
ATOM     13  H   UNL     1      -3.889  -6.463  -1.034  0.00  0.00    -0.086 HD
ATOM     14  H   UNL     1      -2.585  -7.003  -0.187  0.00  0.00    -0.086 HD
ENDROOT
BRANCH   5  15
ATOM     15  C   UNL     1      -4.469  -2.115  -2.587  0.00  0.00    +0.218 C 
ATOM     16  O   UNL     1      -3.554  -1.588  -3.184  0.00  0.00    -0.275 OA
ATOM     17  N   UNL     1      -5.496  -2.656  -3.272  0.00  0.00    -0.312 N 
ATOM     18  H   UNL     1      -6.228  -3.078  -2.795  0.00  0.00    +0.149 HD
BRANCH  17  19
ATOM     19  C   UNL     1      -5.508  -2.607  -4.736  0.00  0.00    +0.148 C 
BRANCH  19  20
ATOM     20  C   UNL     1      -6.776  -3.286  -5.258  0.00  0.00    +0.187 C 
ATOM     21  C   UNL     1      -6.729  -3.345  -6.787  0.00  0.00    +0.053 C 
BRANCH  20  22
ATOM     22  O   UNL     1      -7.921  -2.538  -4.846  0.00  0.00    -0.486 OA
BRANCH  22  23
ATOM     23  C   UNL     1      -9.103  -3.206  -4.779  0.00  0.00    +0.139 A 
ATOM     24  C   UNL     1      -9.165  -4.545  -5.136  0.00  0.00    +0.047 A 
ATOM     25  C   UNL     1     -10.367  -5.223  -5.067  0.00  0.00    +0.004 A 
ATOM     26  C   UNL     1     -11.508  -4.567  -4.642  0.00  0.00    +0.002 A 
ATOM     27  C   UNL     1     -11.450  -3.233  -4.285  0.00  0.00    +0.023 A 
ATOM     28  C   UNL     1     -10.249  -2.552  -4.347  0.00  0.00    +0.083 A 
ATOM     29 CL   UNL     1     -10.174  -0.878  -3.892  0.00  0.00    -0.080 Cl
ENDBRANCH  22  23
ENDBRANCH  20  22
ENDBRANCH  19  20
ENDBRANCH  17  19
ENDBRANCH   5  15
BRANCH   1  30
ATOM     30  C   UNL     1      -1.332   0.758  -1.129  0.00  0.00    +0.075 C 
BRANCH  30  32
ATOM     31  C   UNL     1      -1.602   3.200  -0.672  0.00  0.00    +0.004 C 
ATOM     32  C   UNL     1      -1.385   1.826  -0.034  0.00  0.00    +0.009 C 
ENDBRANCH  30  32
BRANCH  30  33
ATOM     33  C   UNL     1      -0.105   0.994  -2.012  0.00  0.00    +0.009 C 
ATOM     34  C   UNL     1      -0.128   0.015  -3.188  0.00  0.00    +0.004 C 
ENDBRANCH  30  33
ENDBRANCH   1  30
TORSDOF 8
