REMARK  Name = ZINC46917308
REMARK  5 active torsions:
REMARK  status: ('A' for Active; 'I' for Inactive)
REMARK    1  A    between atoms: C_1  and  C_2
REMARK    2  A    between atoms: C_3  and  C_7
REMARK    3  A    between atoms: C_12  and  C_15
REMARK    4  A    between atoms: C_15  and  C_16
REMARK    5  A    between atoms: N_18  and  C_19
REMARK                            x       y       z     vdW  Elec       q    Type
REMARK                         _______ _______ _______ _____ _____    ______ ____
ROOT
ATOM      1  C   UNL     1      -8.285  -3.002  -1.125  0.00  0.00    +0.223 C 
ATOM      2  O   UNL     1      -7.345  -2.976  -1.890  0.00  0.00    -0.275 OA
ATOM      3  N   UNL     1      -9.290  -3.878  -1.320  0.00  0.00    -0.285 N 
ATOM      4  H   UNL     1     -10.009  -3.945  -0.672  0.00  0.00    +0.155 HD
ENDROOT
BRANCH   3   5
ATOM      5  C   UNL     1      -9.297  -4.693  -2.460  0.00  0.00    +0.037 A 
ATOM      6  C   UNL     1     -10.499  -5.017  -3.074  0.00  0.00    +0.027 A 
ATOM      7  C   UNL     1     -10.508  -5.820  -4.199  0.00  0.00    +0.051 A 
ATOM      8  C   UNL     1      -9.317  -6.304  -4.717  0.00  0.00    +0.167 A 
ATOM      9  C   UNL     1      -8.110  -5.980  -4.102  0.00  0.00    +0.169 A 
ATOM     10  C   UNL     1      -8.102  -5.172  -2.978  0.00  0.00    +0.072 A 
ATOM     11  O   UNL     1      -7.093  -6.572  -4.797  0.00  0.00    -0.447 OA
ATOM     12  C   UNL     1      -7.720  -7.579  -5.606  0.00  0.00    +0.254 C 
ATOM     13  O   UNL     1      -9.059  -7.100  -5.797  0.00  0.00    -0.448 OA
ATOM     14  C   UNL     1      -7.732  -8.916  -4.873  0.00  0.00    +0.093 C 
ATOM     15  C   UNL     1      -6.294  -9.390  -4.649  0.00  0.00    +0.008 C 
ATOM     16  C   UNL     1      -5.591  -9.537  -6.000  0.00  0.00    +0.000 C 
ATOM     17  C   UNL     1      -5.568  -8.184  -6.715  0.00  0.00    +0.008 C 
ATOM     18  C   UNL     1      -7.003  -7.705  -6.946  0.00  0.00    +0.093 C 
ENDBRANCH   3   5
BRANCH   1  19
ATOM     19  C   UNL     1      -8.330  -2.053   0.045  0.00  0.00    +0.152 C 
BRANCH  19  25
ATOM     20  C   UNL     1      -2.509  -0.397  -0.006  0.00  0.00    +0.253 C 
ATOM     21  O   UNL     1      -2.801   0.783   0.010  0.00  0.00    -0.270 OA
ATOM     22  N   UNL     1      -3.480  -1.332  -0.006  0.00  0.00    -0.261 N 
ATOM     23  C   UNL     1      -4.815  -0.947   0.012  0.00  0.00    +0.165 A 
ATOM     24  N   UNL     1      -5.886  -1.710   0.020  0.00  0.00    -0.229 NA
ATOM     25  C   UNL     1      -7.098  -1.186   0.037  0.00  0.00    +0.059 A 
ATOM     26  C   UNL     1      -7.183   0.167   0.046  0.00  0.00    +0.072 A 
ATOM     27  S   UNL     1      -5.454   0.610   0.035  0.00  0.00    -0.060 S 
ATOM     28  H   UNL     1      -3.247  -2.273  -0.019  0.00  0.00    +0.157 HD
BRANCH  20  31
ATOM     29  C   UNL     1      -0.024   1.517  -0.011  0.00  0.00    +0.087 C 
ATOM     30  C   UNL     1       0.000   0.010  -0.027  0.00  0.00    +0.114 A 
ATOM     31  C   UNL     1      -1.094  -0.805  -0.025  0.00  0.00    +0.078 A 
ATOM     32  C   UNL     1      -0.564  -2.177  -0.044  0.00  0.00    +0.054 A 
ATOM     33  C   UNL     1       0.772  -2.057  -0.056  0.00  0.00    +0.196 A 
ATOM     34  O   UNL     1       1.096  -0.754  -0.052  0.00  0.00    -0.467 OA
ENDBRANCH  20  31
ENDBRANCH  19  25
ENDBRANCH   1  19
TORSDOF 4
