REMARK  Name = ZINC36206455
REMARK  17 active torsions:
REMARK  status: ('A' for Active; 'I' for Inactive)
REMARK    1  A    between atoms: C_1  and  C_2
REMARK    2  A    between atoms: C_5  and  C_9
REMARK    3  A    between atoms: C_6  and  C_8
REMARK    4  A    between atoms: C_18  and  C_20
REMARK    5  A    between atoms: C_20  and  N_21
REMARK    6  A    between atoms: N_21  and  C_22
REMARK    7  A    between atoms: N_21  and  C_32
REMARK    8  A    between atoms: C_22  and  C_23
REMARK    9  A    between atoms: C_23  and  C_25
REMARK   10  A    between atoms: C_23  and  O_31
REMARK   11  A    between atoms: C_25  and  O_26
REMARK   12  A    between atoms: O_26  and  C_27
REMARK   13  A    between atoms: C_27  and  C_28
REMARK   14  A    between atoms: C_27  and  C_29
REMARK   15  A    between atoms: C_27  and  C_30
REMARK   16  A    between atoms: C_32  and  C_33
REMARK   17  A    between atoms: C_32  and  C_34
REMARK                            x       y       z     vdW  Elec       q    Type
REMARK                         _______ _______ _______ _____ _____    ______ ____
ROOT
ATOM      1  C   UNL     1       1.137  -5.188   3.970  0.00  0.00    +0.004 A 
ATOM      2  C   UNL     1       2.201  -6.028   3.970  0.00  0.00    +0.056 A 
ATOM      3  S   UNL     1       1.495  -7.586   3.469  0.00  0.00    -0.076 S 
ATOM      4  C   UNL     1      -0.193  -7.079   3.273  0.00  0.00    +0.116 A 
ATOM      5  C   UNL     1      -0.172  -5.715   3.606  0.00  0.00    +0.080 A 
ATOM      6  C   UNL     1      -1.433  -5.040   3.537  0.00  0.00    +0.260 A 
ATOM      7  O   UNL     1      -1.515  -3.853   3.803  0.00  0.00    -0.267 OA
ATOM      8  N   UNL     1      -2.526  -5.735   3.172  0.00  0.00    -0.312 N 
ATOM      9  H   UNL     1      -3.383  -5.283   3.123  0.00  0.00    +0.170 HD
ATOM     10  C   UNL     1      -2.453  -7.057   2.870  0.00  0.00    +0.094 A 
ATOM     11  N   UNL     1      -1.315  -7.698   2.915  0.00  0.00    -0.229 NA
ENDROOT
BRANCH   1  16
ATOM     12  C   UNL     1       1.774   0.353   5.403  0.00  0.00    +0.044 C 
ATOM     13  C   UNL     1       1.608  -1.097   5.028  0.00  0.00    -0.050 A 
ATOM     14  C   UNL     1       2.218  -1.589   3.887  0.00  0.00    +0.004 A 
ATOM     15  C   UNL     1       2.069  -2.915   3.539  0.00  0.00    +0.009 A 
ATOM     16  C   UNL     1       1.302  -3.761   4.339  0.00  0.00    -0.014 A 
ATOM     17  C   UNL     1       0.690  -3.261   5.487  0.00  0.00    -0.042 A 
ATOM     18  C   UNL     1       0.850  -1.933   5.828  0.00  0.00    +0.007 A 
ATOM     19  C   UNL     1      -0.141  -4.168   6.357  0.00  0.00    +0.044 C 
ENDBRANCH   1  16
BRANCH  10  20
ATOM     20  C   UNL     1      -3.703  -7.795   2.466  0.00  0.00    -0.003 C 
BRANCH  20  21
ATOM     21  N   UNL     1      -3.349  -9.147   2.014  0.00  0.00    +0.388 N 
ATOM     22  H   UNL     1      -2.559  -9.483   2.544  0.00  0.00    -0.081 HD
BRANCH  21  23
ATOM     23  C   UNL     1      -3.002  -9.111   0.587  0.00  0.00    -0.074 C 
ATOM     24  C   UNL     1      -4.190  -8.572  -0.213  0.00  0.00    -0.014 C 
ATOM     25  C   UNL     1      -1.791  -8.199   0.380  0.00  0.00    -0.014 C 
ENDBRANCH  21  23
BRANCH  21  26
ATOM     26  C   UNL     1      -4.493 -10.046   2.217  0.00  0.00    -0.044 C 
BRANCH  26  27
ATOM     27  C   UNL     1      -4.075 -11.483   1.897  0.00  0.00    +0.124 C 
BRANCH  27  28
ATOM     28  O   UNL     1      -3.847 -11.611   0.492  0.00  0.00    -0.391 OA
ATOM     29  H   UNL     1      -4.601 -11.351  -0.054  0.00  0.00    +0.210 HD
ENDBRANCH  27  28
BRANCH  27  30
ATOM     30  C   UNL     1      -5.187 -12.444   2.322  0.00  0.00    +0.189 C 
BRANCH  30  31
ATOM     31  O   UNL     1      -4.751 -13.791   2.131  0.00  0.00    -0.372 OA
BRANCH  31  32
ATOM     32  C   UNL     1      -5.721 -14.774   2.499  0.00  0.00    +0.061 C 
ATOM     33  C   UNL     1      -6.985 -14.585   1.657  0.00  0.00    +0.041 C 
ATOM     34  C   UNL     1      -5.150 -16.172   2.254  0.00  0.00    +0.041 C 
ATOM     35  C   UNL     1      -6.068 -14.618   3.981  0.00  0.00    +0.041 C 
ENDBRANCH  31  32
ENDBRANCH  30  31
ENDBRANCH  27  30
ENDBRANCH  26  27
ENDBRANCH  21  26
ENDBRANCH  20  21
ENDBRANCH  10  20
TORSDOF 10
