REMARK  Name = ZINC47133831
REMARK  15 active torsions:
REMARK  status: ('A' for Active; 'I' for Inactive)
REMARK    1  A    between atoms: C_1  and  C_2
REMARK    2  A    between atoms: C_2  and  C_3
REMARK    3  A    between atoms: C_3  and  C_4
REMARK    4  A    between atoms: C_4  and  N_5
REMARK    5  A    between atoms: N_5  and  C_6
REMARK    6  A    between atoms: N_5  and  C_10
REMARK    7  A    between atoms: C_6  and  C_7
REMARK    8  A    between atoms: C_7  and  C_8
REMARK    9  A    between atoms: C_8  and  C_9
REMARK   10  A    between atoms: C_10  and  C_11
REMARK   11  A    between atoms: C_11  and  C_12
REMARK   12  A    between atoms: C_12  and  N_13
REMARK   13  A    between atoms: C_20  and  C_26
REMARK   14  A    between atoms: C_21  and  C_23
REMARK   15  A    between atoms: C_23  and  C_25
REMARK                            x       y       z     vdW  Elec       q    Type
REMARK                         _______ _______ _______ _____ _____    ______ ____
ROOT
ATOM      1  N   UNL     1       2.882  -6.492  -5.143  0.00  0.00    -0.299 N 
ATOM      2  C   UNL     1       2.301  -6.560  -6.366  0.00  0.00    +0.203 A 
ATOM      3  N   UNL     1       2.959  -6.952  -7.423  0.00  0.00    -0.230 NA
ATOM      4  C   UNL     1       4.236  -7.306  -7.356  0.00  0.00    +0.116 A 
ATOM      5  C   UNL     1       4.955  -7.279  -6.138  0.00  0.00    +0.076 A 
ATOM      6  C   UNL     1       4.175  -6.824  -4.962  0.00  0.00    +0.262 A 
ATOM      7  O   UNL     1       4.690  -6.754  -3.860  0.00  0.00    -0.267 OA
ATOM      8  C   UNL     1       6.289  -7.676  -6.207  0.00  0.00    -0.018 A 
ATOM      9  C   UNL     1       6.821  -8.062  -7.420  0.00  0.00    +0.060 A 
ATOM     10  S   UNL     1       5.437  -7.877  -8.532  0.00  0.00    -0.065 S 
ATOM     11  C   UNL     1       7.144  -7.683  -4.966  0.00  0.00    +0.046 C 
ENDROOT
BRANCH   9  12
ATOM     12  C   UNL     1       8.134  -8.495  -7.709  0.00  0.00    +0.167 C 
ATOM     13  O   UNL     1       8.961  -8.562  -6.822  0.00  0.00    -0.292 OA
ATOM     14  C   UNL     1       8.509  -8.874  -9.119  0.00  0.00    +0.092 C 
ENDBRANCH   9  12
BRANCH   1  15
ATOM     15  C   UNL     1       2.089  -6.044  -3.996  0.00  0.00    +0.124 C 
BRANCH  15  16
ATOM     16  C   UNL     1       2.200  -4.524  -3.863  0.00  0.00    +0.003 C 
BRANCH  16  17
ATOM     17  C   UNL     1       1.372  -4.055  -2.665  0.00  0.00    -0.077 C 
BRANCH  17  18
ATOM     18  N   UNL     1       1.561  -2.611  -2.473  0.00  0.00    +0.380 N 
ATOM     19  H   UNL     1       2.546  -2.409  -2.390  0.00  0.00    -0.082 HD
BRANCH  18  20
ATOM     20  C   UNL     1       1.008  -1.888  -3.626  0.00  0.00    -0.079 C 
BRANCH  20  21
ATOM     21  C   UNL     1       1.315  -0.395  -3.487  0.00  0.00    -0.019 C 
BRANCH  21  23
ATOM     22  C   UNL     1       1.045   1.850  -4.549  0.00  0.00    +0.004 C 
ATOM     23  C   UNL     1       0.739   0.358  -4.688  0.00  0.00    -0.005 C 
ENDBRANCH  21  23
ENDBRANCH  20  21
ENDBRANCH  18  20
BRANCH  18  24
ATOM     24  C   UNL     1       0.869  -2.184  -1.250  0.00  0.00    -0.079 C 
BRANCH  24  25
ATOM     25  C   UNL     1       1.550  -2.812  -0.033  0.00  0.00    -0.019 C 
BRANCH  25  26
ATOM     26  C   UNL     1       0.801  -2.406   1.238  0.00  0.00    -0.005 C 
ATOM     27  C   UNL     1       1.483  -3.034   2.455  0.00  0.00    +0.004 C 
ENDBRANCH  25  26
ENDBRANCH  24  25
ENDBRANCH  18  24
ENDBRANCH  17  18
ENDBRANCH  16  17
ENDBRANCH  15  16
ENDBRANCH   1  15
TORSDOF 11
