REMARK  Name = ZINC33551669
REMARK  11 active torsions:
REMARK  status: ('A' for Active; 'I' for Inactive)
REMARK    1  A    between atoms: C_1  and  C_2
REMARK    2  A    between atoms: C_2  and  O_3
REMARK    3  A    between atoms: O_3  and  C_4
REMARK    4  A    between atoms: C_8  and  C_10
REMARK    5  A    between atoms: C_12  and  C_28
REMARK    6  A    between atoms: C_19  and  C_26
REMARK    7  A    between atoms: C_20  and  C_22
REMARK    8  A    between atoms: C_22  and  O_24
REMARK    9  A    between atoms: O_24  and  C_25
REMARK   10  A    between atoms: C_28  and  C_30
REMARK   11  A    between atoms: C_33  and  C_35
REMARK                            x       y       z     vdW  Elec       q    Type
REMARK                         _______ _______ _______ _____ _____    ______ ____
ROOT
ATOM      1  C   UNL     1      -2.738   1.266   0.074  0.00  0.00    +0.152 C 
ATOM      2  C   UNL     1      -2.441  -0.215   0.056  0.00  0.00    +0.080 C 
ATOM      3  C   UNL     1      -3.631  -0.853   0.146  0.00  0.00    +0.250 C 
ATOM      4  C   UNL     1      -4.712   0.147   0.233  0.00  0.00    +0.293 C 
ATOM      5  O   UNL     1      -5.896  -0.112   0.327  0.00  0.00    -0.266 OA
ATOM      6  N   UNL     1      -4.196   1.389   0.188  0.00  0.00    -0.232 N 
ATOM      7  C   UNL     1      -4.911   2.570   0.239  0.00  0.00    +0.169 A 
ATOM      8  N   UNL     1      -6.221   2.742   0.336  0.00  0.00    -0.229 NA
ATOM      9  C   UNL     1      -6.754   3.934   0.379  0.00  0.00    +0.062 A 
ATOM     10  C   UNL     1      -5.900   5.027   0.306  0.00  0.00    +0.120 A 
ATOM     11  S   UNL     1      -4.320   4.202   0.185  0.00  0.00    -0.045 S 
ATOM     12  C   UNL     1      -8.245   4.117   0.496  0.00  0.00    +0.067 C 
ATOM     13  O   UNL     1      -3.802  -2.196   0.158  0.00  0.00    -0.282 OA
ENDROOT
BRANCH   1  18
ATOM     14  C   UNL     1      -0.312   3.274   2.163  0.00  0.00    +0.121 A 
ATOM     15  C   UNL     1      -0.841   3.105   3.435  0.00  0.00    +0.045 A 
ATOM     16  C   UNL     1      -1.979   2.343   3.613  0.00  0.00    +0.004 A 
ATOM     17  C   UNL     1      -2.595   1.753   2.525  0.00  0.00    +0.006 A 
ATOM     18  C   UNL     1      -2.067   1.915   1.257  0.00  0.00    -0.019 A 
ATOM     19  C   UNL     1      -0.929   2.677   1.074  0.00  0.00    +0.051 A 
BRANCH  14  20
ATOM     20  O   UNL     1       0.808   4.023   1.986  0.00  0.00    -0.492 OA
BRANCH  20  22
ATOM     21  C   UNL     1       2.632   5.408   2.757  0.00  0.00    +0.048 C 
ATOM     22  C   UNL     1       1.389   4.607   3.153  0.00  0.00    +0.225 C 
ENDBRANCH  20  22
ENDBRANCH  14  20
ENDBRANCH   1  18
BRANCH  10  23
ATOM     23  C   UNL     1      -6.208   6.456   0.324  0.00  0.00    +0.347 C 
ATOM     24  O   UNL     1      -7.363   6.828   0.414  0.00  0.00    -0.244 OA
BRANCH  23  25
ATOM     25  O   UNL     1      -5.212   7.362   0.241  0.00  0.00    -0.464 OA
ATOM     26  C   UNL     1      -5.586   8.741   0.264  0.00  0.00    +0.280 C 
ENDBRANCH  23  25
ENDBRANCH  10  23
BRANCH   2  27
ATOM     27  C   UNL     1      -1.117  -0.841  -0.045  0.00  0.00    +0.230 C 
ATOM     28  O   UNL     1      -0.680  -1.495   0.885  0.00  0.00    -0.283 OA
BRANCH  27  29
ATOM     29  C   UNL     1      -0.322  -0.681  -1.266  0.00  0.00    +0.175 A 
ATOM     30  C   UNL     1       0.968  -1.126  -1.460  0.00  0.00    +0.053 A 
ATOM     31  C   UNL     1       1.326  -0.757  -2.764  0.00  0.00    +0.045 A 
ATOM     32  C   UNL     1       0.265  -0.116  -3.304  0.00  0.00    +0.103 A 
ATOM     33  O   UNL     1      -0.724  -0.072  -2.402  0.00  0.00    -0.457 OA
ATOM     34  C   UNL     1       0.204   0.456  -4.697  0.00  0.00    +0.086 C 
ENDBRANCH  27  29
ENDBRANCH   2  27
TORSDOF 7
