REMARK  Name = ZINC36290546
REMARK  5 active torsions:
REMARK  status: ('A' for Active; 'I' for Inactive)
REMARK    1  A    between atoms: C_1  and  C_2
REMARK    2  A    between atoms: C_2  and  C_3
REMARK    3  A    between atoms: C_2  and  C_4
REMARK    4  A    between atoms: C_7  and  C_10
REMARK    5  A    between atoms: C_11  and  N_22
REMARK                            x       y       z     vdW  Elec       q    Type
REMARK                         _______ _______ _______ _____ _____    ______ ____
ROOT
ATOM      1  C   UNL     1      -5.398  -1.998   0.044  0.00  0.00    +0.112 A 
ATOM      2  C   UNL     1      -6.191  -2.190  -1.047  0.00  0.00    +0.129 A 
ATOM      3  N   UNL     1      -7.411  -2.681  -0.596  0.00  0.00    -0.278 N 
ATOM      4  C   UNL     1      -8.621  -3.074  -1.165  0.00  0.00    +0.037 A 
ATOM      5  C   UNL     1      -9.589  -3.506  -0.352  0.00  0.00    +0.013 A 
ATOM      6  S   UNL     1      -8.872  -3.393   1.267  0.00  0.00    -0.054 S 
ATOM      7  C   UNL     1      -7.286  -2.761   0.767  0.00  0.00    +0.180 A 
ATOM      8  N   UNL     1      -6.107  -2.367   1.144  0.00  0.00    -0.219 NA
ATOM      9  C   UNL     1     -10.960  -3.977  -0.722  0.00  0.00    +0.044 C 
ATOM     10  C   UNL     1     -11.243  -3.551  -2.171  0.00  0.00    +0.006 C 
ATOM     11  C   UNL     1     -10.030  -3.917  -3.032  0.00  0.00    +0.006 C 
ATOM     12  C   UNL     1      -8.848  -3.016  -2.675  0.00  0.00    +0.055 C 
ENDROOT
BRANCH   1  16
ATOM     13  C   UNL     1      -1.412  -0.526   0.013  0.00  0.00    -0.045 A 
ATOM     14  C   UNL     1      -2.257  -0.202   1.059  0.00  0.00    +0.004 A 
ATOM     15  C   UNL     1      -3.553  -0.677   1.075  0.00  0.00    +0.010 A 
ATOM     16  C   UNL     1      -4.009  -1.484   0.033  0.00  0.00    +0.004 A 
ATOM     17  C   UNL     1      -3.152  -1.807  -1.020  0.00  0.00    +0.010 A 
ATOM     18  C   UNL     1      -1.860  -1.321  -1.026  0.00  0.00    +0.004 A 
BRANCH  13  20
ATOM     19  C   UNL     1      -0.019   1.526   0.010  0.00  0.00    +0.012 C 
ATOM     20  C   UNL     1       0.002  -0.004   0.002  0.00  0.00    +0.013 C 
ATOM     21  C   UNL     1       0.742  -0.511   1.242  0.00  0.00    +0.012 C 
ENDBRANCH  13  20
ENDBRANCH   1  16
BRANCH   2  22
ATOM     22  N   UNL     1      -5.842  -1.938  -2.376  0.00  0.00    -0.342 N 
ATOM     23  H   UNL     1      -4.961  -1.594  -2.589  0.00  0.00    +0.144 HD
ATOM     24  H   UNL     1      -6.481  -2.108  -3.085  0.00  0.00    +0.144 HD
ENDBRANCH   2  22
TORSDOF 3
