REMARK  Name = ZINC38651248
REMARK  11 active torsions:
REMARK  status: ('A' for Active; 'I' for Inactive)
REMARK    1  A    between atoms: C_1  and  C_2
REMARK    2  A    between atoms: C_2  and  C_3
REMARK    3  A    between atoms: C_6  and  O_9
REMARK    4  A    between atoms: O_9  and  C_10
REMARK    5  A    between atoms: C_10  and  C_12
REMARK    6  A    between atoms: C_10  and  C_13
REMARK    7  A    between atoms: C_13  and  O_15
REMARK    8  A    between atoms: O_15  and  C_16
REMARK    9  A    between atoms: C_23  and  N_36
REMARK   10  A    between atoms: C_24  and  C_34
REMARK   11  A    between atoms: C_25  and  C_27
REMARK                            x       y       z     vdW  Elec       q    Type
REMARK                         _______ _______ _______ _____ _____    ______ ____
ROOT
ATOM      1  C   UNL     1      -8.454  -4.522  -1.587  0.00  0.00    +0.135 A 
ATOM      2  C   UNL     1      -8.523  -4.991  -0.282  0.00  0.00    +0.047 A 
ATOM      3  C   UNL     1      -9.458  -5.947   0.060  0.00  0.00    +0.012 A 
ATOM      4  C   UNL     1     -10.330  -6.442  -0.894  0.00  0.00    +0.008 A 
ATOM      5  C   UNL     1     -10.266  -5.978  -2.199  0.00  0.00    +0.138 A 
ATOM      6  C   UNL     1      -9.329  -5.011  -2.543  0.00  0.00    +0.093 A 
ATOM      7  O   UNL     1     -11.111  -6.451  -3.148  0.00  0.00    -0.441 OA
ATOM      8  C   UNL     1     -11.747  -7.618  -2.957  0.00  0.00    +0.199 C 
ATOM      9  C   UNL     1     -11.891  -8.163  -1.725  0.00  0.00    +0.098 C 
ATOM     10  C   UNL     1     -11.343  -7.484  -0.502  0.00  0.00    +0.098 C 
ENDROOT
BRANCH  10  11
ATOM     11  C   UNL     1     -12.470  -6.826   0.251  0.00  0.00    -0.033 A 
ATOM     12  C   UNL     1     -13.227  -5.842  -0.358  0.00  0.00    +0.004 A 
ATOM     13  C   UNL     1     -14.261  -5.237   0.332  0.00  0.00    +0.002 A 
ATOM     14  C   UNL     1     -14.539  -5.617   1.631  0.00  0.00    +0.020 A 
ATOM     15  C   UNL     1     -13.783  -6.601   2.242  0.00  0.00    +0.041 A 
ATOM     16  C   UNL     1     -12.752  -7.210   1.548  0.00  0.00    +0.024 A 
ATOM     17 CL   UNL     1     -14.132  -7.077   3.874  0.00  0.00    -0.084 Cl
ENDBRANCH  10  11
BRANCH   8  18
ATOM     18  N   UNL     1     -12.268  -8.278  -4.042  0.00  0.00    -0.328 N 
ATOM     19  H   UNL     1     -12.173  -7.901  -4.930  0.00  0.00    +0.145 HD
ATOM     20  H   UNL     1     -12.730  -9.122  -3.920  0.00  0.00    +0.145 HD
ENDBRANCH   8  18
BRANCH   9  21
ATOM     21  C   UNL     1     -12.579  -9.411  -1.586  0.00  0.00    +0.101 C 
ATOM     22  N   UNL     1     -13.126 -10.401  -1.476  0.00  0.00    -0.191 NA
ENDBRANCH   9  21
BRANCH   1  23
ATOM     23  O   UNL     1      -7.534  -3.581  -1.925  0.00  0.00    -0.423 OA
BRANCH  23  24
ATOM     24  C   UNL     1      -6.237  -3.930  -1.902  0.00  0.00    +0.353 C 
ATOM     25  O   UNL     1      -5.924  -5.077  -1.683  0.00  0.00    -0.246 OA
BRANCH  24  26
ATOM     26  C   UNL     1      -5.173  -2.893  -2.149  0.00  0.00    +0.279 C 
ATOM     27  C   UNL     1      -5.197  -1.859  -1.021  0.00  0.00    +0.064 C 
BRANCH  26  28
ATOM     28  O   UNL     1      -3.892  -3.524  -2.188  0.00  0.00    -0.478 OA
BRANCH  28  32
ATOM     29  C   UNL     1      -0.886  -1.539  -4.198  0.00  0.00    -0.047 A 
ATOM     30  C   UNL     1      -2.168  -1.021  -4.187  0.00  0.00    +0.007 A 
ATOM     31  C   UNL     1      -3.176  -1.684  -3.515  0.00  0.00    +0.046 A 
ATOM     32  C   UNL     1      -2.902  -2.871  -2.851  0.00  0.00    +0.122 A 
ATOM     33  C   UNL     1      -1.615  -3.389  -2.864  0.00  0.00    +0.046 A 
ATOM     34  C   UNL     1      -0.611  -2.724  -3.542  0.00  0.00    +0.007 A 
BRANCH  29  36
ATOM     35  C   UNL     1       0.270  -1.305  -6.380  0.00  0.00    +0.009 C 
ATOM     36  C   UNL     1       0.212  -0.813  -4.932  0.00  0.00    +0.032 C 
ENDBRANCH  29  36
ENDBRANCH  28  32
ENDBRANCH  26  28
ENDBRANCH  24  26
ENDBRANCH  23  24
ENDBRANCH   1  23
TORSDOF 9
