REMARK  Name = ZINC52583782
REMARK  5 active torsions:
REMARK  status: ('A' for Active; 'I' for Inactive)
REMARK    1  A    between atoms: C_1  and  C_2
REMARK    2  A    between atoms: N_19  and  C_20
REMARK    3  A    between atoms: C_20  and  C_22
REMARK    4  A    between atoms: C_20  and  C_23
REMARK    5  A    between atoms: C_23  and  C_24
REMARK                            x       y       z     vdW  Elec       q    Type
REMARK                         _______ _______ _______ _____ _____    ______ ____
ROOT
ATOM      1  C   UNL     1      -0.023   1.520   0.005  0.00  0.00    +0.035 C 
ATOM      2  C   UNL     1       0.002  -0.009  -0.000  0.00  0.00    +0.121 C 
ATOM      3  C   UNL     1       0.732  -0.507  -1.228  0.00  0.00    +0.041 A 
ATOM      4  C   UNL     1       1.960  -1.069  -1.188  0.00  0.00    -0.016 A 
ATOM      5  C   UNL     1       2.314  -1.406  -2.552  0.00  0.00    +0.003 A 
ATOM      6  C   UNL     1       3.447  -1.999  -3.118  0.00  0.00    +0.010 A 
ATOM      7  C   UNL     1       3.443  -2.171  -4.480  0.00  0.00    +0.001 A 
ATOM      8  C   UNL     1       2.373  -1.780  -5.268  0.00  0.00    +0.002 A 
ATOM      9  C   UNL     1       1.240  -1.190  -4.735  0.00  0.00    +0.026 A 
ATOM     10  C   UNL     1       1.216  -1.003  -3.354  0.00  0.00    +0.047 A 
ATOM     11  N   UNL     1       0.280  -0.465  -2.520  0.00  0.00    -0.356 N 
ATOM     12  H   UNL     1      -0.577  -0.106  -2.799  0.00  0.00    +0.166 HD
ATOM     13  C   UNL     1       2.764  -1.289   0.067  0.00  0.00    +0.056 C 
ATOM     14  C   UNL     1       2.201  -0.400   1.183  0.00  0.00    +0.115 C 
ATOM     15  N   UNL     1       0.733  -0.501   1.180  0.00  0.00    -0.277 N 
ATOM     16  C   UNL     1       0.073  -1.031   2.230  0.00  0.00    +0.303 C 
ATOM     17  O   UNL     1       0.694  -1.518   3.155  0.00  0.00    -0.253 OA
ATOM     18  N   UNL     1      -1.275  -1.020   2.254  0.00  0.00    -0.296 N 
ATOM     19  H   UNL     1      -1.771  -0.697   1.486  0.00  0.00    +0.151 HD
ENDROOT
BRANCH  18  20
ATOM     20  C   UNL     1      -1.990  -1.495   3.441  0.00  0.00    +0.076 C 
ATOM     21  C   UNL     1      -2.108  -0.356   4.455  0.00  0.00    +0.028 C 
BRANCH  20  22
ATOM     22  C   UNL     1      -3.388  -1.967   3.038  0.00  0.00    +0.057 C 
BRANCH  22  23
ATOM     23  C   UNL     1      -3.273  -3.168   2.135  0.00  0.00    -0.039 A 
ATOM     24  C   UNL     1      -3.183  -3.009   0.765  0.00  0.00    +0.011 A 
ATOM     25  C   UNL     1      -3.080  -4.110  -0.019  0.00  0.00    +0.045 A 
ATOM     26  S   UNL     1      -3.108  -5.426   1.187  0.00  0.00    -0.105 S 
ATOM     27  C   UNL     1      -3.250  -4.420   2.654  0.00  0.00    +0.049 A 
ENDBRANCH  22  23
ENDBRANCH  20  22
ENDBRANCH  18  20
TORSDOF 3
