REMARK  Name = ZINC00719023
REMARK  6 active torsions:
REMARK  status: ('A' for Active; 'I' for Inactive)
REMARK    1  A    between atoms: C_7  and  C_11
REMARK    2  A    between atoms: C_11  and  C_12
REMARK    3  A    between atoms: C_12  and  N_13
REMARK    4  A    between atoms: C_14  and  C_16
REMARK    5  A    between atoms: C_20  and  C_29
REMARK    6  A    between atoms: C_22  and  C_25
REMARK                            x       y       z     vdW  Elec       q    Type
REMARK                         _______ _______ _______ _____ _____    ______ ____
ROOT
ATOM      1  C   UNL     1      -4.645  -3.222  -2.569  0.00  0.00    +0.150 A 
ATOM      2  C   UNL     1      -5.369  -3.627  -3.696  0.00  0.00    +0.083 A 
ATOM      3  C   UNL     1      -6.388  -4.462  -3.261  0.00  0.00    +0.157 A 
ATOM      4  N   UNL     1      -7.356  -5.117  -3.916  0.00  0.00    -0.225 NA
ATOM      5  C   UNL     1      -8.230  -5.862  -3.260  0.00  0.00    +0.110 A 
ATOM      6  C   UNL     1      -8.149  -5.973  -1.850  0.00  0.00    +0.062 A 
ATOM      7  C   UNL     1      -7.175  -5.314  -1.189  0.00  0.00    +0.131 A 
ATOM      8  N   UNL     1      -6.284  -4.550  -1.895  0.00  0.00    -0.211 N 
ATOM      9  N   UNL     1      -5.192  -3.770  -1.496  0.00  0.00    -0.160 NA
ENDROOT
BRANCH   5  10
ATOM     10  C   UNL     1      -9.289  -6.575  -3.996  0.00  0.00    +0.153 A 
ATOM     11  C   UNL     1      -9.482  -6.549  -5.344  0.00  0.00    +0.051 A 
ATOM     12  C   UNL     1     -10.595  -7.368  -5.609  0.00  0.00    +0.042 A 
ATOM     13  C   UNL     1     -11.029  -7.843  -4.423  0.00  0.00    +0.196 A 
ATOM     14  O   UNL     1     -10.238  -7.362  -3.452  0.00  0.00    -0.461 OA
ENDBRANCH   5  10
BRANCH   1  16
ATOM     15  N   UNL     1      -2.859  -2.006  -1.417  0.00  0.00    -0.310 N 
ATOM     16  C   UNL     1      -3.468  -2.326  -2.576  0.00  0.00    +0.264 C 
ATOM     17  O   UNL     1      -3.050  -1.880  -3.627  0.00  0.00    -0.268 OA
ATOM     18  H   UNL     1      -3.192  -2.362  -0.579  0.00  0.00    +0.149 HD
BRANCH  15  19
ATOM     19  C   UNL     1      -1.693  -1.118  -1.424  0.00  0.00    +0.109 C 
BRANCH  19  20
ATOM     20  C   UNL     1      -1.197  -0.917   0.009  0.00  0.00    +0.056 C 
BRANCH  20  27
ATOM     21  C   UNL     1      -0.716   3.746   0.030  0.00  0.00    +0.001 A 
ATOM     22  C   UNL     1       0.611   4.153   0.019  0.00  0.00    +0.002 A 
ATOM     23  C   UNL     1       1.630   3.226   0.004  0.00  0.00    +0.026 A 
ATOM     24  C   UNL     1       1.329   1.868  -0.001  0.00  0.00    +0.047 A 
ATOM     25  C   UNL     1      -0.018   1.461   0.010  0.00  0.00    +0.003 A 
ATOM     26  C   UNL     1      -1.035   2.417   0.030  0.00  0.00    +0.010 A 
ATOM     27  C   UNL     1       0.002  -0.004   0.002  0.00  0.00    -0.021 A 
ATOM     28  C   UNL     1       1.291  -0.379  -0.012  0.00  0.00    +0.087 A 
ATOM     29  N   UNL     1       2.098   0.726  -0.014  0.00  0.00    -0.360 N 
ATOM     30  H   UNL     1       3.068   0.708  -0.024  0.00  0.00    +0.165 HD
ENDBRANCH  20  27
ENDBRANCH  19  20
ENDBRANCH  15  19
ENDBRANCH   1  16
BRANCH   7  31
ATOM     31  C   UNL     1      -7.067  -5.417   0.311  0.00  0.00    +0.365 C 
ATOM     32  F   UNL     1      -5.822  -5.955   0.654  0.00  0.00    -0.181 F 
ATOM     33  F   UNL     1      -7.197  -4.144   0.877  0.00  0.00    -0.181 F 
ATOM     34 CL   UNL     1      -8.377  -6.488   0.935  0.00  0.00    -0.041 Cl
ENDBRANCH   7  31
TORSDOF 6
