REMARK  Name = ZINC13055626
REMARK  10 active torsions:
REMARK  status: ('A' for Active; 'I' for Inactive)
REMARK    1  A    between atoms: N_9  and  C_27
REMARK    2  A    between atoms: C_10  and  S_12
REMARK    3  A    between atoms: S_12  and  C_13
REMARK    4  A    between atoms: C_13  and  C_14
REMARK    5  A    between atoms: C_16  and  N_24
REMARK    6  A    between atoms: C_27  and  C_28
REMARK    7  A    between atoms: C_28  and  C_29
REMARK    8  A    between atoms: C_29  and  C_30
REMARK    9  A    between atoms: C_30  and  C_31
REMARK   10  A    between atoms: C_31  and  C_32
REMARK                            x       y       z     vdW  Elec       q    Type
REMARK                         _______ _______ _______ _____ _____    ______ ____
ROOT
ATOM      1  C   UNL     1       1.049  10.399  -0.605  0.00  0.00    +0.001 A 
ATOM      2  C   UNL     1       1.053   9.482  -1.648  0.00  0.00    +0.002 A 
ATOM      3  C   UNL     1       1.073   8.139  -1.403  0.00  0.00    +0.028 A 
ATOM      4  C   UNL     1       1.091   7.676  -0.083  0.00  0.00    +0.079 A 
ATOM      5  C   UNL     1       1.088   8.613   0.976  0.00  0.00    +0.065 A 
ATOM      6  C   UNL     1       1.067   9.978   0.696  0.00  0.00    +0.015 A 
ATOM      7  C   UNL     1       1.108   8.102   2.353  0.00  0.00    +0.262 A 
ATOM      8  O   UNL     1       1.105   8.859   3.307  0.00  0.00    -0.267 OA
ATOM      9  N   UNL     1       1.128   6.760   2.522  0.00  0.00    -0.287 N 
ATOM     10  C   UNL     1       1.129   5.926   1.440  0.00  0.00    +0.172 A 
ATOM     11  N   UNL     1       1.117   6.359   0.204  0.00  0.00    -0.223 NA
ENDROOT
BRANCH  10  12
ATOM     12  S   UNL     1       1.157   4.186   1.720  0.00  0.00    -0.083 S 
BRANCH  12  13
ATOM     13  C   UNL     1       1.149   3.593   0.011  0.00  0.00    +0.116 C 
BRANCH  13  14
ATOM     14  C   UNL     1       1.170   2.086   0.002  0.00  0.00    +0.007 A 
ATOM     15  C   UNL     1      -0.017   1.378   0.010  0.00  0.00    +0.040 A 
ATOM     16  C   UNL     1       0.002  -0.004   0.002  0.00  0.00    +0.127 A 
ATOM     17  C   UNL     1       1.208  -0.681  -0.012  0.00  0.00    +0.042 A 
ATOM     18  C   UNL     1       2.397   0.022  -0.018  0.00  0.00    +0.022 A 
ATOM     19  C   UNL     1       2.381   1.409  -0.013  0.00  0.00    +0.133 A 
ATOM     20  O   UNL     1       3.544   2.113  -0.025  0.00  0.00    -0.466 OA
ATOM     21  C   UNL     1       4.734   1.401   0.326  0.00  0.00    +0.394 C 
ATOM     22  O   UNL     1       4.759   0.167  -0.401  0.00  0.00    -0.339 OA
ATOM     23  C   UNL     1       3.706  -0.726  -0.025  0.00  0.00    +0.202 C 
BRANCH  16  24
ATOM     24  N   UNL     1      -1.270  -0.760   0.009  0.00  0.00    +0.056 N 
ATOM     25  O   UNL     1      -2.333  -0.165   0.021  0.00  0.00    -0.126 OA
ATOM     26  O   UNL     1      -1.254  -1.978   0.002  0.00  0.00    -0.126 OA
ENDBRANCH  16  24
ENDBRANCH  13  14
ENDBRANCH  12  13
ENDBRANCH  10  12
BRANCH   9  27
ATOM     27  C   UNL     1       1.148   6.197   3.874  0.00  0.00    +0.127 C 
BRANCH  27  28
ATOM     28  C   UNL     1       2.598   6.020   4.332  0.00  0.00    +0.022 C 
BRANCH  28  29
ATOM     29  C   UNL     1       2.619   5.432   5.744  0.00  0.00    +0.002 C 
BRANCH  29  30
ATOM     30  C   UNL     1       4.068   5.256   6.201  0.00  0.00    +0.011 C 
BRANCH  30  31
ATOM     31  C   UNL     1       4.089   4.668   7.614  0.00  0.00    +0.125 C 
BRANCH  31  32
ATOM     32  C   UNL     1       5.517   4.495   8.064  0.00  0.00    +0.356 C 
ATOM     33  O   UNL     1       6.424   4.809   7.331  0.00  0.00    -0.246 OA
ATOM     34  O   UNL     1       5.780   3.991   9.280  0.00  0.00    -0.246 OA
ENDBRANCH  31  32
ENDBRANCH  30  31
ENDBRANCH  29  30
ENDBRANCH  28  29
ENDBRANCH  27  28
ENDBRANCH   9  27
TORSDOF 10
