REMARK  Name = ZINC13500673
REMARK  16 active torsions:
REMARK  status: ('A' for Active; 'I' for Inactive)
REMARK    1  A    between atoms: C_1  and  C_2
REMARK    2  A    between atoms: C_2  and  O_3
REMARK    3  A    between atoms: O_3  and  C_4
REMARK    4  A    between atoms: C_11  and  C_16
REMARK    5  A    between atoms: C_16  and  N_72
REMARK    6  A    between atoms: C_17  and  N_72
REMARK    7  A    between atoms: C_22  and  C_24
REMARK    8  A    between atoms: C_22  and  C_35
REMARK    9  A    between atoms: C_22  and  N_72
REMARK   10  A    between atoms: N_28  and  C_29
REMARK   11  A    between atoms: C_29  and  C_30
REMARK   12  A    between atoms: C_30  and  O_32
REMARK   13  A    between atoms: O_32  and  C_33
REMARK   14  A    between atoms: C_33  and  C_34
REMARK   15  A    between atoms: C_35  and  C_36
REMARK   16  A    between atoms: C_35  and  C_37
REMARK                            x       y       z     vdW  Elec       q    Type
REMARK                         _______ _______ _______ _____ _____    ______ ____
ROOT
ATOM      1  N   UNL     1      -4.342   1.680   0.852  0.00  0.00    +0.391 N 
ATOM      2  H   UNL     1      -4.186   1.018   1.620  0.00  0.00    -0.080 HD
ENDROOT
BRANCH   1   3
ATOM      3  C   UNL     1      -4.790   2.972   1.414  0.00  0.00    -0.067 C 
ATOM      4  C   UNL     1      -3.626   3.637   2.178  0.00  0.00    -0.015 C 
ATOM      5  C   UNL     1      -4.303   4.283   3.413  0.00  0.00    -0.002 C 
ATOM      6  C   UNL     1      -5.381   3.239   3.798  0.00  0.00    -0.002 C 
ATOM      7  C   UNL     1      -5.905   2.719   2.443  0.00  0.00    -0.015 C 
ENDBRANCH   1   3
BRANCH   1   8
ATOM      8  C   UNL     1      -5.380   1.135  -0.049  0.00  0.00    -0.036 C 
BRANCH   8  16
ATOM      9  C   UNL     1     -10.875   0.855   2.807  0.00  0.00    +0.121 A 
ATOM     10  C   UNL     1     -10.693  -0.411   3.358  0.00  0.00    +0.047 A 
ATOM     11  C   UNL     1      -9.528  -1.112   3.137  0.00  0.00    +0.030 A 
ATOM     12  C   UNL     1      -8.519  -0.555   2.358  0.00  0.00    +0.049 A 
ATOM     13  C   UNL     1      -8.699   0.724   1.799  0.00  0.00    +0.002 A 
ATOM     14  C   UNL     1      -9.887   1.426   2.030  0.00  0.00    +0.055 A 
ATOM     15  C   UNL     1      -7.630   1.298   0.980  0.00  0.00    +0.017 A 
ATOM     16  C   UNL     1      -6.500   0.573   0.789  0.00  0.00    +0.001 A 
ATOM     17  C   UNL     1      -6.371  -0.708   1.367  0.00  0.00    +0.251 A 
ATOM     18  O   UNL     1      -5.349  -1.345   1.178  0.00  0.00    -0.268 OA
ATOM     19  N   UNL     1      -7.345  -1.241   2.125  0.00  0.00    -0.322 N 
ATOM     20  H   UNL     1      -7.222  -2.123   2.511  0.00  0.00    +0.169 HD
BRANCH   9  21
ATOM     21  O   UNL     1     -12.032   1.533   3.035  0.00  0.00    -0.492 OA
BRANCH  21  23
ATOM     22  C   UNL     1     -14.236   1.794   3.991  0.00  0.00    +0.048 C 
ATOM     23  C   UNL     1     -13.013   0.885   3.847  0.00  0.00    +0.225 C 
ENDBRANCH  21  23
ENDBRANCH   9  21
ENDBRANCH   8  16
ENDBRANCH   1   8
BRANCH   1  24
ATOM     24  C   UNL     1      -3.077   1.864   0.111  0.00  0.00    +0.006 C 
BRANCH  24  25
ATOM     25  C   UNL     1      -3.315   2.640  -1.159  0.00  0.00    +0.139 A 
ATOM     26  N   UNL     1      -4.305   2.475  -2.003  0.00  0.00    -0.115 NA
ATOM     27  N   UNL     1      -4.156   3.323  -2.961  0.00  0.00    -0.023 NA
ATOM     28  N   UNL     1      -3.100   4.028  -2.748  0.00  0.00    -0.043 NA
ATOM     29  N   UNL     1      -2.556   3.639  -1.645  0.00  0.00    -0.220 N 
BRANCH  29  30
ATOM     30  C   UNL     1      -1.337   4.179  -1.038  0.00  0.00    +0.267 C 
BRANCH  30  31
ATOM     31  C   UNL     1      -1.696   5.313  -0.112  0.00  0.00    +0.329 C 
ATOM     32  O   UNL     1      -2.852   5.636   0.027  0.00  0.00    -0.249 OA
BRANCH  31  33
ATOM     33  O   UNL     1      -0.732   5.963   0.558  0.00  0.00    -0.464 OA
BRANCH  33  34
ATOM     34  C   UNL     1      -1.152   7.044   1.433  0.00  0.00    +0.229 C 
ATOM     35  C   UNL     1       0.076   7.661   2.106  0.00  0.00    +0.048 C 
ENDBRANCH  33  34
ENDBRANCH  31  33
ENDBRANCH  30  31
ENDBRANCH  29  30
ENDBRANCH  24  25
BRANCH  24  36
ATOM     36  C   UNL     1      -2.503   0.487  -0.233  0.00  0.00    -0.024 C 
ATOM     37  C   UNL     1      -1.184   0.659  -0.989  0.00  0.00    +0.006 C 
ATOM     38  C   UNL     1      -2.253  -0.297   1.056  0.00  0.00    +0.006 C 
ENDBRANCH  24  36
ENDBRANCH   1  24
TORSDOF 12
