REMARK  Name = ZINC24580898
REMARK  6 active torsions:
REMARK  status: ('A' for Active; 'I' for Inactive)
REMARK    1  A    between atoms: C_6  and  C_7
REMARK    2  A    between atoms: N_9  and  N_10
REMARK    3  A    between atoms: C_11  and  C_13
REMARK    4  A    between atoms: C_17  and  S_19
REMARK    5  A    between atoms: S_19  and  N_22
REMARK    6  A    between atoms: N_22  and  C_23
REMARK                            x       y       z     vdW  Elec       q    Type
REMARK                         _______ _______ _______ _____ _____    ______ ____
ROOT
ATOM      1  C   UNL     1       0.171   6.798  -0.497  0.00  0.00    +0.040 A 
ATOM      2  C   UNL     1       1.533   6.506  -0.594  0.00  0.00    +0.014 A 
ATOM      3  C   UNL     1       2.001   5.271  -0.199  0.00  0.00    +0.023 A 
ATOM      4  C   UNL     1       1.123   4.321   0.298  0.00  0.00    +0.068 A 
ATOM      5  C   UNL     1      -0.230   4.602   0.391  0.00  0.00    +0.129 A 
ATOM      6  C   UNL     1      -0.710   5.835  -0.001  0.00  0.00    +0.043 A 
ATOM      7 CL   UNL     1       1.720   2.770   0.800  0.00  0.00    -0.082 Cl
ENDROOT
BRANCH   1   9
ATOM      8  N   UNL     1       0.516   9.047  -1.398  0.00  0.00    -0.230 N 
ATOM      9  C   UNL     1      -0.337   8.120  -0.919  0.00  0.00    +0.260 C 
ATOM     10  O   UNL     1      -1.523   8.371  -0.834  0.00  0.00    -0.269 OA
ATOM     11  H   UNL     1       1.590   8.820  -1.474  0.00  0.00    +0.173 HD
BRANCH   8  14
ATOM     12  C   UNL     1       0.887  11.229  -2.276  0.00  0.00    +0.260 C 
ATOM     13  O   UNL     1       2.074  10.978  -2.361  0.00  0.00    -0.269 OA
ATOM     14  N   UNL     1       0.035  10.301  -1.798  0.00  0.00    -0.230 N 
ATOM     15  H   UNL     1      -1.039  10.528  -1.721  0.00  0.00    +0.173 HD
BRANCH  12  21
ATOM     16  C   UNL     1      -0.983  12.840  -2.607  0.00  0.00    +0.014 A 
ATOM     17  C   UNL     1      -1.450  14.078  -2.998  0.00  0.00    +0.021 A 
ATOM     18  C   UNL     1      -0.571  15.029  -3.489  0.00  0.00    +0.041 A 
ATOM     19  C   UNL     1       0.781  14.746  -3.587  0.00  0.00    +0.021 A 
ATOM     20  C   UNL     1       1.261  13.514  -3.194  0.00  0.00    +0.014 A 
ATOM     21  C   UNL     1       0.380  12.551  -2.698  0.00  0.00    +0.038 A 
ATOM     22 CL   UNL     1      -1.167  16.582  -3.985  0.00  0.00    -0.084 Cl
ENDBRANCH  12  21
ENDBRANCH   8  14
ENDBRANCH   1   9
BRANCH   5  23
ATOM     23  S   UNL     1      -1.340   3.386   1.017  0.00  0.00    +0.093 S 
ATOM     24  O   UNL     1      -2.642   3.951   0.951  0.00  0.00    -0.148 OA
ATOM     25  O   UNL     1      -0.777   2.910   2.232  0.00  0.00    -0.148 OA
BRANCH  23  26
ATOM     26  N   UNL     1      -1.321   2.114  -0.043  0.00  0.00    -0.098 NA
BRANCH  26  27
ATOM     27  C   UNL     1      -1.725   2.302  -1.369  0.00  0.00    +0.074 A 
ATOM     28  C   UNL     1      -2.894   2.998  -1.647  0.00  0.00    +0.029 A 
ATOM     29  C   UNL     1      -3.293   3.179  -2.957  0.00  0.00    +0.040 A 
ATOM     30  C   UNL     1      -2.529   2.667  -3.992  0.00  0.00    +0.124 A 
ATOM     31  C   UNL     1      -1.363   1.972  -3.716  0.00  0.00    +0.040 A 
ATOM     32  C   UNL     1      -0.960   1.790  -2.408  0.00  0.00    +0.029 A 
ATOM     33  F   UNL     1      -2.921   2.845  -5.272  0.00  0.00    -0.205 F 
ENDBRANCH  26  27
ENDBRANCH  23  26
ENDBRANCH   5  23
TORSDOF 6
