REMARK  Name = ZINC63908445
REMARK  5 active torsions:
REMARK  status: ('A' for Active; 'I' for Inactive)
REMARK    1  A    between atoms: C_4  and  N_7
REMARK    2  A    between atoms: C_12  and  N_16
REMARK    3  A    between atoms: N_16  and  C_17
REMARK    4  A    between atoms: C_17  and  C_18
REMARK    5  A    between atoms: C_18  and  C_19
REMARK                            x       y       z     vdW  Elec       q    Type
REMARK                         _______ _______ _______ _____ _____    ______ ____
ROOT
ATOM      1  N   UNL     1       3.622  -0.651  -0.037  0.00  0.00    -0.160 N 
ATOM      2  C   UNL     1       3.639  -1.995   0.052  0.00  0.00    +0.259 C 
ATOM      3  O   UNL     1       2.607  -2.610   0.217  0.00  0.00    -0.272 OA
ATOM      4  C   UNL     1       4.953  -2.729  -0.055  0.00  0.00    +0.190 C 
ATOM      5  C   UNL     1       6.051  -1.884   0.597  0.00  0.00    +0.124 C 
ATOM      6  C   UNL     1       5.944  -0.460   0.121  0.00  0.00    +0.124 C 
ATOM      7  N   UNL     1       4.815   0.068  -0.150  0.00  0.00    -0.183 NA
ATOM      8 CL   UNL     1       5.352  -3.003  -1.792  0.00  0.00    -0.110 Cl
ENDROOT
BRANCH   1  12
ATOM      9  C   UNL     1      -0.017   1.378   0.011  0.00  0.00    +0.000 A 
ATOM     10  C   UNL     1       0.153   0.286  -0.820  0.00  0.00    +0.002 A 
ATOM     11  C   UNL     1       1.358  -0.389  -0.838  0.00  0.00    +0.025 A 
ATOM     12  C   UNL     1       2.400   0.031  -0.021  0.00  0.00    +0.060 A 
ATOM     13  C   UNL     1       2.225   1.128   0.813  0.00  0.00    +0.025 A 
ATOM     14  C   UNL     1       1.018   1.798   0.826  0.00  0.00    +0.002 A 
ENDBRANCH   1  12
BRANCH   5  15
ATOM     15  N   UNL     1       5.896  -1.924   2.057  0.00  0.00    -0.307 NA
ATOM     16  H   UNL     1       5.188  -1.273   2.364  0.00  0.00    +0.123 HD
BRANCH  15  17
ATOM     17  C   UNL     1       7.175  -1.664   2.730  0.00  0.00    +0.086 C 
BRANCH  17  18
ATOM     18  C   UNL     1       6.974  -1.714   4.246  0.00  0.00    +0.048 C 
BRANCH  18  19
ATOM     19  C   UNL     1       8.287  -1.447   4.936  0.00  0.00    -0.040 C 
ATOM     20  C   UNL     1       8.734  -0.259   5.402  0.00  0.00    -0.001 A 
ATOM     21  C   UNL     1       8.155   1.090   5.406  0.00  0.00    +0.010 A 
ATOM     22  C   UNL     1       8.858   2.104   5.959  0.00  0.00    +0.001 A 
ATOM     23  C   UNL     1      10.123   1.901   6.527  0.00  0.00    +0.002 A 
ATOM     24  C   UNL     1      10.721   0.691   6.561  0.00  0.00    +0.026 A 
ATOM     25  C   UNL     1      10.072  -0.448   6.009  0.00  0.00    +0.043 A 
ATOM     26  N   UNL     1      10.437  -1.704   5.921  0.00  0.00    -0.380 N 
ATOM     27  C   UNL     1       9.369  -2.456   5.253  0.00  0.00    +0.144 C 
ATOM     28  H   UNL     1      11.272  -2.075   6.246  0.00  0.00    +0.160 HD
ENDBRANCH  18  19
ENDBRANCH  17  18
ENDBRANCH  15  17
ENDBRANCH   5  15
TORSDOF 5
