REMARK  Name = ZINC20617242
REMARK  13 active torsions:
REMARK  status: ('A' for Active; 'I' for Inactive)
REMARK    1  A    between atoms: C_1  and  C_2
REMARK    2  A    between atoms: C_6  and  N_8
REMARK    3  A    between atoms: C_10  and  C_25
REMARK    4  A    between atoms: C_13  and  C_20
REMARK    5  A    between atoms: C_16  and  C_19
REMARK    6  A    between atoms: C_20  and  O_21
REMARK    7  A    between atoms: O_21  and  C_22
REMARK    8  A    between atoms: C_22  and  C_24
REMARK    9  A    between atoms: N_27  and  C_28
REMARK   10  A    between atoms: C_31  and  O_36
REMARK   11  A    between atoms: C_33  and  O_34
REMARK   12  A    between atoms: O_34  and  C_35
REMARK   13  A    between atoms: O_36  and  C_37
REMARK                            x       y       z     vdW  Elec       q    Type
REMARK                         _______ _______ _______ _____ _____    ______ ____
ROOT
ATOM      1  N   UNL     1       2.380   1.094  -0.027  0.00  0.00    -0.325 N 
ATOM      2  C   UNL     1       3.499   1.774  -0.136  0.00  0.00    +0.212 A 
ATOM      3  C   UNL     1       4.799   1.082  -0.257  0.00  0.00    +0.098 A 
ATOM      4  C   UNL     1       5.812   1.753  -0.906  0.00  0.00    +0.030 A 
ATOM      5  C   UNL     1       5.513   3.092  -1.416  0.00  0.00    +0.028 A 
ATOM      6  C   UNL     1       6.369   3.751  -2.307  0.00  0.00    +0.018 A 
ATOM      7  C   UNL     1       6.018   5.010  -2.746  0.00  0.00    +0.118 A 
ATOM      8  N   UNL     1       4.903   5.590  -2.342  0.00  0.00    -0.256 NA
ATOM      9  C   UNL     1       4.066   5.012  -1.504  0.00  0.00    +0.081 A 
ATOM     10  C   UNL     1       4.334   3.745  -1.007  0.00  0.00    +0.159 A 
ATOM     11  O   UNL     1       3.492   3.132  -0.147  0.00  0.00    -0.437 OA
ATOM     12  C   UNL     1       2.810   5.731  -1.085  0.00  0.00    +0.069 C 
ATOM     13  H   UNL     1       2.408  -0.002   0.059  0.00  0.00    +0.169 HD
ENDROOT
BRANCH   1  19
ATOM     14  C   UNL     1      -1.299   3.107   2.499  0.00  0.00    +0.044 C 
ATOM     15  C   UNL     1      -0.640   2.745   1.193  0.00  0.00    -0.049 A 
ATOM     16  C   UNL     1      -1.251   3.078  -0.004  0.00  0.00    +0.003 A 
ATOM     17  C   UNL     1      -0.656   2.744  -1.208  0.00  0.00    +0.002 A 
ATOM     18  C   UNL     1       0.554   2.083  -1.223  0.00  0.00    +0.026 A 
ATOM     19  C   UNL     1       1.179   1.749  -0.019  0.00  0.00    +0.042 A 
ATOM     20  C   UNL     1       0.573   2.089   1.193  0.00  0.00    +0.029 A 
ENDBRANCH   1  19
BRANCH   3  21
ATOM     21  C   UNL     1       5.002  -0.270   0.294  0.00  0.00    +0.253 C 
ATOM     22  O   UNL     1       6.083  -0.816   0.180  0.00  0.00    -0.270 OA
ATOM     23  N   UNL     1       3.991  -0.900   0.924  0.00  0.00    -0.278 N 
ATOM     24  H   UNL     1       3.044  -0.372   1.109  0.00  0.00    +0.155 HD
BRANCH  23  25
ATOM     25  C   UNL     1       4.147  -2.228   1.345  0.00  0.00    +0.076 A 
ATOM     26  C   UNL     1       5.062  -3.055   0.710  0.00  0.00    +0.030 A 
ATOM     27  C   UNL     1       5.219  -4.362   1.129  0.00  0.00    +0.047 A 
ATOM     28  C   UNL     1       4.455  -4.854   2.177  0.00  0.00    +0.124 A 
ATOM     29  C   UNL     1       3.535  -4.033   2.811  0.00  0.00    +0.093 A 
ATOM     30  C   UNL     1       3.379  -2.721   2.398  0.00  0.00    +0.145 A 
BRANCH  30  31
ATOM     31  O   UNL     1       2.477  -1.914   3.019  0.00  0.00    -0.493 OA
ATOM     32  C   UNL     1       1.725  -2.486   4.090  0.00  0.00    +0.277 C 
ENDBRANCH  30  31
BRANCH  28  33
ATOM     33  O   UNL     1       4.609  -6.143   2.582  0.00  0.00    -0.495 OA
ATOM     34  C   UNL     1       5.574  -6.932   1.884  0.00  0.00    +0.277 C 
ENDBRANCH  28  33
ENDBRANCH  23  25
ENDBRANCH   3  21
BRANCH   6  35
ATOM     35  C   UNL     1       7.644   3.098  -2.774  0.00  0.00    +0.269 C 
BRANCH  35  36
ATOM     36  O   UNL     1       8.338   3.990  -3.685  0.00  0.00    -0.460 OA
BRANCH  36  37
ATOM     37  C   UNL     1       9.501   3.556  -4.196  0.00  0.00    +0.304 C 
ATOM     38  O   UNL     1       9.925   2.466  -3.892  0.00  0.00    -0.251 OA
ATOM     39  C   UNL     1      10.278   4.427  -5.149  0.00  0.00    +0.136 C 
ENDBRANCH  36  37
ENDBRANCH  35  36
ENDBRANCH   6  35
TORSDOF 8
