REMARK  Name = ZINC67501618
REMARK  10 active torsions:
REMARK  status: ('A' for Active; 'I' for Inactive)
REMARK    1  A    between atoms: C_1  and  C_2
REMARK    2  A    between atoms: C_2  and  C_3
REMARK    3  A    between atoms: C_3  and  C_4
REMARK    4  A    between atoms: N_6  and  C_7
REMARK    5  A    between atoms: C_11  and  N_14
REMARK    6  A    between atoms: C_12  and  C_13
REMARK    7  A    between atoms: C_15  and  C_17
REMARK    8  A    between atoms: C_18  and  C_28
REMARK    9  A    between atoms: C_20  and  C_27
REMARK   10  A    between atoms: C_23  and  C_26
REMARK                            x       y       z     vdW  Elec       q    Type
REMARK                         _______ _______ _______ _____ _____    ______ ____
ROOT
ATOM      1  N   UNL     1       2.258  -6.661   4.426  0.00  0.00    -0.279 N 
ATOM      2  C   UNL     1       2.278  -8.008   4.403  0.00  0.00    +0.284 C 
ATOM      3  O   UNL     1       1.763  -8.608   3.479  0.00  0.00    -0.266 OA
ATOM      4  H   UNL     1       2.607  -6.184   5.195  0.00  0.00    +0.155 HD
ENDROOT
BRANCH   2   5
ATOM      5  C   UNL     1       2.923  -8.752   5.494  0.00  0.00    +0.194 A 
ATOM      6  C   UNL     1       3.009 -10.105   5.573  0.00  0.00    +0.008 A 
ATOM      7  C   UNL     1       3.725 -10.394   6.815  0.00  0.00    +0.027 A 
ATOM      8  C   UNL     1       4.127 -11.568   7.458  0.00  0.00    -0.039 A 
ATOM      9  C   UNL     1       4.800 -11.494   8.644  0.00  0.00    +0.004 A 
ATOM     10  C   UNL     1       5.088 -10.261   9.214  0.00  0.00    +0.007 A 
ATOM     11  C   UNL     1       4.701  -9.092   8.596  0.00  0.00    -0.008 A 
ATOM     12  C   UNL     1       4.015  -9.142   7.388  0.00  0.00    +0.139 A 
ATOM     13  O   UNL     1       3.524  -8.194   6.566  0.00  0.00    -0.450 OA
ATOM     14  C   UNL     1       5.020  -7.762   9.229  0.00  0.00    +0.047 C 
ATOM     15  C   UNL     1       3.817 -12.909   6.846  0.00  0.00    +0.044 C 
ATOM     16  C   UNL     1       2.473 -11.107   4.583  0.00  0.00    +0.048 C 
ENDBRANCH   2   5
BRANCH   1  21
ATOM     17  C   UNL     1       1.766  -4.033   1.897  0.00  0.00    +0.038 A 
ATOM     18  C   UNL     1       0.686  -4.550   1.193  0.00  0.00    +0.024 A 
ATOM     19  C   UNL     1       0.134  -5.761   1.562  0.00  0.00    +0.004 A 
ATOM     20  C   UNL     1       0.653  -6.462   2.634  0.00  0.00    +0.024 A 
ATOM     21  C   UNL     1       1.733  -5.951   3.342  0.00  0.00    +0.038 A 
ATOM     22  C   UNL     1       2.293  -4.737   2.970  0.00  0.00    -0.008 A 
ATOM     23  C   UNL     1       3.469  -4.182   3.733  0.00  0.00    +0.047 C 
BRANCH  17  26
ATOM     24  C   UNL     1       2.196  -2.366   0.254  0.00  0.00    +0.217 C 
ATOM     25  O   UNL     1       1.686  -3.078  -0.585  0.00  0.00    -0.275 OA
ATOM     26  N   UNL     1       2.325  -2.806   1.522  0.00  0.00    -0.285 N 
ATOM     27  H   UNL     1       2.806  -2.272   2.174  0.00  0.00    +0.155 HD
BRANCH  24  28
ATOM     28  C   UNL     1       2.685  -0.991  -0.119  0.00  0.00    +0.096 C 
BRANCH  28  30
ATOM     29  C   UNL     1       2.917   0.654  -1.986  0.00  0.00    +0.004 C 
ATOM     30  C   UNL     1       2.420  -0.742  -1.606  0.00  0.00    +0.006 C 
ENDBRANCH  28  30
ENDBRANCH  24  28
ENDBRANCH  17  26
ENDBRANCH   1  21
TORSDOF 5
