REMARK  Name = ZINC09856306
REMARK  9 active torsions:
REMARK  status: ('A' for Active; 'I' for Inactive)
REMARK    1  A    between atoms: C_1  and  C_2
REMARK    2  A    between atoms: C_2  and  O_3
REMARK    3  A    between atoms: O_3  and  C_4
REMARK    4  A    between atoms: C_4  and  C_6
REMARK    5  A    between atoms: C_6  and  C_7
REMARK    6  A    between atoms: C_13  and  C_15
REMARK    7  A    between atoms: N_20  and  S_22
REMARK    8  A    between atoms: S_22  and  C_25
REMARK    9  A    between atoms: N_34  and  C_35
REMARK                            x       y       z     vdW  Elec       q    Type
REMARK                         _______ _______ _______ _____ _____    ______ ____
ROOT
ATOM      1  C   UNL     1      -0.729   1.579   1.268  0.00  0.00    +0.091 C 
ATOM      2  C   UNL     1      -0.013   1.086   0.008  0.00  0.00    +0.015 C 
ATOM      3  C   UNL     1      -0.752   1.593  -1.232  0.00  0.00    +0.018 C 
ATOM      4  C   UNL     1      -0.741   3.124  -1.238  0.00  0.00    +0.109 C 
ATOM      5  N   UNL     1      -1.296   3.606   0.034  0.00  0.00    -0.176 NA
ATOM      6  C   UNL     1      -0.717   3.111   1.290  0.00  0.00    +0.122 C 
ENDROOT
BRANCH   1  13
ATOM      7  C   UNL     1       1.613  -2.302   5.277  0.00  0.00    +0.061 A 
ATOM      8  C   UNL     1       2.057  -1.282   6.051  0.00  0.00    +0.072 A 
ATOM      9  S   UNL     1       1.499   0.124   5.100  0.00  0.00    -0.060 S 
ATOM     10  C   UNL     1       0.753  -0.761   3.806  0.00  0.00    +0.165 A 
ATOM     11  N   UNL     1       0.962  -2.012   4.168  0.00  0.00    -0.229 NA
ATOM     12  N   UNL     1       0.098  -0.276   2.680  0.00  0.00    -0.264 N 
ATOM     13  C   UNL     1      -0.018   1.053   2.488  0.00  0.00    +0.223 C 
ATOM     14  O   UNL     1       0.448   1.825   3.298  0.00  0.00    -0.275 OA
ATOM     15  H   UNL     1      -0.276  -0.894   2.032  0.00  0.00    +0.157 HD
BRANCH   7  16
ATOM     16  C   UNL     1       1.852  -3.735   5.678  0.00  0.00    +0.176 C 
BRANCH  16  17
ATOM     17  C   UNL     1       0.537  -4.470   5.725  0.00  0.00    +0.313 C 
ATOM     18  O   UNL     1      -0.489  -3.889   5.460  0.00  0.00    -0.250 OA
BRANCH  17  19
ATOM     19  O   UNL     1       0.505  -5.769   6.061  0.00  0.00    -0.465 OA
BRANCH  19  21
ATOM     20  C   UNL     1      -0.632  -7.880   6.487  0.00  0.00    +0.048 C 
ATOM     21  C   UNL     1      -0.796  -6.412   6.086  0.00  0.00    +0.229 C 
ENDBRANCH  19  21
ENDBRANCH  17  19
ENDBRANCH  16  17
ENDBRANCH   7  16
ENDBRANCH   1  13
BRANCH   5  22
ATOM     22  S   UNL     1      -2.550   4.688   0.052  0.00  0.00    +0.061 S 
ATOM     23  O   UNL     1      -2.485   5.364   1.300  0.00  0.00    -0.153 OA
ATOM     24  O   UNL     1      -2.509   5.377  -1.190  0.00  0.00    -0.153 OA
BRANCH  22  25
ATOM     25  C   UNL     1      -4.043   3.754   0.061  0.00  0.00    +0.109 A 
ATOM     26  C   UNL     1      -4.616   3.382   1.265  0.00  0.00    +0.031 A 
ATOM     27  C   UNL     1      -5.787   2.650   1.280  0.00  0.00    +0.031 A 
ATOM     28  C   UNL     1      -6.389   2.287   0.086  0.00  0.00    +0.090 A 
ATOM     29  C   UNL     1      -5.813   2.661  -1.128  0.00  0.00    +0.159 A 
ATOM     30  C   UNL     1      -4.641   3.401  -1.133  0.00  0.00    +0.077 A 
ATOM     31  O   UNL     1      -6.605   2.177  -2.116  0.00  0.00    -0.407 OA
ATOM     32  C   UNL     1      -7.641   1.522  -1.569  0.00  0.00    +0.421 A 
ATOM     33  O   UNL     1      -8.531   0.973  -2.190  0.00  0.00    -0.223 OA
ATOM     34  N   UNL     1      -7.543   1.568  -0.226  0.00  0.00    -0.277 N 
ATOM     35  C   UNL     1      -8.478   0.973   0.732  0.00  0.00    +0.156 C 
ENDBRANCH  22  25
ENDBRANCH   5  22
TORSDOF 7
