REMARK  Name = ZINC36050691
REMARK  10 active torsions:
REMARK  status: ('A' for Active; 'I' for Inactive)
REMARK    1  A    between atoms: C_1  and  C_2
REMARK    2  A    between atoms: C_7  and  C_8
REMARK    3  A    between atoms: C_10  and  C_30
REMARK    4  A    between atoms: C_11  and  C_29
REMARK    5  A    between atoms: C_15  and  C_18
REMARK    6  A    between atoms: C_19  and  N_21
REMARK    7  A    between atoms: N_21  and  C_22
REMARK    8  A    between atoms: C_22  and  C_23
REMARK    9  A    between atoms: C_30  and  O_32
REMARK   10  A    between atoms: O_32  and  C_33
REMARK                            x       y       z     vdW  Elec       q    Type
REMARK                         _______ _______ _______ _____ _____    ______ ____
ROOT
ATOM      1  C   UNL     1      -0.038  -0.138   2.534  0.00  0.00    +0.150 C 
ATOM      2  C   UNL     1      -1.420   0.057   3.116  0.00  0.00    +0.082 C 
ATOM      3  C   UNL     1      -1.657  -0.428   4.388  0.00  0.00    +0.053 C 
ATOM      4  N   UNL     1      -0.697  -1.040   5.062  0.00  0.00    -0.230 NA
ATOM      5  C   UNL     1       0.524  -1.242   4.614  0.00  0.00    +0.166 C 
ATOM      6  N   UNL     1       0.960  -0.841   3.383  0.00  0.00    -0.267 N 
ATOM      7  C   UNL     1       2.272  -1.128   3.059  0.00  0.00    +0.048 C 
ATOM      8  C   UNL     1       3.017  -1.778   3.980  0.00  0.00    +0.072 C 
ATOM      9  S   UNL     1       1.856  -1.987   5.313  0.00  0.00    -0.060 S 
ATOM     10  C   UNL     1      -3.018  -0.258   5.012  0.00  0.00    +0.066 C 
ENDROOT
BRANCH   1  17
ATOM     11  C   UNL     1       0.325   1.194  -0.004  0.00  0.00    +0.044 C 
ATOM     12  C   UNL     1      -0.008  -0.275   0.035  0.00  0.00    -0.045 A 
ATOM     13  C   UNL     1      -0.134  -0.987  -1.144  0.00  0.00    +0.004 A 
ATOM     14  C   UNL     1      -0.439  -2.334  -1.109  0.00  0.00    +0.000 A 
ATOM     15  C   UNL     1      -0.618  -2.971   0.106  0.00  0.00    +0.000 A 
ATOM     16  C   UNL     1      -0.491  -2.260   1.284  0.00  0.00    +0.006 A 
ATOM     17  C   UNL     1      -0.181  -0.913   1.249  0.00  0.00    -0.019 A 
ENDBRANCH   1  17
BRANCH   7  18
ATOM     18  C   UNL     1       2.837  -0.739   1.759  0.00  0.00    +0.091 C 
ATOM     19  C   UNL     1       4.067  -1.160   1.407  0.00  0.00    +0.239 C 
ATOM     20  O   UNL     1       4.726  -2.053   2.185  0.00  0.00    -0.271 OA
BRANCH  19  21
ATOM     21  N   UNL     1       4.657  -0.682   0.249  0.00  0.00    -0.309 N 
ATOM     22  H   UNL     1       4.218   0.011  -0.269  0.00  0.00    +0.149 HD
BRANCH  21  23
ATOM     23  C   UNL     1       5.946  -1.221  -0.193  0.00  0.00    +0.136 C 
BRANCH  23  24
ATOM     24  C   UNL     1       6.431  -0.442  -1.417  0.00  0.00    +0.135 C 
ATOM     25  C   UNL     1       7.777  -1.020  -1.923  0.00  0.00    +0.035 C 
ATOM     26  C   UNL     1       7.742  -0.588  -3.414  0.00  0.00    +0.031 C 
ATOM     27  C   UNL     1       6.237  -0.681  -3.747  0.00  0.00    +0.160 C 
ATOM     28  O   UNL     1       5.515  -0.610  -2.511  0.00  0.00    -0.375 OA
ENDBRANCH  23  24
ENDBRANCH  21  23
ENDBRANCH  19  21
ENDBRANCH   7  18
BRANCH   2  29
ATOM     29  C   UNL     1      -2.426   0.707   2.391  0.00  0.00    +0.339 C 
ATOM     30  O   UNL     1      -3.512   0.911   2.904  0.00  0.00    -0.245 OA
BRANCH  29  31
ATOM     31  O   UNL     1      -2.191   1.109   1.122  0.00  0.00    -0.465 OA
ATOM     32  C   UNL     1      -3.221   1.863   0.480  0.00  0.00    +0.280 C 
ENDBRANCH  29  31
ENDBRANCH   2  29
TORSDOF 7
