REMARK  Name = ZINC66118631
REMARK  8 active torsions:
REMARK  status: ('A' for Active; 'I' for Inactive)
REMARK    1  A    between atoms: C_1  and  O_2
REMARK    2  A    between atoms: O_2  and  C_3
REMARK    3  A    between atoms: C_5  and  C_17
REMARK    4  A    between atoms: C_8  and  O_9
REMARK    5  A    between atoms: O_9  and  C_10
REMARK    6  A    between atoms: C_10  and  C_11
REMARK    7  A    between atoms: N_28  and  C_29
REMARK    8  A    between atoms: C_29  and  C_30
REMARK                            x       y       z     vdW  Elec       q    Type
REMARK                         _______ _______ _______ _____ _____    ______ ____
ROOT
ATOM      1  C   UNL     1      -4.924   0.202   0.032  0.00  0.00    +0.193 C 
ATOM      2  N   UNL     1      -5.769  -0.214   1.158  0.00  0.00    -0.321 N 
ATOM      3  C   UNL     1      -6.472  -1.409   1.054  0.00  0.00    +0.041 A 
ATOM      4  C   UNL     1      -6.780  -2.177   2.164  0.00  0.00    +0.024 A 
ATOM      5  C   UNL     1      -7.478  -3.359   2.005  0.00  0.00    +0.002 A 
ATOM      6  C   UNL     1      -7.872  -3.781   0.744  0.00  0.00    +0.001 A 
ATOM      7  C   UNL     1      -7.574  -3.027  -0.372  0.00  0.00    +0.015 A 
ATOM      8  C   UNL     1      -6.872  -1.833  -0.226  0.00  0.00    +0.058 A 
ATOM      9  C   UNL     1      -6.535  -0.984  -1.383  0.00  0.00    +0.250 C 
ATOM     10  O   UNL     1      -7.065  -1.175  -2.461  0.00  0.00    -0.270 OA
ATOM     11  N   UNL     1      -5.633   0.004  -1.232  0.00  0.00    -0.268 N 
ATOM     12  H   UNL     1      -5.836   0.333   1.956  0.00  0.00    +0.148 HD
ENDROOT
BRANCH   1  15
ATOM     13  C   UNL     1      -1.281  -0.767   0.292  0.00  0.00    +0.162 A 
ATOM     14  C   UNL     1      -2.445  -0.014   0.295  0.00  0.00    +0.056 A 
ATOM     15  C   UNL     1      -3.659  -0.618   0.028  0.00  0.00    -0.006 A 
ATOM     16  C   UNL     1      -3.716  -1.973  -0.242  0.00  0.00    +0.011 A 
ATOM     17  C   UNL     1      -2.559  -2.729  -0.246  0.00  0.00    +0.050 A 
ATOM     18  C   UNL     1      -1.338  -2.129   0.015  0.00  0.00    +0.162 A 
BRANCH  13  20
ATOM     19  C   UNL     1      -0.103   1.228   0.831  0.00  0.00    +0.277 C 
ATOM     20  O   UNL     1      -0.086  -0.174   0.554  0.00  0.00    -0.491 OA
ENDBRANCH  13  20
BRANCH  18  21
ATOM     21  O   UNL     1      -0.198  -2.871   0.005  0.00  0.00    -0.486 OA
BRANCH  21  22
ATOM     22  C   UNL     1      -0.333  -4.263  -0.288  0.00  0.00    +0.260 C 
BRANCH  22  23
ATOM     23  C   UNL     1       1.046  -4.927  -0.253  0.00  0.00    +0.156 C 
ATOM     24  C   UNL     1       0.913  -6.454  -0.479  0.00  0.00    +0.037 C 
ATOM     25  C   UNL     1       2.320  -6.792  -1.040  0.00  0.00    +0.031 C 
ATOM     26  C   UNL     1       2.665  -5.522  -1.848  0.00  0.00    +0.160 C 
ATOM     27  O   UNL     1       1.854  -4.454  -1.342  0.00  0.00    -0.373 OA
ENDBRANCH  22  23
ENDBRANCH  21  22
ENDBRANCH  18  21
ENDBRANCH   1  15
BRANCH  11  28
ATOM     28  C   UNL     1      -5.358   0.897  -2.359  0.00  0.00    +0.184 C 
BRANCH  28  29
ATOM     29  C   UNL     1      -4.327   0.267  -3.260  0.00  0.00    +0.122 A 
ATOM     30  C   UNL     1      -4.586  -0.488  -4.343  0.00  0.00    +0.046 A 
ATOM     31  C   UNL     1      -3.337  -0.869  -4.885  0.00  0.00    +0.041 A 
ATOM     32  C   UNL     1      -2.389  -0.324  -4.101  0.00  0.00    +0.195 A 
ATOM     33  O   UNL     1      -2.995   0.368  -3.122  0.00  0.00    -0.466 OA
ENDBRANCH  28  29
ENDBRANCH  11  28
TORSDOF 7
