REMARK  Name = ZINC24967295
REMARK  6 active torsions:
REMARK  status: ('A' for Active; 'I' for Inactive)
REMARK    1  A    between atoms: C_1  and  C_2
REMARK    2  A    between atoms: C_2  and  C_4
REMARK    3  A    between atoms: C_2  and  S_18
REMARK    4  A    between atoms: N_10  and  C_11
REMARK    5  A    between atoms: S_18  and  C_19
REMARK    6  A    between atoms: N_24  and  C_25
REMARK                            x       y       z     vdW  Elec       q    Type
REMARK                         _______ _______ _______ _____ _____    ______ ____
ROOT
ATOM      1  C   UNL     1       0.734  -0.387   1.282  0.00  0.00    +0.149 A 
ATOM      2  N   UNL     1       2.047  -0.529   1.229  0.00  0.00    -0.198 NA
ATOM      3  C   UNL     1       2.690  -1.160   2.209  0.00  0.00    +0.217 A 
ATOM      4  N   UNL     1       2.010  -1.647   3.241  0.00  0.00    -0.181 NA
ATOM      5  C   UNL     1       0.691  -1.501   3.292  0.00  0.00    +0.224 A 
ATOM      6  N   UNL     1       0.055  -0.865   2.310  0.00  0.00    -0.198 NA
ATOM      7  N   UNL     1      -0.021  -2.006   4.363  0.00  0.00    -0.284 N 
ATOM      8  N   UNL     1       4.061  -1.309   2.152  0.00  0.00    -0.327 N 
ATOM      9  H   UNL     1      -0.990  -1.972   4.360  0.00  0.00    +0.155 HD
ATOM     10  H   UNL     1       4.556  -0.954   1.397  0.00  0.00    +0.145 HD
ATOM     11  H   UNL     1       4.529  -1.769   2.866  0.00  0.00    +0.145 HD
ENDROOT
BRANCH   7  12
ATOM     12  C   UNL     1       0.657  -2.565   5.451  0.00  0.00    +0.034 A 
ATOM     13  C   UNL     1       1.852  -2.007   5.888  0.00  0.00    +0.023 A 
ATOM     14  C   UNL     1       2.518  -2.562   6.963  0.00  0.00    +0.002 A 
ATOM     15  C   UNL     1       1.998  -3.671   7.604  0.00  0.00    +0.000 A 
ATOM     16  C   UNL     1       0.808  -4.228   7.171  0.00  0.00    +0.002 A 
ATOM     17  C   UNL     1       0.134  -3.675   6.101  0.00  0.00    +0.023 A 
ENDBRANCH   7  12
BRANCH   1  19
ATOM     18  C   UNL     1       0.254   1.834   0.289  0.00  0.00    +0.027 C 
ATOM     19  C   UNL     1       0.010   0.328   0.171  0.00  0.00    +0.118 C 
BRANCH  19  20
ATOM     20  S   UNL     1       0.628  -0.260  -1.430  0.00  0.00    -0.086 S 
BRANCH  20  21
ATOM     21  C   UNL     1      -0.404   0.548  -2.608  0.00  0.00    +0.161 A 
ATOM     22  N   UNL     1      -1.397   1.393  -2.409  0.00  0.00    -0.133 NA
ATOM     23  N   UNL     1      -2.079   1.913  -3.485  0.00  0.00    -0.125 NA
ATOM     24  C   UNL     1      -1.738   1.563  -4.710  0.00  0.00    +0.183 A 
ATOM     25  S   UNL     1      -0.380   0.447  -4.392  0.00  0.00    -0.025 S 
ATOM     26  N   UNL     1      -2.285   1.962  -5.924  0.00  0.00    -0.319 N 
ATOM     27  H   UNL     1      -1.924   1.615  -6.755  0.00  0.00    +0.148 HD
BRANCH  26  28
ATOM     28  C   UNL     1      -3.406   2.904  -5.949  0.00  0.00    +0.072 C 
ATOM     29  C   UNL     1      -4.719   2.139  -5.776  0.00  0.00    +0.022 C 
ATOM     30  C   UNL     1      -5.890   3.124  -5.801  0.00  0.00    +0.002 C 
ATOM     31  C   UNL     1      -5.904   3.865  -7.140  0.00  0.00    +0.000 C 
ATOM     32  C   UNL     1      -4.590   4.630  -7.313  0.00  0.00    +0.002 C 
ATOM     33  C   UNL     1      -3.420   3.645  -7.287  0.00  0.00    +0.022 C 
ENDBRANCH  26  28
ENDBRANCH  20  21
ENDBRANCH  19  20
ENDBRANCH   1  19
TORSDOF 5
