REMARK  Name = ZINC07221181
REMARK  7 active torsions:
REMARK  status: ('A' for Active; 'I' for Inactive)
REMARK    1  A    between atoms: C_1  and  C_2
REMARK    2  A    between atoms: C_2  and  C_4
REMARK    3  A    between atoms: C_2  and  N_21
REMARK    4  A    between atoms: N_6  and  C_7
REMARK    5  A    between atoms: C_10  and  S_13
REMARK    6  A    between atoms: S_13  and  N_16
REMARK    7  A    between atoms: N_21  and  C_22
REMARK                            x       y       z     vdW  Elec       q    Type
REMARK                         _______ _______ _______ _____ _____    ______ ____
ROOT
ATOM      1  C   UNL     1      -2.176   5.786  -0.772  0.00  0.00    +0.237 C 
ATOM      2  O   UNL     1      -3.094   6.320  -1.357  0.00  0.00    -0.273 OA
ATOM      3  N   UNL     1      -0.990   6.416  -0.660  0.00  0.00    -0.284 N 
ATOM      4  H   UNL     1      -0.278   6.019  -0.136  0.00  0.00    +0.155 HD
ENDROOT
BRANCH   3   5
ATOM      5  C   UNL     1      -0.787   7.643  -1.302  0.00  0.00    +0.034 A 
ATOM      6  C   UNL     1       0.462   7.957  -1.823  0.00  0.00    +0.025 A 
ATOM      7  C   UNL     1       0.657   9.167  -2.460  0.00  0.00    +0.030 A 
ATOM      8  C   UNL     1      -0.385  10.069  -2.570  0.00  0.00    +0.106 A 
ATOM      9  C   UNL     1      -1.627   9.761  -2.047  0.00  0.00    +0.030 A 
ATOM     10  C   UNL     1      -1.831   8.551  -1.413  0.00  0.00    +0.025 A 
BRANCH   8  11
ATOM     11  S   UNL     1      -0.129  11.614  -3.378  0.00  0.00    +0.061 S 
ATOM     12  O   UNL     1       0.971  11.434  -4.259  0.00  0.00    -0.153 OA
ATOM     13  O   UNL     1      -1.403  12.052  -3.829  0.00  0.00    -0.153 OA
BRANCH  11  14
ATOM     14  N   UNL     1       0.362  12.695  -2.224  0.00  0.00    -0.177 NA
ATOM     15  C   UNL     1      -0.523  13.555  -1.424  0.00  0.00    +0.109 C 
ATOM     16  C   UNL     1       0.376  14.406  -0.503  0.00  0.00    +0.018 C 
ATOM     17  C   UNL     1       1.741  14.390  -1.241  0.00  0.00    +0.018 C 
ATOM     18  C   UNL     1       1.758  12.958  -1.831  0.00  0.00    +0.109 C 
ENDBRANCH  11  14
ENDBRANCH   8  11
ENDBRANCH   3   5
BRANCH   1  20
ATOM     19  C   UNL     1      -1.365   3.443  -0.800  0.00  0.00    +0.038 C 
ATOM     20  C   UNL     1      -2.362   4.417  -0.169  0.00  0.00    +0.154 C 
BRANCH  20  21
ATOM     21  N   UNL     1      -3.727   3.952  -0.425  0.00  0.00    -0.333 N 
ATOM     22  H   UNL     1      -4.223   4.298  -1.183  0.00  0.00    +0.147 HD
BRANCH  21  23
ATOM     23  C   UNL     1      -4.316   3.009   0.425  0.00  0.00    +0.031 A 
ATOM     24  C   UNL     1      -3.606   2.514   1.511  0.00  0.00    +0.027 A 
ATOM     25  C   UNL     1      -4.186   1.583   2.352  0.00  0.00    +0.051 A 
ATOM     26  C   UNL     1      -5.477   1.141   2.113  0.00  0.00    +0.166 A 
ATOM     27  C   UNL     1      -6.192   1.635   1.025  0.00  0.00    +0.168 A 
ATOM     28  C   UNL     1      -5.610   2.569   0.183  0.00  0.00    +0.072 A 
ATOM     29  O   UNL     1      -7.425   1.049   1.010  0.00  0.00    -0.453 OA
ATOM     30  C   UNL     1      -7.606   0.500   2.328  0.00  0.00    +0.466 C 
ATOM     31  O   UNL     1      -6.263   0.244   2.780  0.00  0.00    -0.453 OA
ENDBRANCH  21  23
ENDBRANCH  20  21
ENDBRANCH   1  20
TORSDOF 6
