REMARK  Name = ZINC14637689
REMARK  9 active torsions:
REMARK  status: ('A' for Active; 'I' for Inactive)
REMARK    1  A    between atoms: C_1  and  C_2
REMARK    2  A    between atoms: C_4  and  S_18
REMARK    3  A    between atoms: C_6  and  N_9
REMARK    4  A    between atoms: C_7  and  C_8
REMARK    5  A    between atoms: C_10  and  C_12
REMARK    6  A    between atoms: C_15  and  C_17
REMARK    7  A    between atoms: S_18  and  N_21
REMARK    8  A    between atoms: N_21  and  C_22
REMARK    9  A    between atoms: N_21  and  C_23
REMARK                            x       y       z     vdW  Elec       q    Type
REMARK                         _______ _______ _______ _____ _____    ______ ____
ROOT
ATOM      1  C   UNL     1       4.394  -3.627  -1.430  0.00  0.00    +0.044 C 
ATOM      2  C   UNL     1       3.663  -2.388  -1.879  0.00  0.00    -0.044 A 
ATOM      3  C   UNL     1       2.341  -2.199  -1.521  0.00  0.00    +0.032 A 
ATOM      4  C   UNL     1       1.666  -1.063  -1.930  0.00  0.00    +0.107 A 
ATOM      5  C   UNL     1       2.310  -0.116  -2.703  0.00  0.00    +0.052 A 
ATOM      6  C   UNL     1       3.639  -0.300  -3.059  0.00  0.00    +0.038 A 
ATOM      7  C   UNL     1       4.314  -1.442  -2.646  0.00  0.00    -0.026 A 
ATOM      8  C   UNL     1       5.755  -1.649  -3.035  0.00  0.00    +0.046 C 
ENDROOT
BRANCH   6   9
ATOM      9  N   UNL     1       4.296   0.659  -3.836  0.00  0.00    -0.285 N 
ATOM     10  C   UNL     1       3.870   1.938  -3.830  0.00  0.00    +0.221 C 
ATOM     11  O   UNL     1       2.983   2.278  -3.077  0.00  0.00    -0.275 OA
ATOM     12  H   UNL     1       5.058   0.405  -4.380  0.00  0.00    +0.155 HD
BRANCH  10  13
ATOM     13  C   UNL     1       4.497   2.946  -4.760  0.00  0.00    +0.078 C 
ATOM     14  C   UNL     1       3.632   3.487  -5.901  0.00  0.00    +0.017 C 
ATOM     15  C   UNL     1       3.969   4.381  -4.705  0.00  0.00    -0.002 C 
ATOM     16  C   UNL     1       4.974   5.512  -4.930  0.00  0.00    +0.008 C 
ENDBRANCH  10  13
ENDBRANCH   6   9
BRANCH   4  17
ATOM     17  S   UNL     1      -0.019  -0.827  -1.472  0.00  0.00    +0.060 S 
ATOM     18  O   UNL     1      -0.553  -2.118  -1.212  0.00  0.00    -0.153 OA
ATOM     19  O   UNL     1      -0.583   0.051  -2.436  0.00  0.00    -0.153 OA
BRANCH  17  20
ATOM     20  N   UNL     1      -0.025  -0.013  -0.030  0.00  0.00    -0.183 NA
ATOM     21  C   UNL     1      -0.042   1.452  -0.016  0.00  0.00    +0.131 C 
ATOM     22  C   UNL     1      -0.012  -0.758   1.232  0.00  0.00    +0.131 C 
ENDBRANCH  17  20
ENDBRANCH   4  17
TORSDOF 4
