REMARK  Name = ZINC27993552
REMARK  8 active torsions:
REMARK  status: ('A' for Active; 'I' for Inactive)
REMARK    1  A    between atoms: C_1  and  C_2
REMARK    2  A    between atoms: C_2  and  C_4
REMARK    3  A    between atoms: C_2  and  O_20
REMARK    4  A    between atoms: N_6  and  C_7
REMARK    5  A    between atoms: C_7  and  C_8
REMARK    6  A    between atoms: C_8  and  C_9
REMARK    7  A    between atoms: C_12  and  C_14
REMARK    8  A    between atoms: O_20  and  C_21
REMARK                            x       y       z     vdW  Elec       q    Type
REMARK                         _______ _______ _______ _____ _____    ______ ____
ROOT
ATOM      1  C   UNL     1      -0.045   5.453   0.531  0.00  0.00    +0.254 C 
ATOM      2  O   UNL     1       1.018   5.885   0.923  0.00  0.00    -0.272 OA
ATOM      3  N   UNL     1      -1.160   6.201   0.646  0.00  0.00    -0.312 N 
ATOM      4  H   UNL     1      -2.124   5.809   0.290  0.00  0.00    +0.149 HD
ENDROOT
BRANCH   1   6
ATOM      5  C   UNL     1      -0.518   4.203  -1.558  0.00  0.00    +0.062 C 
ATOM      6  C   UNL     1      -0.118   4.080  -0.086  0.00  0.00    +0.256 C 
BRANCH   6   7
ATOM      7  O   UNL     1       1.159   3.446   0.009  0.00  0.00    -0.477 OA
BRANCH   7   8
ATOM      8  C   UNL     1       1.175   2.087   0.004  0.00  0.00    +0.157 A 
ATOM      9  C   UNL     1       0.001   1.379  -0.206  0.00  0.00    +0.048 A 
ATOM     10  C   UNL     1       0.020  -0.003  -0.212  0.00  0.00    +0.004 A 
ATOM     11  C   UNL     1       1.207  -0.681  -0.009  0.00  0.00    +0.003 A 
ATOM     12  C   UNL     1       2.380   0.021   0.200  0.00  0.00    +0.042 A 
ATOM     13  C   UNL     1       2.367   1.404   0.207  0.00  0.00    +0.165 A 
ATOM     14  F   UNL     1       3.513   2.090   0.412  0.00  0.00    -0.202 F 
ENDBRANCH   7   8
ENDBRANCH   6   7
ENDBRANCH   1   6
BRANCH   3  15
ATOM     15  C   UNL     1      -1.089   7.535   1.246  0.00  0.00    +0.110 C 
BRANCH  15  16
ATOM     16  C   UNL     1      -2.483   8.165   1.256  0.00  0.00    +0.074 C 
BRANCH  16  17
ATOM     17  C   UNL     1      -2.409   9.538   1.873  0.00  0.00    +0.051 A 
ATOM     18  C   UNL     1      -2.870  10.618   1.188  0.00  0.00    +0.070 A 
ATOM     19  S   UNL     1      -2.541  11.922   2.367  0.00  0.00    -0.075 S 
ATOM     20  C   UNL     1      -1.819  10.890   3.637  0.00  0.00    +0.109 A 
ATOM     21  N   UNL     1      -1.896   9.694   3.071  0.00  0.00    -0.244 NA
BRANCH  20  22
ATOM     22  C   UNL     1      -1.282  11.270   4.961  0.00  0.00    +0.007 A 
ATOM     23  C   UNL     1      -0.762  10.293   5.812  0.00  0.00    +0.010 A 
ATOM     24  C   UNL     1      -0.257  10.655   7.044  0.00  0.00    +0.001 A 
ATOM     25  C   UNL     1      -0.275  11.980   7.441  0.00  0.00    +0.000 A 
ATOM     26  C   UNL     1      -0.794  12.952   6.604  0.00  0.00    +0.001 A 
ATOM     27  C   UNL     1      -1.297  12.605   5.367  0.00  0.00    +0.010 A 
ENDBRANCH  20  22
ENDBRANCH  16  17
ENDBRANCH  15  16
ENDBRANCH   3  15
TORSDOF 7
