REMARK  Name = ZINC24719508
REMARK  8 active torsions:
REMARK  status: ('A' for Active; 'I' for Inactive)
REMARK    1  A    between atoms: C_1  and  C_2
REMARK    2  A    between atoms: C_3  and  C_28
REMARK    3  A    between atoms: N_9  and  C_12
REMARK    4  A    between atoms: C_12  and  C_13
REMARK    5  A    between atoms: C_13  and  C_15
REMARK    6  A    between atoms: C_13  and  O_27
REMARK    7  A    between atoms: C_15  and  O_16
REMARK    8  A    between atoms: O_16  and  C_17
REMARK                            x       y       z     vdW  Elec       q    Type
REMARK                         _______ _______ _______ _____ _____    ______ ____
ROOT
ATOM      1  C   UNL     1      -4.442  15.008  -2.766  0.00  0.00    +0.052 C 
ATOM      2  C   UNL     1      -4.479  13.860  -1.789  0.00  0.00    -0.003 A 
ATOM      3  C   UNL     1      -4.657  12.542  -2.048  0.00  0.00    +0.007 A 
ATOM      4  C   UNL     1      -4.657  11.602  -0.934  0.00  0.00    +0.080 A 
ATOM      5  C   UNL     1      -4.465  12.180   0.332  0.00  0.00    +0.116 A 
ATOM      6  S   UNL     1      -4.299  13.912  -0.017  0.00  0.00    -0.073 S 
ATOM      7  N   UNL     1      -4.441  11.448   1.443  0.00  0.00    -0.230 NA
ATOM      8  C   UNL     1      -4.601  10.153   1.399  0.00  0.00    +0.203 A 
ATOM      9  N   UNL     1      -4.787   9.509   0.218  0.00  0.00    -0.296 N 
ATOM     10  C   UNL     1      -4.823  10.181  -0.947  0.00  0.00    +0.263 A 
ATOM     11  O   UNL     1      -4.996   9.588  -1.998  0.00  0.00    -0.267 OA
ENDROOT
BRANCH   3  12
ATOM     12  C   UNL     1      -4.849  12.065  -3.438  0.00  0.00    -0.016 A 
ATOM     13  C   UNL     1      -3.895  11.241  -4.033  0.00  0.00    +0.008 A 
ATOM     14  C   UNL     1      -4.081  10.795  -5.326  0.00  0.00    +0.001 A 
ATOM     15  C   UNL     1      -5.207  11.174  -6.035  0.00  0.00    +0.000 A 
ATOM     16  C   UNL     1      -6.154  11.996  -5.452  0.00  0.00    +0.001 A 
ATOM     17  C   UNL     1      -5.981  12.443  -4.159  0.00  0.00    +0.008 A 
ENDBRANCH   3  12
BRANCH   9  18
ATOM     18  C   UNL     1      -4.957   8.053   0.213  0.00  0.00    +0.161 C 
BRANCH  18  19
ATOM     19  C   UNL     1      -3.590   7.381   0.071  0.00  0.00    +0.172 C 
BRANCH  19  20
ATOM     20  O   UNL     1      -2.981   7.793  -1.154  0.00  0.00    -0.387 OA
ATOM     21  H   UNL     1      -1.988   7.411  -1.431  0.00  0.00    +0.210 HD
ENDBRANCH  19  20
BRANCH  19  22
ATOM     22  C   UNL     1      -3.768   5.861   0.066  0.00  0.00    +0.262 C 
BRANCH  22  23
ATOM     23  O   UNL     1      -2.485   5.232   0.051  0.00  0.00    -0.489 OA
BRANCH  23  24
ATOM     24  C   UNL     1      -2.464   3.874   0.045  0.00  0.00    +0.128 A 
ATOM     25  C   UNL     1      -3.635   3.168   0.052  0.00  0.00    +0.046 A 
ATOM     26  C   UNL     1      -3.631   1.776   0.046  0.00  0.00    +0.004 A 
ATOM     27  C   UNL     1      -2.462   1.077   0.031  0.00  0.00    +0.009 A 
ATOM     28  C   UNL     1      -1.237   1.766   0.018  0.00  0.00    -0.014 A 
ATOM     29  C   UNL     1      -1.236   3.183   0.030  0.00  0.00    +0.024 A 
ATOM     30  C   UNL     1      -0.012   3.871   0.022  0.00  0.00    +0.012 A 
ATOM     31  C   UNL     1       1.155   3.170   0.008  0.00  0.00    +0.001 A 
ATOM     32  C   UNL     1       1.155   1.776   0.001  0.00  0.00    +0.001 A 
ATOM     33  C   UNL     1      -0.013   1.076   0.008  0.00  0.00    +0.008 A 
ENDBRANCH  23  24
ENDBRANCH  22  23
ENDBRANCH  19  22
ENDBRANCH  18  19
ENDBRANCH   9  18
TORSDOF 7
