REMARK  Name = ZINC63137372
REMARK  8 active torsions:
REMARK  status: ('A' for Active; 'I' for Inactive)
REMARK    1  A    between atoms: C_1  and  C_2
REMARK    2  A    between atoms: C_2  and  C_3
REMARK    3  A    between atoms: C_2  and  C_4
REMARK    4  A    between atoms: C_7  and  C_10
REMARK    5  A    between atoms: N_29  and  C_32
REMARK    6  A    between atoms: C_32  and  C_33
REMARK    7  A    between atoms: C_33  and  C_35
REMARK    8  A    between atoms: C_33  and  O_41
REMARK                            x       y       z     vdW  Elec       q    Type
REMARK                         _______ _______ _______ _____ _____    ______ ____
ROOT
ATOM      1  C   UNL     1      -5.419  -2.005   0.043  0.00  0.00    +0.133 C 
ATOM      2  C   UNL     1      -6.318  -1.088  -0.791  0.00  0.00    +0.131 C 
ATOM      3  C   UNL     1      -5.913  -1.284  -2.247  0.00  0.00    -0.034 C 
ATOM      4  C   UNL     1      -5.607  -0.080  -2.716  0.00  0.00    -0.001 A 
ATOM      5  C   UNL     1      -5.221   0.378  -4.060  0.00  0.00    +0.010 A 
ATOM      6  C   UNL     1      -4.962   1.706  -4.190  0.00  0.00    +0.001 A 
ATOM      7  C   UNL     1      -5.047   2.613  -3.129  0.00  0.00    +0.002 A 
ATOM      8  C   UNL     1      -5.400   2.280  -1.862  0.00  0.00    +0.026 A 
ATOM      9  C   UNL     1      -5.702   0.912  -1.602  0.00  0.00    +0.043 A 
ATOM     10  N   UNL     1      -6.092   0.326  -0.486  0.00  0.00    -0.375 N 
ATOM     11  C   UNL     1      -5.835  -2.648  -2.888  0.00  0.00    +0.065 C 
ATOM     12  C   UNL     1      -5.002  -3.531  -1.940  0.00  0.00    +0.167 C 
ATOM     13  N   UNL     1      -5.460  -3.353  -0.566  0.00  0.00    -0.279 N 
ATOM     14  C   UNL     1      -5.925  -4.363   0.179  0.00  0.00    +0.234 C 
ATOM     15  O   UNL     1      -6.303  -4.107   1.303  0.00  0.00    -0.274 OA
ATOM     16  C   UNL     1      -6.012  -5.782  -0.275  0.00  0.00    +0.203 C 
ATOM     17  N   UNL     1      -5.523  -5.956  -1.633  0.00  0.00    -0.288 N 
ATOM     18  C   UNL     1      -5.070  -4.953  -2.389  0.00  0.00    +0.237 C 
ATOM     19  O   UNL     1      -4.688  -5.214  -3.510  0.00  0.00    -0.274 OA
ATOM     20  H   UNL     1      -6.206   0.744   0.382  0.00  0.00    +0.160 HD
ENDROOT
BRANCH   1  24
ATOM     21  C   UNL     1      -1.412  -0.526   0.012  0.00  0.00    -0.045 A 
ATOM     22  C   UNL     1      -2.085  -0.673   1.210  0.00  0.00    +0.004 A 
ATOM     23  C   UNL     1      -3.381  -1.152   1.220  0.00  0.00    +0.006 A 
ATOM     24  C   UNL     1      -4.006  -1.482   0.032  0.00  0.00    -0.025 A 
ATOM     25  C   UNL     1      -3.333  -1.334  -1.166  0.00  0.00    +0.006 A 
ATOM     26  C   UNL     1      -2.038  -0.852  -1.177  0.00  0.00    +0.004 A 
BRANCH  21  28
ATOM     27  C   UNL     1       0.035   1.393   0.623  0.00  0.00    +0.012 C 
ATOM     28  C   UNL     1       0.002  -0.004   0.001  0.00  0.00    +0.013 C 
ATOM     29  C   UNL     1       0.899  -0.944   0.809  0.00  0.00    +0.012 C 
ENDBRANCH  21  28
ENDBRANCH   1  24
BRANCH  17  30
ATOM     30  C   UNL     1      -5.530  -7.305  -2.204  0.00  0.00    +0.144 C 
BRANCH  30  31
ATOM     31  C   UNL     1      -6.864  -7.553  -2.911  0.00  0.00    +0.162 C 
BRANCH  31  32
ATOM     32  C   UNL     1      -6.871  -8.940  -3.498  0.00  0.00    -0.018 A 
ATOM     33  C   UNL     1      -7.242 -10.020  -2.718  0.00  0.00    +0.006 A 
ATOM     34  C   UNL     1      -7.248 -11.292  -3.257  0.00  0.00    +0.000 A 
ATOM     35  C   UNL     1      -6.885 -11.486  -4.577  0.00  0.00    +0.000 A 
ATOM     36  C   UNL     1      -6.515 -10.407  -5.357  0.00  0.00    +0.000 A 
ATOM     37  C   UNL     1      -6.513  -9.133  -4.819  0.00  0.00    +0.006 A 
ENDBRANCH  31  32
BRANCH  31  38
ATOM     38  O   UNL     1      -7.932  -7.429  -1.969  0.00  0.00    -0.386 OA
ATOM     39  H   UNL     1      -7.880  -8.051  -1.231  0.00  0.00    +0.210 HD
ENDBRANCH  31  38
ENDBRANCH  30  31
ENDBRANCH  17  30
TORSDOF 6
