REMARK  Name = ZINC13734477
REMARK  3 active torsions:
REMARK  status: ('A' for Active; 'I' for Inactive)
REMARK    1  A    between atoms: C_4  and  C_7
REMARK    2  A    between atoms: C_8  and  C_9
REMARK    3  A    between atoms: N_18  and  C_21
REMARK                            x       y       z     vdW  Elec       q    Type
REMARK                         _______ _______ _______ _____ _____    ______ ____
ROOT
ATOM      1  C   UNL     1       4.958  -2.761  -0.076  0.00  0.00    +0.096 C 
ATOM      2  N   UNL     1       6.114  -2.182  -0.076  0.00  0.00    -0.088 NA
ATOM      3  O   UNL     1       7.188  -3.099  -0.092  0.00  0.00    -0.380 OA
ATOM      4  C   UNL     1       6.680  -4.392   0.278  0.00  0.00    +0.308 C 
ATOM      5  C   UNL     1       5.168  -4.262  -0.076  0.00  0.00    +0.180 C 
ATOM      6  C   UNL     1       4.506  -4.847   1.159  0.00  0.00    +0.239 C 
ATOM      7  O   UNL     1       3.364  -5.247   1.228  0.00  0.00    -0.274 OA
ATOM      8  N   UNL     1       5.398  -4.847   2.161  0.00  0.00    -0.207 N 
ATOM      9  C   UNL     1       6.659  -4.518   1.788  0.00  0.00    +0.271 C 
ATOM     10  O   UNL     1       7.603  -4.338   2.526  0.00  0.00    -0.271 OA
ENDROOT
BRANCH   8  11
ATOM     11  C   UNL     1       5.060  -5.180   3.480  0.00  0.00    +0.044 A 
ATOM     12  C   UNL     1       6.052  -5.284   4.447  0.00  0.00    +0.024 A 
ATOM     13  C   UNL     1       5.716  -5.612   5.746  0.00  0.00    +0.002 A 
ATOM     14  C   UNL     1       4.394  -5.836   6.084  0.00  0.00    +0.000 A 
ATOM     15  C   UNL     1       3.405  -5.733   5.124  0.00  0.00    +0.002 A 
ATOM     16  C   UNL     1       3.733  -5.399   3.825  0.00  0.00    +0.024 A 
ENDBRANCH   8  11
BRANCH   1  18
ATOM     17  C   UNL     1       3.609  -0.734  -0.072  0.00  0.00    +0.010 C 
ATOM     18  C   UNL     1       3.663  -2.080  -0.071  0.00  0.00    +0.028 C 
BRANCH  17  22
ATOM     19  C   UNL     1      -0.146   1.241  -0.059  0.00  0.00    +0.000 A 
ATOM     20  C   UNL     1       1.022   1.983  -0.063  0.00  0.00    +0.001 A 
ATOM     21  C   UNL     1       2.247   1.349  -0.068  0.00  0.00    +0.008 A 
ATOM     22  C   UNL     1       2.306  -0.048  -0.067  0.00  0.00    -0.025 A 
ATOM     23  C   UNL     1       1.122  -0.791  -0.062  0.00  0.00    +0.008 A 
ATOM     24  C   UNL     1      -0.095  -0.142  -0.058  0.00  0.00    +0.001 A 
ENDBRANCH  17  22
ENDBRANCH   1  18
TORSDOF 3
