REMARK  Name = ZINC39751203
REMARK  10 active torsions:
REMARK  status: ('A' for Active; 'I' for Inactive)
REMARK    1  A    between atoms: C_1  and  C_2
REMARK    2  A    between atoms: C_2  and  N_3
REMARK    3  A    between atoms: C_4  and  C_22
REMARK    4  A    between atoms: C_7  and  S_8
REMARK    5  A    between atoms: S_8  and  C_9
REMARK    6  A    between atoms: C_9  and  C_11
REMARK    7  A    between atoms: C_9  and  C_12
REMARK    8  A    between atoms: N_14  and  C_15
REMARK    9  A    between atoms: C_20  and  O_21
REMARK   10  A    between atoms: C_23  and  C_31
REMARK                            x       y       z     vdW  Elec       q    Type
REMARK                         _______ _______ _______ _____ _____    ______ ____
ROOT
ATOM      1  N   UNL     1      -1.339  -0.550   0.009  0.00  0.00    -0.300 N 
ATOM      2  C   UNL     1      -2.106  -0.846   1.115  0.00  0.00    +0.201 A 
ATOM      3  N   UNL     1      -3.270  -1.270   0.673  0.00  0.00    -0.125 NA
ATOM      4  N   UNL     1      -3.282  -1.259  -0.612  0.00  0.00    -0.122 NA
ATOM      5  C   UNL     1      -2.130  -0.823  -1.071  0.00  0.00    +0.193 A 
ENDROOT
BRANCH   2   6
ATOM      6  C   UNL     1      -1.699  -0.713   2.522  0.00  0.00    +0.176 A 
ATOM      7  C   UNL     1      -2.477  -1.018   3.592  0.00  0.00    +0.006 A 
ATOM      8  C   UNL     1      -1.667  -0.732   4.777  0.00  0.00    +0.024 A 
ATOM      9  C   UNL     1      -1.885  -0.833   6.153  0.00  0.00    +0.012 A 
ATOM     10  C   UNL     1      -0.894  -0.475   7.024  0.00  0.00    +0.001 A 
ATOM     11  C   UNL     1       0.325  -0.013   6.549  0.00  0.00    +0.004 A 
ATOM     12  C   UNL     1       0.559   0.093   5.194  0.00  0.00    +0.047 A 
ATOM     13  C   UNL     1      -0.433  -0.265   4.291  0.00  0.00    +0.136 A 
ATOM     14  O   UNL     1      -0.495  -0.276   2.944  0.00  0.00    -0.451 OA
ATOM     15  C   UNL     1      -3.889  -1.544   3.565  0.00  0.00    +0.048 C 
ENDBRANCH   2   6
BRANCH   1  17
ATOM     16  C   UNL     1       0.015   1.486   0.012  0.00  0.00    +0.027 C 
ATOM     17  C   UNL     1       0.035  -0.044  -0.006  0.00  0.00    +0.122 C 
ENDBRANCH   1  17
BRANCH   5  18
ATOM     18  S   UNL     1      -1.687  -0.629  -2.766  0.00  0.00    -0.074 S 
BRANCH  18  19
ATOM     19  C   UNL     1      -3.168  -1.159  -3.670  0.00  0.00    +0.137 C 
ATOM     20  C   UNL     1      -4.319  -0.195  -3.373  0.00  0.00    +0.029 C 
BRANCH  19  21
ATOM     21  C   UNL     1      -2.881  -1.159  -5.149  0.00  0.00    +0.230 C 
ATOM     22  O   UNL     1      -1.953  -0.511  -5.586  0.00  0.00    -0.274 OA
ATOM     23  N   UNL     1      -3.655  -1.878  -5.986  0.00  0.00    -0.282 N 
ATOM     24  H   UNL     1      -4.356  -2.446  -5.630  0.00  0.00    +0.155 HD
BRANCH  23  25
ATOM     25  C   UNL     1      -3.446  -1.805  -7.370  0.00  0.00    +0.075 A 
ATOM     26  C   UNL     1      -2.163  -1.649  -7.872  0.00  0.00    +0.027 A 
ATOM     27  C   UNL     1      -1.960  -1.578  -9.238  0.00  0.00    +0.002 A 
ATOM     28  C   UNL     1      -3.034  -1.660 -10.105  0.00  0.00    +0.004 A 
ATOM     29  C   UNL     1      -4.316  -1.815  -9.611  0.00  0.00    +0.047 A 
ATOM     30  C   UNL     1      -4.527  -1.893  -8.244  0.00  0.00    +0.138 A 
BRANCH  30  31
ATOM     31  O   UNL     1      -5.787  -2.051  -7.757  0.00  0.00    -0.505 OA
ATOM     32  H   UNL     1      -6.249  -1.220  -7.585  0.00  0.00    +0.292 HD
ENDBRANCH  30  31
ENDBRANCH  23  25
ENDBRANCH  19  21
ENDBRANCH  18  19
ENDBRANCH   5  18
TORSDOF 7
