REMARK  Name = ZINC64102281
REMARK  10 active torsions:
REMARK  status: ('A' for Active; 'I' for Inactive)
REMARK    1  A    between atoms: C_1  and  C_2
REMARK    2  A    between atoms: C_5  and  C_20
REMARK    3  A    between atoms: C_6  and  O_8
REMARK    4  A    between atoms: O_8  and  C_9
REMARK    5  A    between atoms: C_9  and  C_11
REMARK    6  A    between atoms: C_14  and  C_16
REMARK    7  A    between atoms: C_16  and  C_17
REMARK    8  A    between atoms: C_17  and  C_18
REMARK    9  A    between atoms: C_17  and  C_19
REMARK   10  A    between atoms: C_20  and  C_22
REMARK                            x       y       z     vdW  Elec       q    Type
REMARK                         _______ _______ _______ _____ _____    ______ ____
ROOT
ATOM      1  O   UNL     1       0.050  -2.764   2.370  0.00  0.00    -0.421 OA
ENDROOT
BRANCH   1   7
ATOM      2  C   UNL     1      -2.487  -0.629  -1.205  0.00  0.00    +0.044 C 
ATOM      3  C   UNL     1      -1.174  -1.024  -0.579  0.00  0.00    -0.047 A 
ATOM      4  C   UNL     1       0.016  -0.689  -1.207  0.00  0.00    +0.004 A 
ATOM      5  C   UNL     1       1.222  -1.044  -0.645  0.00  0.00    +0.015 A 
ATOM      6  C   UNL     1       1.248  -1.747   0.565  0.00  0.00    +0.059 A 
ATOM      7  C   UNL     1       0.040  -2.083   1.197  0.00  0.00    +0.143 A 
ATOM      8  C   UNL     1      -1.164  -1.711   0.618  0.00  0.00    +0.050 A 
BRANCH   6   9
ATOM      9  C   UNL     1       2.530  -2.130   1.170  0.00  0.00    +0.164 C 
ATOM     10  O   UNL     1       2.547  -2.739   2.219  0.00  0.00    -0.292 OA
ATOM     11  C   UNL     1       3.824  -1.767   0.488  0.00  0.00    +0.092 C 
ENDBRANCH   6   9
ENDBRANCH   1   7
BRANCH   1  12
ATOM     12  C   UNL     1       0.150  -2.055   3.513  0.00  0.00    +0.363 C 
ATOM     13  O   UNL     1       0.133  -0.840   3.478  0.00  0.00    -0.243 OA
BRANCH  12  14
ATOM     14  C   UNL     1       0.281  -2.751   4.802  0.00  0.00    +0.155 A 
ATOM     15  C   UNL     1       0.379  -2.072   5.987  0.00  0.00    +0.082 A 
ATOM     16  S   UNL     1       0.503  -3.317   7.109  0.00  0.00    -0.080 S 
ATOM     17  C   UNL     1       0.427  -4.630   6.066  0.00  0.00    +0.079 A 
ATOM     18  N   UNL     1       0.304  -4.086   4.886  0.00  0.00    -0.237 NA
BRANCH  17  19
ATOM     19  C   UNL     1       0.483  -6.096   6.412  0.00  0.00    +0.066 C 
BRANCH  19  20
ATOM     20  C   UNL     1       1.938  -6.568   6.397  0.00  0.00    -0.011 C 
ATOM     21  C   UNL     1       2.716  -5.860   7.508  0.00  0.00    +0.007 C 
ATOM     22  C   UNL     1       1.986  -8.080   6.625  0.00  0.00    +0.007 C 
ENDBRANCH  19  20
ENDBRANCH  17  19
ENDBRANCH  12  14
ENDBRANCH   1  12
TORSDOF 6
