REMARK  Name = ZINC53856409
REMARK  4 active torsions:
REMARK  status: ('A' for Active; 'I' for Inactive)
REMARK    1  A    between atoms: C_3  and  C_22
REMARK    2  A    between atoms: C_6  and  C_7
REMARK    3  A    between atoms: C_14  and  N_19
REMARK    4  A    between atoms: N_24  and  C_25
REMARK                            x       y       z     vdW  Elec       q    Type
REMARK                         _______ _______ _______ _____ _____    ______ ____
ROOT
ATOM      1  C   UNL     1      -1.268  -0.761   0.011  0.00  0.00    +0.141 A 
ATOM      2  N   UNL     1      -1.213  -2.128   0.008  0.00  0.00    -0.306 N 
ATOM      3  H   UNL     1      -0.352  -2.575   0.001  0.00  0.00    +0.170 HD
ATOM      4  C   UNL     1      -2.351  -2.859   0.016  0.00  0.00    +0.260 A 
ATOM      5  O   UNL     1      -2.321  -4.076   0.014  0.00  0.00    -0.267 OA
ATOM      6  C   UNL     1      -3.628  -2.128   0.027  0.00  0.00    +0.067 A 
ATOM      7  C   UNL     1      -4.853  -2.791   0.035  0.00  0.00    +0.048 A 
ATOM      8  C   UNL     1      -6.021  -2.059   0.046  0.00  0.00    +0.127 A 
ATOM      9  C   UNL     1      -5.985  -0.671   0.047  0.00  0.00    +0.035 A 
ATOM     10  C   UNL     1      -4.786   0.004   0.038  0.00  0.00    +0.031 A 
ATOM     11  C   UNL     1      -3.587  -0.715   0.028  0.00  0.00    +0.079 A 
ATOM     12  N   UNL     1      -2.392  -0.092   0.025  0.00  0.00    -0.229 NA
ENDROOT
BRANCH   1  18
ATOM     13  C   UNL     1      -0.017   1.392   0.010  0.00  0.00    +0.012 A 
ATOM     14  C   UNL     1       1.166   2.097   0.002  0.00  0.00    +0.014 A 
ATOM     15  C   UNL     1       2.385   1.415  -0.013  0.00  0.00    +0.037 A 
ATOM     16  C   UNL     1       2.404   0.019  -0.021  0.00  0.00    +0.014 A 
ATOM     17  C   UNL     1       1.221  -0.686  -0.014  0.00  0.00    +0.012 A 
ATOM     18  C   UNL     1       0.002  -0.004   0.002  0.00  0.00    +0.017 A 
BRANCH  15  19
ATOM     19  C   UNL     1       3.655   2.172  -0.022  0.00  0.00    +0.244 C 
ATOM     20  O   UNL     1       3.639   3.388  -0.015  0.00  0.00    -0.270 OA
ATOM     21  N   UNL     1       4.832   1.514  -0.036  0.00  0.00    -0.308 N 
ATOM     22  H   UNL     1       4.845   0.544  -0.041  0.00  0.00    +0.149 HD
BRANCH  21  23
ATOM     23  C   UNL     1       6.090   2.264  -0.045  0.00  0.00    +0.073 C 
ATOM     24  C   UNL     1       7.191   1.786  -0.994  0.00  0.00    +0.024 C 
ATOM     25  C   UNL     1       7.332   1.566   0.513  0.00  0.00    +0.024 C 
ENDBRANCH  21  23
ENDBRANCH  15  19
ENDBRANCH   1  18
BRANCH   8  26
ATOM     26  N   UNL     1      -7.325  -2.760   0.055  0.00  0.00    +0.056 N 
ATOM     27  O   UNL     1      -7.362  -3.968   0.054  0.00  0.00    -0.126 OA
ATOM     28  O   UNL     1      -8.353  -2.123   0.064  0.00  0.00    -0.126 OA
ENDBRANCH   8  26
TORSDOF 4
