REMARK  Name = ZINC34756163
REMARK  8 active torsions:
REMARK  status: ('A' for Active; 'I' for Inactive)
REMARK    1  A    between atoms: C_1  and  C_2
REMARK    2  A    between atoms: C_2  and  C_3
REMARK    3  A    between atoms: C_3  and  C_4
REMARK    4  A    between atoms: C_4  and  S_5
REMARK    5  A    between atoms: S_5  and  C_6
REMARK    6  A    between atoms: N_22  and  C_25
REMARK    7  A    between atoms: C_25  and  C_26
REMARK    8  A    between atoms: N_28  and  C_29
REMARK                            x       y       z     vdW  Elec       q    Type
REMARK                         _______ _______ _______ _____ _____    ______ ____
ROOT
ATOM      1  C   UNL     1       2.289  -5.359   1.397  0.00  0.00    +0.191 A 
ATOM      2  N   UNL     1       2.825  -6.083   2.373  0.00  0.00    -0.206 NA
ATOM      3  C   UNL     1       2.124  -6.473   3.424  0.00  0.00    +0.134 A 
ATOM      4  C   UNL     1       0.750  -6.110   3.518  0.00  0.00    +0.051 A 
ATOM      5  C   UNL     1      -0.210  -6.429   4.577  0.00  0.00    -0.025 A 
ATOM      6  C   UNL     1      -1.464  -5.961   4.426  0.00  0.00    -0.004 A 
ATOM      7  S   UNL     1      -1.448  -5.079   2.888  0.00  0.00    -0.073 S 
ATOM      8  C   UNL     1       0.250  -5.343   2.448  0.00  0.00    +0.115 A 
ATOM      9  N   UNL     1       1.016  -4.987   1.434  0.00  0.00    -0.215 NA
ATOM     10  C   UNL     1      -2.622  -6.148   5.359  0.00  0.00    +0.043 C 
ATOM     11  C   UNL     1      -2.273  -7.272   6.345  0.00  0.00    +0.005 C 
ATOM     12  C   UNL     1      -0.868  -7.019   6.900  0.00  0.00    +0.005 C 
ATOM     13  C   UNL     1       0.173  -7.253   5.804  0.00  0.00    +0.037 C 
ATOM     14  N   UNL     1       2.718  -7.226   4.420  0.00  0.00    -0.318 N 
ATOM     15  C   UNL     1       2.620  -8.694   4.419  0.00  0.00    +0.088 C 
ATOM     16  C   UNL     1       4.028  -9.274   4.589  0.00  0.00    -0.059 C 
ATOM     17  N   UNL     1       4.647  -8.709   5.795  0.00  0.00    +0.387 N 
ATOM     18  C   UNL     1       4.833  -7.262   5.630  0.00  0.00    -0.059 C 
ATOM     19  C   UNL     1       3.470  -6.582   5.508  0.00  0.00    +0.088 C 
ATOM     20  H   UNL     1       4.050  -8.882   6.590  0.00  0.00    -0.081 HD
ENDROOT
BRANCH   1  21
ATOM     21  S   UNL     1       3.290  -4.878   0.029  0.00  0.00    -0.086 S 
BRANCH  21  22
ATOM     22  C   UNL     1       2.164  -3.921  -1.024  0.00  0.00    +0.077 C 
BRANCH  22  23
ATOM     23  C   UNL     1       2.915  -3.436  -2.265  0.00  0.00    +0.011 C 
BRANCH  23  25
ATOM     24  C   UNL     1       2.717  -2.143  -4.394  0.00  0.00    +0.004 C 
ATOM     25  C   UNL     1       1.966  -2.629  -3.153  0.00  0.00    -0.003 C 
ENDBRANCH  23  25
ENDBRANCH  22  23
ENDBRANCH  21  22
ENDBRANCH   1  21
BRANCH  17  26
ATOM     26  C   UNL     1       5.951  -9.346   6.019  0.00  0.00    +0.019 C 
BRANCH  26  27
ATOM     27  C   UNL     1       6.532  -8.858   7.321  0.00  0.00    +0.197 C 
ATOM     28  O   UNL     1       5.920  -8.057   7.996  0.00  0.00    -0.278 OA
ATOM     29  N   UNL     1       7.732  -9.310   7.735  0.00  0.00    -0.314 N 
ATOM     30  H   UNL     1       8.222  -9.951   7.196  0.00  0.00    +0.149 HD
BRANCH  29  31
ATOM     31  C   UNL     1       8.297  -8.836   9.001  0.00  0.00    +0.073 C 
ATOM     32  C   UNL     1       9.039  -7.518   8.766  0.00  0.00    +0.022 C 
ATOM     33  C   UNL     1       9.629  -7.022  10.088  0.00  0.00    +0.002 C 
ATOM     34  C   UNL     1      10.604  -8.067  10.635  0.00  0.00    +0.000 C 
ATOM     35  C   UNL     1       9.862  -9.384  10.870  0.00  0.00    +0.002 C 
ATOM     36  C   UNL     1       9.272  -9.880   9.548  0.00  0.00    +0.022 C 
ENDBRANCH  29  31
ENDBRANCH  26  27
ENDBRANCH  17  26
TORSDOF 7
