REMARK  Name = ZINC38670637
REMARK  7 active torsions:
REMARK  status: ('A' for Active; 'I' for Inactive)
REMARK    1  A    between atoms: C_1  and  N_2
REMARK    2  A    between atoms: C_10  and  C_12
REMARK    3  A    between atoms: C_12  and  C_14
REMARK    4  A    between atoms: C_12  and  N_29
REMARK    5  A    between atoms: C_14  and  N_15
REMARK    6  A    between atoms: N_15  and  S_16
REMARK    7  A    between atoms: S_16  and  C_19
REMARK                            x       y       z     vdW  Elec       q    Type
REMARK                         _______ _______ _______ _____ _____    ______ ____
ROOT
ATOM      1  C   UNL     1       4.993  -2.601  -0.370  0.00  0.00    -0.022 C 
ENDROOT
BRANCH   1  11
ATOM      2  C   UNL     1       0.181   1.625   0.879  0.00  0.00    +0.129 C 
ATOM      3  N   UNL     1       0.165   0.169   0.718  0.00  0.00    -0.333 N 
ATOM      4  C   UNL     1      -1.094  -0.581   0.830  0.00  0.00    +0.105 C 
ATOM      5  C   UNL     1      -0.827  -1.819   1.695  0.00  0.00    +0.024 C 
ATOM      6  C   UNL     1       0.189  -2.711   0.981  0.00  0.00    +0.038 C 
ATOM      7  C   UNL     1       1.399  -1.911   0.574  0.00  0.00    -0.026 A 
ATOM      8  C   UNL     1       1.347  -0.530   0.451  0.00  0.00    +0.033 A 
ATOM      9  C   UNL     1       2.479   0.178   0.063  0.00  0.00    +0.023 A 
ATOM     10  C   UNL     1       3.656  -0.493  -0.202  0.00  0.00    +0.004 A 
ATOM     11  C   UNL     1       3.708  -1.869  -0.082  0.00  0.00    -0.059 A 
ATOM     12  C   UNL     1       2.584  -2.576   0.313  0.00  0.00    +0.007 A 
ENDBRANCH   1  11
BRANCH   1  13
ATOM     13  N   UNL     1       5.647  -2.000  -1.541  0.00  0.00    +0.385 N 
ATOM     14  C   UNL     1       6.835  -2.802  -1.932  0.00  0.00    -0.078 C 
ATOM     15  C   UNL     1       7.051  -2.414  -3.416  0.00  0.00    -0.020 C 
ATOM     16  C   UNL     1       5.608  -2.280  -3.952  0.00  0.00    -0.020 C 
ATOM     17  C   UNL     1       4.737  -2.033  -2.706  0.00  0.00    -0.078 C 
ATOM     18  H   UNL     1       5.919  -1.050  -1.338  0.00  0.00    -0.081 HD
ENDBRANCH   1  13
BRANCH   1  19
ATOM     19  C   UNL     1       5.922  -2.498   0.841  0.00  0.00    +0.095 C 
BRANCH  19  20
ATOM     20  N   UNL     1       5.324  -3.206   1.976  0.00  0.00    -0.191 NA
ATOM     21  H   UNL     1       4.385  -3.448   1.957  0.00  0.00    +0.148 HD
BRANCH  20  22
ATOM     22  S   UNL     1       6.252  -3.594   3.292  0.00  0.00    +0.060 S 
ATOM     23  O   UNL     1       5.391  -4.241   4.219  0.00  0.00    -0.153 OA
ATOM     24  O   UNL     1       7.431  -4.208   2.790  0.00  0.00    -0.153 OA
BRANCH  22  25
ATOM     25  C   UNL     1       6.752  -2.080   4.041  0.00  0.00    +0.131 A 
ATOM     26  C   UNL     1       6.325  -1.764   5.294  0.00  0.00    +0.031 A 
ATOM     27  C   UNL     1       6.708  -0.572   5.905  0.00  0.00    +0.003 A 
ATOM     28  C   UNL     1       7.522   0.311   5.264  0.00  0.00    +0.010 A 
ATOM     29  C   UNL     1       7.983   0.018   3.971  0.00  0.00    +0.002 A 
ATOM     30  C   UNL     1       7.598  -1.196   3.349  0.00  0.00    +0.097 A 
ATOM     31  N   UNL     1       8.038  -1.482   2.119  0.00  0.00    -0.253 NA
ATOM     32  C   UNL     1       8.827  -0.661   1.470  0.00  0.00    +0.111 A 
ATOM     33  C   UNL     1       9.247   0.545   2.025  0.00  0.00    +0.020 A 
ATOM     34  C   UNL     1       8.826   0.904   3.274  0.00  0.00    +0.011 A 
ENDBRANCH  22  25
ENDBRANCH  20  22
ENDBRANCH  19  20
ENDBRANCH   1  19
TORSDOF 6
