REMARK  Name = ZINC01115281
REMARK  5 active torsions:
REMARK  status: ('A' for Active; 'I' for Inactive)
REMARK    1  A    between atoms: C_1  and  C_2
REMARK    2  A    between atoms: C_5  and  N_9
REMARK    3  A    between atoms: N_9  and  S_10
REMARK    4  A    between atoms: S_10  and  C_13
REMARK    5  A    between atoms: C_18  and  N_19
REMARK                            x       y       z     vdW  Elec       q    Type
REMARK                         _______ _______ _______ _____ _____    ______ ____
ROOT
ATOM      1  S   UNL     1       2.540  -0.431  -0.752  0.00  0.00    +0.075 S 
ATOM      2  O   UNL     1       3.810  -1.040  -0.561  0.00  0.00    -0.150 OA
ATOM      3  O   UNL     1       1.330  -1.042  -0.324  0.00  0.00    -0.150 OA
ENDROOT
BRANCH   1   4
ATOM      4  C   UNL     1       2.374  -0.144  -2.482  0.00  0.00    +0.139 A 
ATOM      5  C   UNL     1       1.239  -0.568  -3.148  0.00  0.00    +0.031 A 
ATOM      6  C   UNL     1       1.106  -0.339  -4.505  0.00  0.00    +0.002 A 
ATOM      7  C   UNL     1       2.114   0.307  -5.198  0.00  0.00    +0.002 A 
ATOM      8  C   UNL     1       3.250   0.727  -4.533  0.00  0.00    +0.035 A 
ATOM      9  C   UNL     1       3.381   0.502  -3.176  0.00  0.00    +0.153 A 
BRANCH   9  10
ATOM     10  N   UNL     1       4.598   0.951  -2.464  0.00  0.00    +0.058 N 
ATOM     11  O   UNL     1       5.534   1.415  -3.091  0.00  0.00    -0.126 OA
ATOM     12  O   UNL     1       4.665   0.856  -1.252  0.00  0.00    -0.126 OA
ENDBRANCH   9  10
ENDBRANCH   1   4
BRANCH   1  13
ATOM     13  N   UNL     1       2.609   1.050  -0.014  0.00  0.00    -0.215 N 
ATOM     14  H   UNL     1       3.390   1.297   0.506  0.00  0.00    +0.174 HD
BRANCH  13  19
ATOM     15  C   UNL     1      -1.720   4.678  -0.529  0.00  0.00    +0.044 C 
ATOM     16  C   UNL     1      -0.570   3.714  -0.392  0.00  0.00    -0.049 A 
ATOM     17  C   UNL     1      -0.814   2.355  -0.316  0.00  0.00    +0.005 A 
ATOM     18  C   UNL     1       0.238   1.469  -0.185  0.00  0.00    +0.026 A 
ATOM     19  C   UNL     1       1.543   1.944  -0.140  0.00  0.00    +0.062 A 
ATOM     20  C   UNL     1       1.785   3.310  -0.221  0.00  0.00    +0.040 A 
ATOM     21  C   UNL     1       0.728   4.191  -0.347  0.00  0.00    +0.020 A 
ATOM     22 BR   UNL     1       3.559   3.962  -0.160  0.00  0.00    -0.048 Br
ENDBRANCH  13  19
ENDBRANCH   1  13
TORSDOF 4
