REMARK  Name = ZINC39595781
REMARK  9 active torsions:
REMARK  status: ('A' for Active; 'I' for Inactive)
REMARK    1  A    between atoms: C_1  and  C_2
REMARK    2  A    between atoms: C_2  and  C_4
REMARK    3  A    between atoms: C_2  and  O_32
REMARK    4  A    between atoms: C_4  and  N_5
REMARK    5  A    between atoms: C_6  and  C_8
REMARK    6  A    between atoms: C_19  and  C_21
REMARK    7  A    between atoms: C_24  and  O_27
REMARK    8  A    between atoms: O_27  and  C_28
REMARK    9  A    between atoms: O_32  and  C_33
REMARK                            x       y       z     vdW  Elec       q    Type
REMARK                         _______ _______ _______ _____ _____    ______ ____
ROOT
ATOM      1  C   UNL     1       1.000  -4.172  -2.552  0.00  0.00    +0.100 C 
ATOM      2  C   UNL     1      -0.444  -4.622  -2.869  0.00  0.00    +0.121 C 
ATOM      3  N   UNL     1      -0.467  -4.799  -4.340  0.00  0.00    -0.296 N 
ATOM      4  C   UNL     1       0.845  -5.412  -4.657  0.00  0.00    +0.115 C 
ATOM      5  C   UNL     1       1.843  -4.696  -3.726  0.00  0.00    -0.004 C 
ATOM      6  C   UNL     1       2.896  -5.679  -3.223  0.00  0.00    -0.010 C 
ATOM      7  C   UNL     1       3.760  -6.141  -4.400  0.00  0.00    -0.082 C 
ATOM      8  N   UNL     1       4.404  -4.979  -5.022  0.00  0.00    +0.379 N 
ATOM      9  C   UNL     1       3.387  -4.084  -5.586  0.00  0.00    -0.082 C 
ATOM     10  C   UNL     1       2.507  -3.534  -4.459  0.00  0.00    -0.010 C 
ATOM     11  C   UNL     1      -1.457  -4.477  -5.196  0.00  0.00    +0.247 C 
ATOM     12  O   UNL     1      -2.436  -3.878  -4.795  0.00  0.00    -0.270 OA
ATOM     13  H   UNL     1       4.941  -4.481  -4.328  0.00  0.00    -0.086 HD
ATOM     14  H   UNL     1       5.020  -5.291  -5.758  0.00  0.00    -0.086 HD
ENDROOT
BRANCH  11  15
ATOM     15  C   UNL     1      -1.352  -4.850  -6.620  0.00  0.00    +0.037 A 
ATOM     16  C   UNL     1      -0.557  -5.933  -7.003  0.00  0.00    +0.016 A 
ATOM     17  C   UNL     1      -0.462  -6.279  -8.332  0.00  0.00    +0.047 A 
ATOM     18  C   UNL     1      -1.156  -5.552  -9.293  0.00  0.00    +0.130 A 
ATOM     19  C   UNL     1      -1.948  -4.474  -8.915  0.00  0.00    +0.047 A 
ATOM     20  C   UNL     1      -2.053  -4.126  -7.587  0.00  0.00    +0.016 A 
BRANCH  18  21
ATOM     21  O   UNL     1      -1.060  -5.896 -10.602  0.00  0.00    -0.406 OA
BRANCH  21  22
ATOM     22  C   UNL     1      -1.799  -5.106 -11.536  0.00  0.00    +0.575 C 
ATOM     23  F   UNL     1      -1.371  -3.776 -11.464  0.00  0.00    -0.133 F 
ATOM     24  F   UNL     1      -1.587  -5.595 -12.830  0.00  0.00    -0.133 F 
ATOM     25  F   UNL     1      -3.162  -5.175 -11.229  0.00  0.00    -0.133 F 
ENDBRANCH  21  22
ENDBRANCH  18  21
ENDBRANCH  11  15
BRANCH   1  27
ATOM     26  N   UNL     1       2.096  -2.077  -1.826  0.00  0.00    -0.312 N 
ATOM     27  C   UNL     1       1.077  -2.669  -2.480  0.00  0.00    +0.218 C 
ATOM     28  O   UNL     1       0.222  -1.991  -3.010  0.00  0.00    -0.275 OA
ATOM     29  H   UNL     1       2.780  -2.618  -1.402  0.00  0.00    +0.149 HD
BRANCH  26  30
ATOM     30  C   UNL     1       2.171  -0.615  -1.756  0.00  0.00    +0.148 C 
BRANCH  30  32
ATOM     31  C   UNL     1       3.426   1.313  -0.784  0.00  0.00    +0.053 C 
ATOM     32  C   UNL     1       3.414  -0.206  -0.964  0.00  0.00    +0.187 C 
BRANCH  32  33
ATOM     33  O   UNL     1       4.586  -0.611  -1.673  0.00  0.00    -0.488 OA
BRANCH  33  34
ATOM     34  C   UNL     1       5.714  -0.808  -0.940  0.00  0.00    +0.121 A 
ATOM     35  C   UNL     1       5.668  -0.718   0.443  0.00  0.00    +0.048 A 
ATOM     36  C   UNL     1       6.815  -0.919   1.187  0.00  0.00    +0.042 A 
ATOM     37  C   UNL     1       8.010  -1.208   0.551  0.00  0.00    +0.124 A 
ATOM     38  C   UNL     1       8.058  -1.298  -0.829  0.00  0.00    +0.042 A 
ATOM     39  C   UNL     1       6.912  -1.104  -1.575  0.00  0.00    +0.048 A 
ATOM     40  F   UNL     1       9.131  -1.403   1.280  0.00  0.00    -0.205 F 
ENDBRANCH  33  34
ENDBRANCH  32  33
ENDBRANCH  30  32
ENDBRANCH  26  30
ENDBRANCH   1  27
TORSDOF 8
