REMARK  Name = ZINC63579713
REMARK  3 active torsions:
REMARK  status: ('A' for Active; 'I' for Inactive)
REMARK    1  A    between atoms: C_6  and  O_7
REMARK    2  A    between atoms: O_7  and  C_8
REMARK    3  A    between atoms: C_8  and  C_9
REMARK                            x       y       z     vdW  Elec       q    Type
REMARK                         _______ _______ _______ _____ _____    ______ ____
ROOT
ATOM      1  C   UNL     1      -2.454  -2.722   0.012  0.00  0.00    +0.149 A 
ATOM      2  N   UNL     1      -2.599  -4.073   0.012  0.00  0.00    -0.308 N 
ATOM      3  H   UNL     1      -1.809  -4.636   0.005  0.00  0.00    +0.170 HD
ATOM      4  C   UNL     1      -3.817  -4.646   0.021  0.00  0.00    +0.260 A 
ATOM      5  O   UNL     1      -3.931  -5.860   0.022  0.00  0.00    -0.267 OA
ATOM      6  C   UNL     1      -4.978  -3.805   0.031  0.00  0.00    +0.076 A 
ATOM      7  C   UNL     1      -6.388  -4.211   0.038  0.00  0.00    -0.012 A 
ATOM      8  C   UNL     1      -7.297  -3.203   0.055  0.00  0.00    +0.051 A 
ATOM      9  S   UNL     1      -6.352  -1.708   0.045  0.00  0.00    -0.062 S 
ATOM     10  C   UNL     1      -4.728  -2.425   0.031  0.00  0.00    +0.117 A 
ATOM     11  N   UNL     1      -3.494  -1.931   0.026  0.00  0.00    -0.223 NA
ATOM     12  S   UNL     1      -9.046  -3.373   0.087  0.00  0.00    -0.118 S 
ATOM     13  C   UNL     1      -9.245  -5.157  -0.241  0.00  0.00    +0.075 C 
ATOM     14  C   UNL     1      -8.185  -5.889   0.595  0.00  0.00    +0.016 C 
ATOM     15  C   UNL     1      -6.796  -5.676   0.016  0.00  0.00    +0.038 C 
ENDROOT
BRANCH   1  16
ATOM     16  C   UNL     1      -1.070  -2.126   0.001  0.00  0.00    +0.303 C 
BRANCH  16  17
ATOM     17  O   UNL     1      -1.165  -0.701   0.010  0.00  0.00    -0.484 OA
BRANCH  17  23
ATOM     18  C   UNL     1      -0.017   1.383   0.010  0.00  0.00    +0.047 A 
ATOM     19  C   UNL     1       1.171   2.089   0.002  0.00  0.00    +0.023 A 
ATOM     20  C   UNL     1       2.378   1.414  -0.013  0.00  0.00    +0.041 A 
ATOM     21  C   UNL     1       2.399   0.030  -0.021  0.00  0.00    +0.023 A 
ATOM     22  C   UNL     1       1.214  -0.679  -0.014  0.00  0.00    +0.047 A 
ATOM     23  C   UNL     1       0.002  -0.004   0.002  0.00  0.00    +0.121 A 
ATOM     24 CL   UNL     1       3.869   2.303  -0.024  0.00  0.00    -0.084 Cl
ENDBRANCH  17  23
ENDBRANCH  16  17
ENDBRANCH   1  16
TORSDOF 3
