REMARK  Name = ZINC07754879
REMARK  13 active torsions:
REMARK  status: ('A' for Active; 'I' for Inactive)
REMARK    1  A    between atoms: C_1  and  C_2
REMARK    2  A    between atoms: C_5  and  N_9
REMARK    3  A    between atoms: C_7  and  C_8
REMARK    4  A    between atoms: C_13  and  S_15
REMARK    5  A    between atoms: S_15  and  C_16
REMARK    6  A    between atoms: C_16  and  C_18
REMARK    7  A    between atoms: C_16  and  C_19
REMARK    8  A    between atoms: N_21  and  C_22
REMARK    9  A    between atoms: C_22  and  C_23
REMARK   10  A    between atoms: C_22  and  C_24
REMARK   11  A    between atoms: C_22  and  C_26
REMARK   12  A    between atoms: C_26  and  C_27
REMARK   13  A    between atoms: C_26  and  C_28
REMARK                            x       y       z     vdW  Elec       q    Type
REMARK                         _______ _______ _______ _____ _____    ______ ____
ROOT
ATOM      1  N   UNL     1       0.002  -0.004   0.002  0.00  0.00    -0.292 N 
ATOM      2  C   UNL     1      -0.017   1.386   0.011  0.00  0.00    +0.187 A 
ATOM      3  N   UNL     1      -1.048   2.208   0.013  0.00  0.00    -0.125 NA
ATOM      4  N   UNL     1      -0.840   3.568   0.028  0.00  0.00    -0.133 NA
ATOM      5  C   UNL     1       0.391   4.043   0.029  0.00  0.00    +0.161 A 
ATOM      6  S   UNL     1       1.350   2.537   0.017  0.00  0.00    -0.024 S 
ATOM      7  H   UNL     1       0.845  -0.477  -0.083  0.00  0.00    +0.154 HD
ENDROOT
BRANCH   1  12
ATOM      8  C   UNL     1      -4.847  -2.909   0.462  0.00  0.00    +0.044 C 
ATOM      9  C   UNL     1      -3.558  -2.137   0.340  0.00  0.00    -0.047 A 
ATOM     10  C   UNL     1      -2.464  -2.715  -0.278  0.00  0.00    +0.005 A 
ATOM     11  C   UNL     1      -1.282  -2.010  -0.392  0.00  0.00    +0.023 A 
ATOM     12  C   UNL     1      -1.193  -0.720   0.115  0.00  0.00    +0.033 A 
ATOM     13  C   UNL     1      -2.292  -0.144   0.740  0.00  0.00    +0.027 A 
ATOM     14  C   UNL     1      -3.473  -0.853   0.846  0.00  0.00    -0.046 A 
ATOM     15  C   UNL     1      -4.668  -0.228   1.519  0.00  0.00    +0.044 C 
ENDBRANCH   1  12
BRANCH   5  16
ATOM     16  S   UNL     1       0.941   5.717   0.039  0.00  0.00    -0.084 S 
BRANCH  16  17
ATOM     17  C   UNL     1      -0.594   6.684   0.048  0.00  0.00    +0.136 C 
ATOM     18  C   UNL     1      -1.353   6.448  -1.259  0.00  0.00    +0.029 C 
BRANCH  17  19
ATOM     19  C   UNL     1      -0.264   8.148   0.181  0.00  0.00    +0.227 C 
ATOM     20  O   UNL     1       0.816   8.562  -0.183  0.00  0.00    -0.275 OA
ATOM     21  N   UNL     1      -1.170   8.998   0.704  0.00  0.00    -0.296 N 
ATOM     22  H   UNL     1      -2.034   8.667   0.995  0.00  0.00    +0.150 HD
BRANCH  21  23
ATOM     23  C   UNL     1      -0.850  10.422   0.833  0.00  0.00    +0.121 C 
ATOM     24  C   UNL     1       0.376  10.589   1.733  0.00  0.00    +0.048 C 
BRANCH  23  25
ATOM     25  C   UNL     1      -2.040  11.158   1.452  0.00  0.00    +0.020 C 
ATOM     26  C   UNL     1      -2.260  10.661   2.882  0.00  0.00    +0.010 C 
ATOM     27  C   UNL     1      -1.755  12.661   1.472  0.00  0.00    +0.010 C 
ENDBRANCH  23  25
BRANCH  23  28
ATOM     28  C   UNL     1      -0.563  10.983  -0.497  0.00  0.00    +0.088 C 
ATOM     29  N   UNL     1      -0.342  11.416  -1.524  0.00  0.00    -0.194 NA
ENDBRANCH  23  28
ENDBRANCH  21  23
ENDBRANCH  17  19
ENDBRANCH  16  17
ENDBRANCH   5  16
TORSDOF 7
