REMARK  Name = ZINC01029906
REMARK  6 active torsions:
REMARK  status: ('A' for Active; 'I' for Inactive)
REMARK    1  A    between atoms: C_4  and  C_7
REMARK    2  A    between atoms: C_7  and  C_8
REMARK    3  A    between atoms: C_7  and  C_14
REMARK    4  A    between atoms: C_7  and  O_29
REMARK    5  A    between atoms: N_16  and  N_17
REMARK    6  A    between atoms: N_17  and  C_18
REMARK                            x       y       z     vdW  Elec       q    Type
REMARK                         _______ _______ _______ _____ _____    ______ ____
ROOT
ATOM      1  C   UNL     1       4.468  -0.547  -1.445  0.00  0.00    +0.270 C 
ATOM      2  O   UNL     1       3.792  -0.524  -2.452  0.00  0.00    -0.270 OA
ATOM      3  N   UNL     1       5.813  -0.543  -1.536  0.00  0.00    -0.233 N 
ATOM      4  H   UNL     1       6.353  -0.561  -0.731  0.00  0.00    +0.173 HD
ENDROOT
BRANCH   3   5
ATOM      5  N   UNL     1       6.430  -0.512  -2.793  0.00  0.00    -0.259 N 
ATOM      6  H   UNL     1       5.893  -0.582  -3.599  0.00  0.00    +0.170 HD
BRANCH   5   7
ATOM      7  C   UNL     1       7.756  -0.389  -2.883  0.00  0.00    +0.116 C 
ATOM      8  C   UNL     1       8.674  -0.151  -1.830  0.00  0.00    +0.025 A 
ATOM      9  C   UNL     1       8.523   0.021  -0.449  0.00  0.00    +0.012 A 
ATOM     10  C   UNL     1       9.636   0.243   0.338  0.00  0.00    +0.002 A 
ATOM     11  C   UNL     1      10.898   0.295  -0.233  0.00  0.00    +0.017 A 
ATOM     12  C   UNL     1      11.068   0.126  -1.599  0.00  0.00    +0.040 A 
ATOM     13  C   UNL     1       9.964  -0.099  -2.418  0.00  0.00    +0.057 A 
ATOM     14  N   UNL     1       9.859  -0.292  -3.764  0.00  0.00    -0.279 N 
ATOM     15  C   UNL     1       8.602  -0.477  -4.124  0.00  0.00    +0.264 C 
ATOM     16  O   UNL     1       8.200  -0.679  -5.256  0.00  0.00    -0.268 OA
ATOM     17 BR   UNL     1      12.801   0.203  -2.351  0.00  0.00    -0.048 Br
ATOM     18  H   UNL     1      10.611  -0.299  -4.377  0.00  0.00    +0.155 HD
ENDBRANCH   5   7
ENDBRANCH   3   5
BRANCH   1  19
ATOM     19  C   UNL     1       3.804  -0.579  -0.093  0.00  0.00    +0.194 C 
BRANCH  19  23
ATOM     20  C   UNL     1      -0.103   1.124  -0.380  0.00  0.00    +0.000 A 
ATOM     21  C   UNL     1       0.173  -0.082  -0.997  0.00  0.00    +0.000 A 
ATOM     22  C   UNL     1       1.437  -0.633  -0.904  0.00  0.00    +0.007 A 
ATOM     23  C   UNL     1       2.426   0.022  -0.195  0.00  0.00    -0.003 A 
ATOM     24  C   UNL     1       2.151   1.228   0.421  0.00  0.00    +0.007 A 
ATOM     25  C   UNL     1       0.886   1.779   0.330  0.00  0.00    +0.000 A 
ENDBRANCH  19  23
BRANCH  19  26
ATOM     26  C   UNL     1       3.696  -2.006   0.380  0.00  0.00    -0.003 A 
ATOM     27  C   UNL     1       3.322  -3.001  -0.505  0.00  0.00    +0.007 A 
ATOM     28  C   UNL     1       3.223  -4.309  -0.072  0.00  0.00    +0.000 A 
ATOM     29  C   UNL     1       3.498  -4.624   1.246  0.00  0.00    +0.000 A 
ATOM     30  C   UNL     1       3.872  -3.630   2.131  0.00  0.00    +0.000 A 
ATOM     31  C   UNL     1       3.976  -2.321   1.696  0.00  0.00    +0.007 A 
ENDBRANCH  19  26
BRANCH  19  32
ATOM     32  O   UNL     1       4.584   0.173   0.839  0.00  0.00    -0.371 OA
ATOM     33  H   UNL     1       4.696   1.103   0.598  0.00  0.00    +0.212 HD
ENDBRANCH  19  32
ENDBRANCH   1  19
TORSDOF 6
