REMARK  Name = ZINC42414625
REMARK  3 active torsions:
REMARK  status: ('A' for Active; 'I' for Inactive)
REMARK    1  A    between atoms: C_6  and  N_7
REMARK    2  A    between atoms: N_7  and  S_8
REMARK    3  A    between atoms: S_8  and  C_11
REMARK                            x       y       z     vdW  Elec       q    Type
REMARK                         _______ _______ _______ _____ _____    ______ ____
ROOT
ATOM      1  S   UNL     1      -3.684   2.520   0.032  0.00  0.00    +0.093 S 
ATOM      2  O   UNL     1      -3.617   3.196   1.280  0.00  0.00    -0.148 OA
ATOM      3  O   UNL     1      -3.628   3.208  -1.211  0.00  0.00    -0.148 OA
ENDROOT
BRANCH   1   4
ATOM      4  C   UNL     1      -5.190   1.606   0.034  0.00  0.00    +0.113 A 
ATOM      5  C   UNL     1      -5.783   1.248  -1.163  0.00  0.00    +0.049 A 
ATOM      6  C   UNL     1      -6.965   0.530  -1.162  0.00  0.00    +0.044 A 
ATOM      7  C   UNL     1      -7.554   0.170   0.037  0.00  0.00    +0.040 A 
ATOM      8  C   UNL     1      -6.960   0.528   1.234  0.00  0.00    +0.044 A 
ATOM      9  C   UNL     1      -5.775   1.241   1.232  0.00  0.00    +0.049 A 
ATOM     10 CL   UNL     1      -7.699   0.077   2.739  0.00  0.00    -0.083 Cl
ATOM     11 CL   UNL     1      -7.711   0.083  -2.664  0.00  0.00    -0.083 Cl
ENDBRANCH   1   4
BRANCH   1  12
ATOM     12  N   UNL     1      -2.444   1.422   0.021  0.00  0.00    -0.078 NA
BRANCH  12  18
ATOM     13  C   UNL     1      -0.013   1.076   0.008  0.00  0.00    +0.068 A 
ATOM     14  C   UNL     1       1.106   1.915   0.002  0.00  0.00    +0.136 A 
ATOM     15  N   UNL     1       0.689   3.155   0.012  0.00  0.00    -0.181 NA
ATOM     16  H   UNL     1      -1.284   3.934   0.034  0.00  0.00    +0.190 HD
ATOM     17  N   UNL     1      -0.711   3.151   0.024  0.00  0.00    -0.261 N 
ATOM     18  C   UNL     1      -1.124   1.863   0.017  0.00  0.00    +0.158 A 
ENDBRANCH  12  18
ENDBRANCH   1  12
TORSDOF 3
