REMARK  Name = ZINC39857409
REMARK  6 active torsions:
REMARK  status: ('A' for Active; 'I' for Inactive)
REMARK    1  A    between atoms: C_1  and  C_2
REMARK    2  A    between atoms: C_2  and  C_3
REMARK    3  A    between atoms: C_3  and  C_4
REMARK    4  A    between atoms: C_4  and  C_5
REMARK    5  A    between atoms: C_8  and  N_11
REMARK    6  A    between atoms: C_15  and  C_16
REMARK                            x       y       z     vdW  Elec       q    Type
REMARK                         _______ _______ _______ _____ _____    ______ ____
ROOT
ATOM      1  N   UNL     1       3.414  -3.852   5.913  0.00  0.00    -0.197 N 
ATOM      2  C   UNL     1       3.027  -4.979   6.485  0.00  0.00    +0.265 C 
ATOM      3  O   UNL     1       2.047  -5.589   6.095  0.00  0.00    -0.269 OA
ATOM      4  C   UNL     1       3.837  -5.462   7.615  0.00  0.00    +0.083 C 
ATOM      5  C   UNL     1       3.679  -6.577   8.384  0.00  0.00    +0.066 C 
ATOM      6  S   UNL     1       5.086  -4.186   7.702  0.00  0.00    -0.025 S 
ATOM      7  C   UNL     1       4.503  -3.183   6.344  0.00  0.00    +0.290 C 
ATOM      8  O   UNL     1       4.974  -2.147   5.913  0.00  0.00    -0.262 OA
ENDROOT
BRANCH   1  12
ATOM      9  C   UNL     1       1.233  -2.342   2.699  0.00  0.00    -0.047 A 
ATOM     10  C   UNL     1       2.511  -2.829   2.497  0.00  0.00    +0.005 A 
ATOM     11  C   UNL     1       3.236  -3.330   3.560  0.00  0.00    +0.024 A 
ATOM     12  C   UNL     1       2.681  -3.344   4.832  0.00  0.00    +0.045 A 
ATOM     13  C   UNL     1       1.397  -2.854   5.032  0.00  0.00    +0.024 A 
ATOM     14  C   UNL     1       0.679  -2.349   3.966  0.00  0.00    +0.005 A 
BRANCH   9  15
ATOM     15  C   UNL     1       0.444  -1.796   1.536  0.00  0.00    +0.035 C 
BRANCH  15  16
ATOM     16  C   UNL     1       0.722  -0.299   1.389  0.00  0.00    +0.004 C 
BRANCH  16  18
ATOM     17  C   UNL     1       0.200   1.752   0.062  0.00  0.00    +0.004 C 
ATOM     18  C   UNL     1      -0.079   0.255   0.209  0.00  0.00    -0.003 C 
ENDBRANCH  16  18
ENDBRANCH  15  16
ENDBRANCH   9  15
ENDBRANCH   1  12
BRANCH   5  19
ATOM     19  C   UNL     1       2.710  -7.545   8.035  0.00  0.00    +0.129 A 
ATOM     20  C   UNL     1       2.355  -8.648   8.785  0.00  0.00    +0.049 A 
ATOM     21  C   UNL     1       1.362  -9.323   8.058  0.00  0.00    +0.042 A 
ATOM     22  C   UNL     1       1.155  -8.624   6.920  0.00  0.00    +0.195 A 
ATOM     23  O   UNL     1       1.962  -7.553   6.911  0.00  0.00    -0.463 OA
ENDBRANCH   5  19
TORSDOF 5
