REMARK  Name = ZINC47264219
REMARK  7 active torsions:
REMARK  status: ('A' for Active; 'I' for Inactive)
REMARK    1  A    between atoms: C_1  and  C_2
REMARK    2  A    between atoms: C_7  and  N_8
REMARK    3  A    between atoms: C_9  and  C_11
REMARK    4  A    between atoms: C_11  and  C_13
REMARK    5  A    between atoms: C_11  and  N_14
REMARK    6  A    between atoms: C_17  and  C_20
REMARK    7  A    between atoms: C_25  and  C_28
REMARK                            x       y       z     vdW  Elec       q    Type
REMARK                         _______ _______ _______ _____ _____    ______ ____
ROOT
ATOM      1  N   UNL     1      -0.121  -0.902   5.998  0.00  0.00    +0.387 N 
ATOM      2  C   UNL     1      -0.100  -0.166   7.268  0.00  0.00    -0.077 C 
ATOM      3  C   UNL     1       0.030  -1.152   8.431  0.00  0.00    -0.006 C 
ATOM      4  C   UNL     1      -1.163  -2.112   8.415  0.00  0.00    +0.072 C 
ATOM      5  C   UNL     1      -1.218  -2.819   7.058  0.00  0.00    -0.006 C 
ATOM      6  C   UNL     1      -1.302  -1.772   5.946  0.00  0.00    -0.077 C 
ATOM      7  H   UNL     1       0.713  -1.464   5.924  0.00  0.00    -0.081 HD
ENDROOT
BRANCH   4   8
ATOM      8  C   UNL     1      -1.001  -3.135   9.510  0.00  0.00    +0.222 C 
ATOM      9  O   UNL     1      -0.028  -3.101  10.233  0.00  0.00    -0.275 OA
ATOM     10  N   UNL     1      -1.938  -4.088   9.686  0.00  0.00    -0.264 N 
ATOM     11  C   UNL     1      -1.789  -5.031  10.696  0.00  0.00    +0.165 A 
ATOM     12  N   UNL     1      -2.590  -6.026  11.009  0.00  0.00    -0.230 NA
ATOM     13  C   UNL     1      -2.305  -6.843  12.007  0.00  0.00    +0.047 A 
ATOM     14  C   UNL     1      -1.155  -6.608  12.686  0.00  0.00    +0.071 A 
ATOM     15  S   UNL     1      -0.536  -5.181  11.810  0.00  0.00    -0.060 S 
ATOM     16  C   UNL     1      -3.216  -7.986  12.373  0.00  0.00    +0.066 C 
ATOM     17  H   UNL     1      -2.716  -4.115   9.108  0.00  0.00    +0.157 HD
ENDBRANCH   4   8
BRANCH   1  18
ATOM     18  C   UNL     1      -0.168   0.052   4.882  0.00  0.00    +0.016 C 
ATOM     19  C   UNL     1       1.028   1.002   4.973  0.00  0.00    -0.004 C 
BRANCH  18  21
ATOM     20  N   UNL     1      -0.687  -0.175   2.474  0.00  0.00    -0.287 N 
ATOM     21  C   UNL     1      -0.115  -0.699   3.577  0.00  0.00    +0.203 C 
ATOM     22  O   UNL     1       0.443  -1.774   3.518  0.00  0.00    -0.277 OA
ATOM     23  H   UNL     1      -1.077   0.712   2.505  0.00  0.00    +0.155 HD
BRANCH  20  30
ATOM     24  C   UNL     1      -2.858   0.252   0.686  0.00  0.00    +0.045 C 
ATOM     25  C   UNL     1      -1.760  -0.735   0.385  0.00  0.00    -0.029 A 
ATOM     26  C   UNL     1      -1.786  -1.460  -0.791  0.00  0.00    +0.005 A 
ATOM     27  C   UNL     1      -0.779  -2.366  -1.068  0.00  0.00    +0.000 A 
ATOM     28  C   UNL     1       0.257  -2.549  -0.170  0.00  0.00    +0.002 A 
ATOM     29  C   UNL     1       0.289  -1.827   1.006  0.00  0.00    +0.023 A 
ATOM     30  C   UNL     1      -0.719  -0.912   1.286  0.00  0.00    +0.036 A 
ENDBRANCH  20  30
ENDBRANCH  18  21
ENDBRANCH   1  18
TORSDOF 4
