REMARK  Name = ZINC21250391
REMARK  10 active torsions:
REMARK  status: ('A' for Active; 'I' for Inactive)
REMARK    1  A    between atoms: C_1  and  C_2
REMARK    2  A    between atoms: C_2  and  C_3
REMARK    3  A    between atoms: C_2  and  O_4
REMARK    4  A    between atoms: O_4  and  C_5
REMARK    5  A    between atoms: C_6  and  C_13
REMARK    6  A    between atoms: C_10  and  O_11
REMARK    7  A    between atoms: O_11  and  C_12
REMARK    8  A    between atoms: C_18  and  C_23
REMARK    9  A    between atoms: C_28  and  O_29
REMARK   10  A    between atoms: O_29  and  C_30
REMARK                            x       y       z     vdW  Elec       q    Type
REMARK                         _______ _______ _______ _____ _____    ______ ____
ROOT
ATOM      1  C   UNL     1       3.428   2.305  -3.727  0.00  0.00    +0.140 C 
ATOM      2  C   UNL     1       3.567   2.268  -5.231  0.00  0.00    +0.037 C 
ATOM      3  C   UNL     1       2.739   1.645  -6.083  0.00  0.00    +0.017 C 
ATOM      4  C   UNL     1       2.977   1.730  -7.583  0.00  0.00    +0.060 C 
ATOM      5  C   UNL     1       4.478   1.779  -7.865  0.00  0.00    +0.035 C 
ATOM      6  C   UNL     1       5.042   3.026  -7.174  0.00  0.00    +0.088 C 
ATOM      7  C   UNL     1       4.699   2.964  -5.716  0.00  0.00    +0.163 C 
ATOM      8  O   UNL     1       5.422   3.532  -4.921  0.00  0.00    -0.292 OA
ATOM      9  N   UNL     1       1.649   0.917  -5.727  0.00  0.00    -0.316 N 
ATOM     10  C   UNL     1       0.685   1.331  -4.812  0.00  0.00    +0.052 A 
ATOM     11  C   UNL     1      -0.633   1.547  -5.173  0.00  0.00    +0.025 A 
ATOM     12  C   UNL     1      -1.551   1.912  -4.202  0.00  0.00    +0.002 A 
ATOM     13  C   UNL     1      -1.152   2.054  -2.885  0.00  0.00    +0.002 A 
ATOM     14  C   UNL     1       0.170   1.856  -2.527  0.00  0.00    +0.025 A 
ATOM     15  C   UNL     1       1.096   1.513  -3.501  0.00  0.00    +0.049 A 
ATOM     16  N   UNL     1       2.449   1.380  -3.197  0.00  0.00    -0.331 N 
ATOM     17  H   UNL     1       1.481  -0.075  -6.170  0.00  0.00    +0.152 HD
ATOM     18  H   UNL     1       2.768   0.555  -2.543  0.00  0.00    +0.147 HD
ENDROOT
BRANCH   1  20
ATOM     19  C   UNL     1       3.135   4.086  -1.988  0.00  0.00    +0.168 A 
ATOM     20  C   UNL     1       3.038   3.702  -3.316  0.00  0.00    +0.023 A 
ATOM     21  C   UNL     1       2.579   4.598  -4.263  0.00  0.00    +0.009 A 
ATOM     22  C   UNL     1       2.221   5.880  -3.890  0.00  0.00    +0.004 A 
ATOM     23  C   UNL     1       2.320   6.271  -2.568  0.00  0.00    +0.049 A 
ATOM     24  C   UNL     1       2.779   5.378  -1.613  0.00  0.00    +0.162 A 
BRANCH  24  25
ATOM     25  O   UNL     1       2.877   5.761  -0.312  0.00  0.00    -0.491 OA
ATOM     26  C   UNL     1       2.489   7.101   0.001  0.00  0.00    +0.277 C 
ENDBRANCH  24  25
BRANCH  19  27
ATOM     27  O   UNL     1       3.581   3.204  -1.054  0.00  0.00    -0.485 OA
BRANCH  27  29
ATOM     28  C   UNL     1       5.467   4.110   0.156  0.00  0.00    +0.051 C 
ATOM     29  C   UNL     1       4.997   3.095  -0.889  0.00  0.00    +0.168 C 
ATOM     30  C   UNL     1       5.348   1.682  -0.422  0.00  0.00    +0.051 C 
ENDBRANCH  27  29
ENDBRANCH  19  27
ENDBRANCH   1  20
BRANCH   5  31
ATOM     31  C   UNL     1       4.717   1.867  -9.351  0.00  0.00    -0.002 A 
ATOM     32  C   UNL     1       4.183   2.914 -10.076  0.00  0.00    +0.007 A 
ATOM     33  C   UNL     1       4.403   2.995 -11.439  0.00  0.00    +0.001 A 
ATOM     34  C   UNL     1       5.157   2.028 -12.079  0.00  0.00    +0.004 A 
ATOM     35  C   UNL     1       5.692   0.979 -11.358  0.00  0.00    +0.046 A 
ATOM     36  C   UNL     1       5.478   0.898  -9.989  0.00  0.00    +0.124 A 
BRANCH  36  37
ATOM     37  O   UNL     1       6.008  -0.130  -9.277  0.00  0.00    -0.495 OA
ATOM     38  C   UNL     1       6.781  -1.090 -10.000  0.00  0.00    +0.277 C 
ENDBRANCH  36  37
ENDBRANCH   5  31
TORSDOF 6
