REMARK  Name = ZINC05276009
REMARK  10 active torsions:
REMARK  status: ('A' for Active; 'I' for Inactive)
REMARK    1  A    between atoms: C_1  and  C_2
REMARK    2  A    between atoms: C_2  and  C_4
REMARK    3  A    between atoms: C_2  and  C_12
REMARK    4  A    between atoms: C_4  and  C_5
REMARK    5  A    between atoms: C_5  and  C_6
REMARK    6  A    between atoms: N_8  and  C_9
REMARK    7  A    between atoms: C_9  and  C_10
REMARK    8  A    between atoms: C_18  and  C_37
REMARK    9  A    between atoms: C_29  and  C_36
REMARK   10  A    between atoms: C_32  and  O_35
REMARK                            x       y       z     vdW  Elec       q    Type
REMARK                         _______ _______ _______ _____ _____    ______ ____
ROOT
ATOM      1  C   UNL     1      -2.662   5.837  -0.331  0.00  0.00    -0.002 C 
ATOM      2  C   UNL     1      -4.174   6.093  -0.082  0.00  0.00    +0.004 C 
ATOM      3  C   UNL     1      -4.815   6.319  -1.480  0.00  0.00    +0.004 C 
ATOM      4  C   UNL     1      -3.784   5.673  -2.423  0.00  0.00    -0.001 C 
ATOM      5  C   UNL     1      -2.461   6.182  -1.818  0.00  0.00    -0.026 C 
ATOM      6  C   UNL     1      -1.262   5.587  -2.501  0.00  0.00    +0.007 C 
ATOM      7  C   UNL     1      -1.512   5.377  -4.002  0.00  0.00    +0.005 C 
ATOM      8  C   UNL     1      -2.589   6.313  -4.527  0.00  0.00    -0.001 C 
ATOM      9  C   UNL     1      -3.934   5.992  -3.881  0.00  0.00    -0.004 C 
ATOM     10  C   UNL     1      -4.948   7.092  -4.172  0.00  0.00    +0.004 C 
ATOM     11  C   UNL     1      -4.884   7.452  -5.665  0.00  0.00    +0.004 C 
ATOM     12  C   UNL     1      -4.211   6.309  -6.407  0.00  0.00    -0.002 C 
ATOM     13  C   UNL     1      -2.728   6.223  -6.047  0.00  0.00    -0.026 C 
ATOM     14  C   UNL     1      -2.160   4.927  -6.615  0.00  0.00    +0.010 C 
ATOM     15  C   UNL     1      -2.341   4.910  -8.136  0.00  0.00    +0.032 C 
ATOM     16  C   UNL     1      -3.804   5.092  -8.526  0.00  0.00    +0.115 C 
ATOM     17  C   UNL     1      -4.385   6.374  -7.917  0.00  0.00    +0.035 C 
ATOM     18  C   UNL     1      -1.968   7.410  -6.643  0.00  0.00    +0.012 C 
ATOM     19  C   UNL     1      -2.373   7.719  -1.875  0.00  0.00    +0.012 C 
ENDROOT
BRANCH   1  21
ATOM     20  C   UNL     1      -3.267   3.467  -0.817  0.00  0.00    +0.008 C 
ATOM     21  C   UNL     1      -2.330   4.381  -0.024  0.00  0.00    -0.010 C 
BRANCH  21  22
ATOM     22  C   UNL     1      -2.510   4.122   1.473  0.00  0.00    +0.013 C 
BRANCH  22  23
ATOM     23  C   UNL     1      -2.035   2.706   1.805  0.00  0.00    +0.096 C 
BRANCH  23  24
ATOM     24  C   UNL     1      -2.212   2.450   3.280  0.00  0.00    +0.213 C 
ATOM     25  O   UNL     1      -2.668   3.317   3.995  0.00  0.00    -0.276 OA
ATOM     26  N   UNL     1      -1.859   1.260   3.804  0.00  0.00    -0.305 N 
ATOM     27  H   UNL     1      -1.494   0.566   3.232  0.00  0.00    +0.149 HD
BRANCH  26  28
ATOM     28  C   UNL     1      -2.025   1.013   5.239  0.00  0.00    +0.229 C 
BRANCH  28  29
ATOM     29  C   UNL     1      -1.559  -0.382   5.566  0.00  0.00    +0.373 C 
ATOM     30  O   UNL     1      -1.132  -1.097   4.691  0.00  0.00    -0.245 OA
ATOM     31  O   UNL     1      -1.618  -0.831   6.830  0.00  0.00    -0.245 OA
ENDBRANCH  28  29
ENDBRANCH  26  28
ENDBRANCH  23  24
ENDBRANCH  22  23
ENDBRANCH  21  22
ENDBRANCH   1  21
BRANCH  16  32
ATOM     32  O   UNL     1      -3.906   5.163  -9.951  0.00  0.00    -0.392 OA
ATOM     33  H   UNL     1      -3.582   4.374 -10.408  0.00  0.00    +0.210 HD
ENDBRANCH  16  32
TORSDOF 7
