REMARK  Name = ZINC66601663
REMARK  9 active torsions:
REMARK  status: ('A' for Active; 'I' for Inactive)
REMARK    1  A    between atoms: C_1  and  C_2
REMARK    2  A    between atoms: C_2  and  C_3
REMARK    3  A    between atoms: C_2  and  C_4
REMARK    4  A    between atoms: C_4  and  C_6
REMARK    5  A    between atoms: C_4  and  N_11
REMARK    6  A    between atoms: C_12  and  C_14
REMARK    7  A    between atoms: C_14  and  N_15
REMARK    8  A    between atoms: N_18  and  C_19
REMARK    9  A    between atoms: C_19  and  C_20
REMARK                            x       y       z     vdW  Elec       q    Type
REMARK                         _______ _______ _______ _____ _____    ______ ____
ROOT
ATOM      1  C   UNL     1      -1.271  -4.184   1.155  0.00  0.00    +0.201 C 
ENDROOT
BRANCH   1   2
ATOM      2  N   UNL     1      -1.131  -4.678   2.527  0.00  0.00    -0.291 N 
ATOM      3  C   UNL     1      -1.089  -6.004   2.764  0.00  0.00    +0.300 C 
ATOM      4  O   UNL     1      -1.168  -6.790   1.840  0.00  0.00    -0.253 OA
ATOM      5  N   UNL     1      -0.960  -6.458   4.027  0.00  0.00    -0.295 N 
ATOM      6  H   UNL     1      -1.068  -4.051   3.264  0.00  0.00    +0.151 HD
ATOM      7  H   UNL     1      -0.897  -5.831   4.764  0.00  0.00    +0.151 HD
BRANCH   5   8
ATOM      8  C   UNL     1      -0.915  -7.900   4.285  0.00  0.00    +0.141 C 
BRANCH   8   9
ATOM      9  C   UNL     1      -0.768  -8.140   5.766  0.00  0.00    -0.030 A 
ATOM     10  C   UNL     1       0.491  -8.228   6.330  0.00  0.00    +0.006 A 
ATOM     11  C   UNL     1       0.627  -8.448   7.687  0.00  0.00    +0.020 A 
ATOM     12  C   UNL     1      -0.498  -8.581   8.482  0.00  0.00    +0.041 A 
ATOM     13  C   UNL     1      -1.758  -8.493   7.917  0.00  0.00    +0.020 A 
ATOM     14  C   UNL     1      -1.892  -8.267   6.560  0.00  0.00    +0.006 A 
ATOM     15 CL   UNL     1      -0.329  -8.859  10.187  0.00  0.00    -0.084 Cl
ENDBRANCH   8   9
ENDBRANCH   5   8
ENDBRANCH   1   2
BRANCH   1  17
ATOM     16  N   UNL     1      -1.413  -1.998   0.005  0.00  0.00    -0.306 N 
ATOM     17  C   UNL     1      -1.292  -2.677   1.163  0.00  0.00    +0.231 C 
ATOM     18  O   UNL     1      -1.198  -2.075   2.212  0.00  0.00    -0.274 OA
ATOM     19  H   UNL     1      -1.488  -2.480  -0.834  0.00  0.00    +0.149 HD
BRANCH  16  20
ATOM     20  C   UNL     1      -1.433  -0.534   0.013  0.00  0.00    +0.112 C 
BRANCH  20  21
ATOM     21  C   UNL     1      -2.162  -0.034  -1.208  0.00  0.00    +0.010 A 
ATOM     22  C   UNL     1      -3.027   1.003  -1.321  0.00  0.00    +0.013 A 
ATOM     23  C   UNL     1      -3.582   1.282  -2.556  0.00  0.00    +0.008 A 
ATOM     24  C   UNL     1      -3.244   0.510  -3.618  0.00  0.00    +0.045 A 
ATOM     25  S   UNL     1      -2.104  -0.651  -2.882  0.00  0.00    -0.100 S 
ENDBRANCH  20  21
BRANCH  20  27
ATOM     26  C   UNL     1      -0.019   1.526   0.010  0.00  0.00    +0.009 C 
ATOM     27  C   UNL     1       0.002  -0.004   0.002  0.00  0.00    +0.008 C 
ATOM     28  C   UNL     1       0.742  -0.511   1.242  0.00  0.00    +0.009 C 
ENDBRANCH  20  27
ENDBRANCH  16  20
ENDBRANCH   1  17
TORSDOF 7
