REMARK  Name = ZINC13576273
REMARK  10 active torsions:
REMARK  status: ('A' for Active; 'I' for Inactive)
REMARK    1  A    between atoms: C_1  and  C_2
REMARK    2  A    between atoms: C_6  and  C_24
REMARK    3  A    between atoms: C_7  and  C_11
REMARK    4  A    between atoms: C_11  and  C_12
REMARK    5  A    between atoms: N_14  and  C_15
REMARK    6  A    between atoms: C_20  and  C_21
REMARK    7  A    between atoms: C_27  and  C_30
REMARK    8  A    between atoms: C_30  and  C_31
REMARK    9  A    between atoms: C_30  and  C_32
REMARK   10  A    between atoms: C_30  and  C_33
REMARK                            x       y       z     vdW  Elec       q    Type
REMARK                         _______ _______ _______ _____ _____    ______ ____
ROOT
ATOM      1  C   UNL     1      -3.158   6.096 -10.025  0.00  0.00    +0.044 C 
ATOM      2  C   UNL     1      -3.059   5.331  -8.730  0.00  0.00    -0.036 A 
ATOM      3  C   UNL     1      -4.106   4.558  -8.319  0.00  0.00    +0.051 A 
ATOM      4  C   UNL     1      -4.032   3.845  -7.125  0.00  0.00    +0.143 A 
ATOM      5  C   UNL     1      -2.873   3.919  -6.335  0.00  0.00    +0.064 A 
ATOM      6  C   UNL     1      -2.814   3.164  -5.084  0.00  0.00    -0.026 A 
ATOM      7  C   UNL     1      -3.893   2.414  -4.734  0.00  0.00    +0.049 A 
ATOM      8  C   UNL     1      -5.022   2.380  -5.577  0.00  0.00    +0.341 A 
ATOM      9  O   UNL     1      -5.981   1.700  -5.256  0.00  0.00    -0.245 OA
ATOM     10  O   UNL     1      -5.070   3.080  -6.720  0.00  0.00    -0.422 OA
ATOM     11  C   UNL     1      -1.591   3.216  -4.205  0.00  0.00    +0.045 C 
ATOM     12  C   UNL     1      -1.792   4.714  -6.753  0.00  0.00    +0.146 A 
ATOM     13  C   UNL     1      -1.897   5.419  -7.959  0.00  0.00    +0.028 A 
ATOM     14  C   UNL     1      -0.624   6.137  -8.105  0.00  0.00    +0.004 A 
ATOM     15  C   UNL     1       0.107   5.821  -7.027  0.00  0.00    +0.200 A 
ATOM     16  O   UNL     1      -0.581   4.984  -6.232  0.00  0.00    -0.462 OA
ENDROOT
BRANCH  14  17
ATOM     17  C   UNL     1      -0.222   7.046  -9.237  0.00  0.00    -0.009 C 
ATOM     18  C   UNL     1       1.129   7.690  -8.919  0.00  0.00    +0.015 C 
ATOM     19  C   UNL     1      -0.107   6.232 -10.528  0.00  0.00    +0.015 C 
ATOM     20  C   UNL     1      -1.278   8.138  -9.415  0.00  0.00    +0.015 C 
ENDBRANCH  14  17
BRANCH   7  21
ATOM     21  C   UNL     1      -3.879   1.619  -3.454  0.00  0.00    +0.138 C 
BRANCH  21  22
ATOM     22  C   UNL     1      -4.421   2.465  -2.331  0.00  0.00    +0.222 C 
ATOM     23  O   UNL     1      -4.783   3.602  -2.548  0.00  0.00    -0.275 OA
ATOM     24  N   UNL     1      -4.503   1.958  -1.085  0.00  0.00    -0.285 N 
ATOM     25  H   UNL     1      -4.134   1.082  -0.892  0.00  0.00    +0.155 HD
BRANCH  24  26
ATOM     26  C   UNL     1      -5.119   2.692  -0.074  0.00  0.00    +0.046 A 
ATOM     27  C   UNL     1      -6.181   3.536  -0.372  0.00  0.00    +0.024 A 
ATOM     28  C   UNL     1      -6.793   4.259   0.632  0.00  0.00    +0.002 A 
ATOM     29  C   UNL     1      -6.348   4.157   1.940  0.00  0.00    +0.001 A 
ATOM     30  C   UNL     1      -5.292   3.329   2.254  0.00  0.00    +0.015 A 
ATOM     31  C   UNL     1      -4.666   2.587   1.250  0.00  0.00    +0.058 A 
BRANCH  31  32
ATOM     32  C   UNL     1      -3.535   1.699   1.578  0.00  0.00    +0.243 C 
ATOM     33  O   UNL     1      -2.918   1.146   0.689  0.00  0.00    -0.270 OA
ATOM     34  N   UNL     1      -3.186   1.501   2.865  0.00  0.00    -0.325 N 
ATOM     35  H   UNL     1      -3.678   1.942   3.575  0.00  0.00    +0.145 HD
ATOM     36  H   UNL     1      -2.442   0.917   3.081  0.00  0.00    +0.145 HD
ENDBRANCH  31  32
ENDBRANCH  24  26
ENDBRANCH  21  22
ENDBRANCH   7  21
TORSDOF 5
