REMARK  Name = ZINC16569734
REMARK  10 active torsions:
REMARK  status: ('A' for Active; 'I' for Inactive)
REMARK    1  A    between atoms: C_1  and  C_2
REMARK    2  A    between atoms: C_2  and  C_3
REMARK    3  A    between atoms: C_3  and  C_4
REMARK    4  A    between atoms: C_4  and  N_5
REMARK    5  A    between atoms: N_5  and  C_6
REMARK    6  A    between atoms: C_6  and  C_7
REMARK    7  A    between atoms: C_21  and  C_23
REMARK    8  A    between atoms: C_26  and  O_29
REMARK    9  A    between atoms: O_29  and  C_30
REMARK   10  A    between atoms: N_33  and  C_34
REMARK                            x       y       z     vdW  Elec       q    Type
REMARK                         _______ _______ _______ _____ _____    ______ ____
ROOT
ATOM      1  C   UNL     1       0.018   1.527  -0.316  0.00  0.00    +0.238 C 
ATOM      2  O   UNL     1      -0.022   0.315  -0.297  0.00  0.00    -0.273 OA
ATOM      3  N   UNL     1      -1.125   2.237  -0.394  0.00  0.00    -0.255 N 
ATOM      4  C   UNL     1      -2.361   1.581  -0.342  0.00  0.00    +0.061 A 
ATOM      5  C   UNL     1      -2.495   0.388   0.356  0.00  0.00    +0.025 A 
ATOM      6  C   UNL     1      -3.718  -0.254   0.396  0.00  0.00    +0.002 A 
ATOM      7  C   UNL     1      -4.814   0.285  -0.254  0.00  0.00    +0.002 A 
ATOM      8  C   UNL     1      -4.693   1.478  -0.945  0.00  0.00    +0.028 A 
ATOM      9  C   UNL     1      -3.475   2.127  -0.985  0.00  0.00    +0.068 A 
ATOM     10  N   UNL     1      -3.306   3.342  -1.664  0.00  0.00    -0.316 N 
ATOM     11  C   UNL     1      -4.114   3.965  -2.555  0.00  0.00    +0.092 A 
ATOM     12  C   UNL     1      -3.510   5.112  -2.942  0.00  0.00    +0.020 A 
ATOM     13  C   UNL     1      -2.278   5.197  -2.255  0.00  0.00    +0.025 A 
ATOM     14  C   UNL     1      -2.177   4.111  -1.481  0.00  0.00    +0.049 A 
ATOM     15  C   UNL     1      -1.071   3.702  -0.539  0.00  0.00    +0.159 C 
ENDROOT
BRANCH  15  16
ATOM     16  C   UNL     1      -1.275   4.356   0.803  0.00  0.00    -0.021 A 
ATOM     17  C   UNL     1      -2.213   3.848   1.683  0.00  0.00    +0.009 A 
ATOM     18  C   UNL     1      -2.398   4.442   2.916  0.00  0.00    +0.046 A 
ATOM     19  C   UNL     1      -1.650   5.557   3.267  0.00  0.00    +0.120 A 
ATOM     20  C   UNL     1      -0.713   6.068   2.380  0.00  0.00    +0.046 A 
ATOM     21  C   UNL     1      -0.528   5.466   1.151  0.00  0.00    +0.009 A 
BRANCH  19  22
ATOM     22  O   UNL     1      -1.835   6.147   4.477  0.00  0.00    -0.495 OA
ATOM     23  C   UNL     1      -2.816   5.567   5.339  0.00  0.00    +0.277 C 
ENDBRANCH  19  22
ENDBRANCH  15  16
BRANCH   1  24
ATOM     24  C   UNL     1       1.345   2.239  -0.245  0.00  0.00    +0.205 C 
BRANCH  24  25
ATOM     25  N   UNL     1       2.414   1.259  -0.037  0.00  0.00    -0.277 N 
ATOM     26  C   UNL     1       3.027   0.696  -1.097  0.00  0.00    +0.307 C 
ATOM     27  O   UNL     1       2.693   1.001  -2.226  0.00  0.00    -0.252 OA
ATOM     28  N   UNL     1       4.011  -0.205  -0.906  0.00  0.00    -0.267 N 
ATOM     29  H   UNL     1       4.231  -0.500  -0.008  0.00  0.00    +0.156 HD
BRANCH  28  30
ATOM     30  C   UNL     1       4.716  -0.716  -2.003  0.00  0.00    +0.070 A 
ATOM     31  C   UNL     1       4.066  -0.925  -3.212  0.00  0.00    +0.026 A 
ATOM     32  C   UNL     1       4.764  -1.429  -4.292  0.00  0.00    +0.002 A 
ATOM     33  C   UNL     1       6.109  -1.725  -4.172  0.00  0.00    +0.003 A 
ATOM     34  C   UNL     1       6.761  -1.518  -2.971  0.00  0.00    +0.040 A 
ATOM     35  C   UNL     1       6.070  -1.010  -1.886  0.00  0.00    +0.145 A 
ATOM     36  F   UNL     1       6.708  -0.803  -0.713  0.00  0.00    -0.204 F 
ENDBRANCH  28  30
BRANCH  25  37
ATOM     37  C   UNL     1       2.816   0.891   1.323  0.00  0.00    +0.110 C 
BRANCH  37  38
ATOM     38  C   UNL     1       1.982  -0.300   1.797  0.00  0.00    +0.019 C 
BRANCH  38  40
ATOM     39  C   UNL     1       1.567  -1.876   3.691  0.00  0.00    +0.004 C 
ATOM     40  C   UNL     1       2.402  -0.684   3.217  0.00  0.00    -0.002 C 
ENDBRANCH  38  40
ENDBRANCH  37  38
ENDBRANCH  25  37
ENDBRANCH  24  25
ENDBRANCH   1  24
TORSDOF 8
