REMARK  Name = ZINC13347011
REMARK  10 active torsions:
REMARK  status: ('A' for Active; 'I' for Inactive)
REMARK    1  A    between atoms: C_1  and  C_2
REMARK    2  A    between atoms: C_5  and  O_29
REMARK    3  A    between atoms: C_6  and  N_8
REMARK    4  A    between atoms: N_8  and  C_9
REMARK    5  A    between atoms: C_11  and  O_13
REMARK    6  A    between atoms: O_13  and  C_14
REMARK    7  A    between atoms: N_19  and  C_21
REMARK    8  A    between atoms: C_24  and  C_28
REMARK    9  A    between atoms: C_25  and  C_27
REMARK   10  A    between atoms: O_29  and  C_30
REMARK                            x       y       z     vdW  Elec       q    Type
REMARK                         _______ _______ _______ _____ _____    ______ ____
ROOT
ATOM      1  O   UNL     1      -0.184  -2.122   6.044  0.00  0.00    -0.439 OA
ENDROOT
BRANCH   1   2
ATOM      2  C   UNL     1       0.200  -2.844   7.127  0.00  0.00    +0.238 A 
ATOM      3  C   UNL     1       0.573  -2.182   8.312  0.00  0.00    +0.074 A 
ATOM      4  C   UNL     1       0.958  -2.906   9.397  0.00  0.00    +0.077 A 
ATOM      5  C   UNL     1       0.977  -4.312   9.316  0.00  0.00    +0.272 A 
ATOM      6  O   UNL     1       1.319  -4.979  10.280  0.00  0.00    -0.266 OA
ATOM      7  N   UNL     1       0.614  -4.917   8.167  0.00  0.00    -0.193 N 
ATOM      8  N   UNL     1       0.216  -4.153   7.064  0.00  0.00    -0.125 NA
BRANCH   7   9
ATOM      9  C   UNL     1       0.631  -6.313   8.079  0.00  0.00    +0.070 A 
ATOM     10  C   UNL     1       0.036  -7.081   9.072  0.00  0.00    +0.028 A 
ATOM     11  C   UNL     1       0.054  -8.458   8.982  0.00  0.00    +0.006 A 
ATOM     12  C   UNL     1       0.664  -9.074   7.904  0.00  0.00    -0.047 A 
ATOM     13  C   UNL     1       1.257  -8.313   6.913  0.00  0.00    -0.046 A 
ATOM     14  C   UNL     1       1.237  -6.934   6.994  0.00  0.00    +0.031 A 
ATOM     15  C   UNL     1       1.921  -8.989   5.741  0.00  0.00    +0.044 C 
ATOM     16  C   UNL     1       0.682 -10.578   7.808  0.00  0.00    +0.044 C 
ENDBRANCH   7   9
ENDBRANCH   1   2
BRANCH   1  19
ATOM     17  C   UNL     1      -0.926  -2.133   3.834  0.00  0.00    +0.276 C 
ATOM     18  O   UNL     1      -0.959  -0.774   3.849  0.00  0.00    -0.267 OA
ATOM     19  C   UNL     1      -0.543  -2.800   4.918  0.00  0.00    +0.265 C 
BRANCH  17  20
ATOM     20  N   UNL     1      -1.293  -2.828   2.680  0.00  0.00    -0.277 N 
ATOM     21  H   UNL     1      -1.184  -3.791   2.638  0.00  0.00    +0.155 HD
BRANCH  20  27
ATOM     22  C   UNL     1      -3.504   1.171   0.866  0.00  0.00    +0.044 C 
ATOM     23  C   UNL     1      -2.897  -0.196   0.674  0.00  0.00    -0.048 A 
ATOM     24  C   UNL     1      -2.863  -0.764  -0.585  0.00  0.00    +0.007 A 
ATOM     25  C   UNL     1      -2.308  -2.018  -0.767  0.00  0.00    +0.048 A 
ATOM     26  C   UNL     1      -1.786  -2.708   0.314  0.00  0.00    +0.141 A 
ATOM     27  C   UNL     1      -1.820  -2.136   1.584  0.00  0.00    +0.076 A 
ATOM     28  C   UNL     1      -2.373  -0.875   1.758  0.00  0.00    +0.030 A 
BRANCH  26  29
ATOM     29  O   UNL     1      -1.241  -3.941   0.136  0.00  0.00    -0.493 OA
ATOM     30  C   UNL     1      -1.241  -4.465  -1.193  0.00  0.00    +0.277 C 
ENDBRANCH  26  29
ENDBRANCH  20  27
ENDBRANCH  17  20
ENDBRANCH   1  19
TORSDOF 6
