REMARK  Name = ZINC09265602
REMARK  3 active torsions:
REMARK  status: ('A' for Active; 'I' for Inactive)
REMARK    1  A    between atoms: C_7  and  N_17
REMARK    2  A    between atoms: C_8  and  C_10
REMARK    3  A    between atoms: C_18  and  C_20
REMARK                            x       y       z     vdW  Elec       q    Type
REMARK                         _______ _______ _______ _____ _____    ______ ____
ROOT
ATOM      1  C   UNL     1       0.004   1.115   0.551  0.00  0.00    +0.001 A 
ATOM      2  C   UNL     1      -1.212   1.782   0.492  0.00  0.00    +0.004 A 
ATOM      3  C   UNL     1      -1.259   3.144   0.290  0.00  0.00    +0.047 A 
ATOM      4  C   UNL     1      -0.079   3.862   0.135  0.00  0.00    +0.138 A 
ATOM      5  C   UNL     1       1.150   3.181   0.190  0.00  0.00    +0.042 A 
ATOM      6  C   UNL     1       1.177   1.801   0.400  0.00  0.00    +0.013 A 
ATOM      7  C   UNL     1       2.183   4.204  -0.006  0.00  0.00    +0.092 A 
ATOM      8  C   UNL     1       1.514   5.387  -0.160  0.00  0.00    +0.212 A 
ATOM      9  O   UNL     1       0.183   5.168  -0.074  0.00  0.00    -0.448 OA
ENDROOT
BRANCH   8  10
ATOM     10  C   UNL     1       2.142   6.688  -0.383  0.00  0.00    +0.284 C 
ATOM     11  O   UNL     1       3.354   6.794  -0.345  0.00  0.00    -0.267 OA
ATOM     12  N   UNL     1       1.379   7.771  -0.630  0.00  0.00    -0.295 N 
ATOM     13  C   UNL     1      -0.089   7.785  -0.710  0.00  0.00    +0.108 C 
ATOM     14  C   UNL     1      -0.517   9.231  -1.035  0.00  0.00    +0.020 C 
ATOM     15  C   UNL     1       0.757   9.831  -1.686  0.00  0.00    +0.020 C 
ATOM     16  C   UNL     1       1.878   9.137  -0.872  0.00  0.00    +0.108 C 
ENDBRANCH   8  10
BRANCH   7  17
ATOM     17  N   UNL     1       3.559   4.011  -0.031  0.00  0.00    -0.278 N 
ATOM     18  C   UNL     1       4.066   2.835  -0.451  0.00  0.00    +0.254 C 
ATOM     19  O   UNL     1       3.327   1.976  -0.892  0.00  0.00    -0.270 OA
ATOM     20  H   UNL     1       4.154   4.722   0.253  0.00  0.00    +0.155 HD
BRANCH  18  21
ATOM     21  C   UNL     1       5.519   2.589  -0.374  0.00  0.00    +0.107 A 
ATOM     22  C   UNL     1       6.077   2.022   0.776  0.00  0.00    +0.138 A 
ATOM     23  C   UNL     1       7.439   1.791   0.837  0.00  0.00    +0.039 A 
ATOM     24  C   UNL     1       8.250   2.127  -0.232  0.00  0.00    +0.006 A 
ATOM     25  C   UNL     1       7.707   2.694  -1.371  0.00  0.00    +0.039 A 
ATOM     26  C   UNL     1       6.347   2.927  -1.451  0.00  0.00    +0.138 A 
ATOM     27  F   UNL     1       5.819   3.481  -2.564  0.00  0.00    -0.205 F 
ATOM     28  F   UNL     1       5.287   1.698   1.823  0.00  0.00    -0.205 F 
ENDBRANCH  18  21
ENDBRANCH   7  17
TORSDOF 3
