REMARK  Name = ZINC38806186
REMARK  11 active torsions:
REMARK  status: ('A' for Active; 'I' for Inactive)
REMARK    1  A    between atoms: C_1  and  C_2
REMARK    2  A    between atoms: C_2  and  O_3
REMARK    3  A    between atoms: O_3  and  C_4
REMARK    4  A    between atoms: C_4  and  C_6
REMARK    5  A    between atoms: C_10  and  N_11
REMARK    6  A    between atoms: C_12  and  C_14
REMARK    7  A    between atoms: N_19  and  C_21
REMARK    8  A    between atoms: C_28  and  C_34
REMARK    9  A    between atoms: C_28  and  C_35
REMARK   10  A    between atoms: C_30  and  C_32
REMARK   11  A    between atoms: C_30  and  C_33
REMARK                            x       y       z     vdW  Elec       q    Type
REMARK                         _______ _______ _______ _____ _____    ______ ____
ROOT
ATOM      1  C   UNL     1      -2.842  -2.472   0.022  0.00  0.00    +0.091 A 
ATOM      2  C   UNL     1      -3.558  -2.787  -1.194  0.00  0.00    -0.024 A 
ATOM      3  C   UNL     1      -4.789  -3.315  -1.004  0.00  0.00    -0.016 A 
ATOM      4  S   UNL     1      -4.968  -3.393   0.753  0.00  0.00    -0.079 S 
ATOM      5  C   UNL     1      -3.487  -2.753   1.221  0.00  0.00    +0.086 A 
ATOM      6  C   UNL     1      -5.752  -3.718  -2.070  0.00  0.00    -0.041 C 
ATOM      7  N   UNL     1      -5.148  -3.703  -3.402  0.00  0.00    +0.389 N 
ATOM      8  C   UNL     1      -3.693  -3.719  -3.460  0.00  0.00    -0.069 C 
ATOM      9  C   UNL     1      -3.070  -2.596  -2.622  0.00  0.00    +0.024 C 
ATOM     10  C   UNL     1      -3.263  -3.509  -4.924  0.00  0.00    -0.010 C 
ATOM     11  C   UNL     1      -3.139  -5.068  -2.997  0.00  0.00    -0.010 C 
ATOM     12  C   UNL     1      -6.935  -2.730  -2.053  0.00  0.00    -0.005 C 
ATOM     13  C   UNL     1      -6.303  -5.117  -1.757  0.00  0.00    -0.005 C 
ATOM     14  H   UNL     1      -5.502  -4.504  -3.928  0.00  0.00    -0.084 HD
ATOM     15  H   UNL     1      -5.484  -2.877  -3.901  0.00  0.00    -0.084 HD
ENDROOT
BRANCH   5  16
ATOM     16  N   UNL     1      -3.014  -2.550   2.508  0.00  0.00    -0.279 N 
ATOM     17  C   UNL     1      -3.779  -2.882   3.567  0.00  0.00    +0.223 C 
ATOM     18  O   UNL     1      -4.881  -3.358   3.394  0.00  0.00    -0.275 OA
ATOM     19  H   UNL     1      -2.133  -2.169   2.647  0.00  0.00    +0.155 HD
BRANCH  17  20
ATOM     20  C   UNL     1      -3.265  -2.661   4.966  0.00  0.00    +0.102 C 
ATOM     21  C   UNL     1      -3.063  -1.155   5.251  0.00  0.00    +0.110 C 
ATOM     22  C   UNL     1      -4.365  -0.721   5.889  0.00  0.00    +0.221 C 
ATOM     23  O   UNL     1      -4.729   0.430   6.010  0.00  0.00    -0.275 OA
ATOM     24  N   UNL     1      -5.058  -1.795   6.302  0.00  0.00    -0.271 N 
ATOM     25  C   UNL     1      -4.335  -3.040   6.015  0.00  0.00    +0.127 C 
BRANCH  24  26
ATOM     26  C   UNL     1      -6.310  -1.735   6.927  0.00  0.00    +0.036 A 
ATOM     27  C   UNL     1      -6.864  -0.506   7.257  0.00  0.00    +0.026 A 
ATOM     28  C   UNL     1      -8.099  -0.449   7.873  0.00  0.00    +0.040 A 
ATOM     29  C   UNL     1      -8.784  -1.617   8.162  0.00  0.00    +0.124 A 
ATOM     30  C   UNL     1      -8.233  -2.844   7.833  0.00  0.00    +0.040 A 
ATOM     31  C   UNL     1      -7.002  -2.905   7.211  0.00  0.00    +0.026 A 
ATOM     32  F   UNL     1      -9.992  -1.560   8.765  0.00  0.00    -0.205 F 
ENDBRANCH  24  26
ENDBRANCH  17  20
ENDBRANCH   5  16
BRANCH   1  33
ATOM     33  C   UNL     1      -1.500  -1.887   0.005  0.00  0.00    +0.342 C 
ATOM     34  O   UNL     1      -0.521  -2.610  -0.001  0.00  0.00    -0.245 OA
BRANCH  33  35
ATOM     35  O   UNL     1      -1.349  -0.547  -0.004  0.00  0.00    -0.461 OA
BRANCH  35  37
ATOM     36  C   UNL     1      -0.040   1.485  -0.028  0.00  0.00    +0.048 C 
ATOM     37  C   UNL     1      -0.011  -0.045  -0.020  0.00  0.00    +0.229 C 
ENDBRANCH  35  37
ENDBRANCH  33  35
ENDBRANCH   1  33
TORSDOF 6
