REMARK  Name = ZINC09483129
REMARK  8 active torsions:
REMARK  status: ('A' for Active; 'I' for Inactive)
REMARK    1  A    between atoms: C_1  and  C_2
REMARK    2  A    between atoms: C_5  and  C_8
REMARK    3  A    between atoms: C_13  and  C_17
REMARK    4  A    between atoms: C_13  and  C_18
REMARK    5  A    between atoms: N_26  and  C_27
REMARK    6  A    between atoms: C_27  and  C_28
REMARK    7  A    between atoms: N_30  and  C_31
REMARK    8  A    between atoms: C_31  and  C_32
REMARK                            x       y       z     vdW  Elec       q    Type
REMARK                         _______ _______ _______ _____ _____    ______ ____
ROOT
ATOM      1  C   UNL     1       0.923   3.685  -0.236  0.00  0.00    +0.139 C 
ATOM      2  C   UNL     1       1.568   2.320  -0.220  0.00  0.00    +0.037 C 
ATOM      3  C   UNL     1       2.885   2.062  -0.112  0.00  0.00    +0.017 C 
ATOM      4  C   UNL     1       3.405   0.639  -0.166  0.00  0.00    +0.058 C 
ATOM      5  C   UNL     1       2.382  -0.311   0.456  0.00  0.00    -0.023 C 
ATOM      6  C   UNL     1       1.081  -0.184  -0.344  0.00  0.00    +0.086 C 
ATOM      7  C   UNL     1       0.649   1.251  -0.344  0.00  0.00    +0.163 C 
ATOM      8  O   UNL     1      -0.533   1.507  -0.459  0.00  0.00    -0.292 OA
ATOM      9  C   UNL     1       2.133   0.079   1.915  0.00  0.00    +0.011 C 
ATOM     10  C   UNL     1       2.898  -1.749   0.384  0.00  0.00    +0.011 C 
ATOM     11  N   UNL     1       3.827   3.025   0.060  0.00  0.00    -0.316 N 
ATOM     12  C   UNL     1       3.682   4.088   0.948  0.00  0.00    +0.052 A 
ATOM     13  C   UNL     1       4.508   4.237   2.050  0.00  0.00    +0.025 A 
ATOM     14  C   UNL     1       4.329   5.326   2.887  0.00  0.00    +0.002 A 
ATOM     15  C   UNL     1       3.336   6.251   2.620  0.00  0.00    +0.002 A 
ATOM     16  C   UNL     1       2.508   6.096   1.523  0.00  0.00    +0.025 A 
ATOM     17  C   UNL     1       2.680   5.000   0.687  0.00  0.00    +0.052 A 
ATOM     18  N   UNL     1       1.834   4.795  -0.397  0.00  0.00    -0.308 N 
ATOM     19  H   UNL     1       4.643   2.969  -0.461  0.00  0.00    +0.152 HD
ENDROOT
BRANCH   1  24
ATOM     20  C   UNL     1      -1.949   4.396   4.728  0.00  0.00    +0.044 C 
ATOM     21  C   UNL     1      -1.200   4.211   3.434  0.00  0.00    -0.050 A 
ATOM     22  C   UNL     1      -1.861   4.346   2.227  0.00  0.00    +0.004 A 
ATOM     23  C   UNL     1      -1.174   4.176   1.040  0.00  0.00    +0.006 A 
ATOM     24  C   UNL     1       0.174   3.871   1.059  0.00  0.00    -0.023 A 
ATOM     25  C   UNL     1       0.834   3.730   2.265  0.00  0.00    +0.006 A 
ATOM     26  C   UNL     1       0.148   3.906   3.453  0.00  0.00    +0.004 A 
ENDBRANCH   1  24
BRANCH  18  27
ATOM     27  C   UNL     1       1.109   6.025  -0.739  0.00  0.00    +0.201 C 
BRANCH  27  28
ATOM     28  C   UNL     1       2.084   7.059  -1.240  0.00  0.00    +0.231 C 
ATOM     29  O   UNL     1       3.252   6.769  -1.390  0.00  0.00    -0.274 OA
ATOM     30  N   UNL     1       1.658   8.307  -1.522  0.00  0.00    -0.308 N 
ATOM     31  H   UNL     1       0.724   8.539  -1.403  0.00  0.00    +0.149 HD
BRANCH  30  32
ATOM     32  C   UNL     1       2.606   9.312  -2.009  0.00  0.00    +0.159 C 
BRANCH  32  33
ATOM     33  C   UNL     1       1.882  10.612  -2.247  0.00  0.00    +0.058 A 
ATOM     34  C   UNL     1       1.865  11.576  -1.256  0.00  0.00    +0.025 A 
ATOM     35  C   UNL     1       1.201  12.770  -1.487  0.00  0.00    +0.003 A 
ATOM     36  C   UNL     1       0.566  12.947  -2.707  0.00  0.00    +0.020 A 
ATOM     37  C   UNL     1       0.620  11.937  -3.647  0.00  0.00    +0.111 A 
ATOM     38  N   UNL     1       1.266  10.815  -3.395  0.00  0.00    -0.258 NA
ENDBRANCH  32  33
ENDBRANCH  30  32
ENDBRANCH  27  28
ENDBRANCH  18  27
TORSDOF 5
