REMARK  Name = ZINC34783234
REMARK  11 active torsions:
REMARK  status: ('A' for Active; 'I' for Inactive)
REMARK    1  A    between atoms: C_1  and  C_2
REMARK    2  A    between atoms: C_5  and  C_9
REMARK    3  A    between atoms: C_6  and  C_8
REMARK    4  A    between atoms: C_9  and  N_10
REMARK    5  A    between atoms: C_13  and  C_20
REMARK    6  A    between atoms: C_14  and  C_16
REMARK    7  A    between atoms: N_18  and  N_19
REMARK    8  A    between atoms: N_23  and  C_26
REMARK    9  A    between atoms: C_26  and  C_27
REMARK   10  A    between atoms: N_29  and  C_30
REMARK   11  A    between atoms: C_35  and  C_36
REMARK                            x       y       z     vdW  Elec       q    Type
REMARK                         _______ _______ _______ _____ _____    ______ ____
ROOT
ATOM      1  N   UNL     1      -1.301  -4.792   0.332  0.00  0.00    -0.283 N 
ATOM      2  C   UNL     1      -1.631  -4.920   1.651  0.00  0.00    +0.098 A 
ATOM      3  C   UNL     1      -2.895  -5.386   2.040  0.00  0.00    +0.074 A 
ATOM      4  C   UNL     1      -3.112  -5.474   3.421  0.00  0.00    -0.017 A 
ATOM      5  C   UNL     1      -2.084  -5.103   4.238  0.00  0.00    +0.081 A 
ATOM      6  S   UNL     1      -0.815  -4.630   3.080  0.00  0.00    -0.065 S 
ATOM      7  C   UNL     1      -4.426  -5.957   3.980  0.00  0.00    +0.046 C 
ATOM      8  C   UNL     1      -3.824  -5.719   0.933  0.00  0.00    +0.266 A 
ATOM      9  O   UNL     1      -4.944  -6.130   1.172  0.00  0.00    -0.267 OA
ATOM     10  N   UNL     1      -3.414  -5.561  -0.338  0.00  0.00    -0.251 N 
ATOM     11  C   UNL     1      -2.186  -5.105  -0.633  0.00  0.00    +0.334 A 
ATOM     12  O   UNL     1      -1.865  -4.976  -1.799  0.00  0.00    -0.246 OA
ENDROOT
BRANCH   5  13
ATOM     13  C   UNL     1      -2.036  -5.095   5.702  0.00  0.00    +0.264 C 
ATOM     14  O   UNL     1      -3.005  -5.454   6.345  0.00  0.00    -0.268 OA
ATOM     15  N   UNL     1      -0.919  -4.689   6.337  0.00  0.00    -0.249 N 
ATOM     16  H   UNL     1      -0.146  -4.403   5.825  0.00  0.00    +0.169 HD
BRANCH  15  17
ATOM     17  N   UNL     1      -0.874  -4.682   7.703  0.00  0.00    -0.254 NA
ATOM     18  H   UNL     1       0.022  -4.356   8.033  0.00  0.00    +0.140 HD
ATOM     19  H   UNL     1      -1.625  -4.127   8.086  0.00  0.00    +0.140 HD
ENDBRANCH  15  17
ENDBRANCH   5  13
BRANCH   1  20
ATOM     20  C   UNL     1       0.029  -4.302  -0.038  0.00  0.00    +0.162 C 
BRANCH  20  25
ATOM     21  C   UNL     1       0.030   1.476  -0.012  0.00  0.00    +0.044 C 
ATOM     22  C   UNL     1       0.030  -0.031  -0.019  0.00  0.00    -0.050 A 
ATOM     23  C   UNL     1      -1.147  -0.723   0.197  0.00  0.00    +0.004 A 
ATOM     24  C   UNL     1      -1.147  -2.105   0.191  0.00  0.00    +0.006 A 
ATOM     25  C   UNL     1       0.029  -2.795  -0.032  0.00  0.00    -0.025 A 
ATOM     26  C   UNL     1       1.206  -2.103  -0.249  0.00  0.00    -0.045 A 
ATOM     27  C   UNL     1       1.205  -0.721  -0.247  0.00  0.00    +0.007 A 
ATOM     28  C   UNL     1       2.489  -2.856  -0.491  0.00  0.00    +0.044 C 
ENDBRANCH  20  25
ENDBRANCH   1  20
BRANCH  10  29
ATOM     29  C   UNL     1      -4.333  -5.891  -1.429  0.00  0.00    +0.226 C 
BRANCH  29  30
ATOM     30  C   UNL     1      -5.136  -4.671  -1.796  0.00  0.00    +0.237 C 
ATOM     31  O   UNL     1      -4.959  -3.627  -1.204  0.00  0.00    -0.274 OA
ATOM     32  N   UNL     1      -6.053  -4.738  -2.782  0.00  0.00    -0.284 N 
ATOM     33  H   UNL     1      -6.139  -5.548  -3.310  0.00  0.00    +0.155 HD
BRANCH  32  34
ATOM     34  C   UNL     1      -6.879  -3.640  -3.046  0.00  0.00    +0.036 A 
ATOM     35  C   UNL     1      -7.146  -2.714  -2.045  0.00  0.00    +0.023 A 
ATOM     36  C   UNL     1      -7.962  -1.632  -2.308  0.00  0.00    +0.002 A 
ATOM     37  C   UNL     1      -8.514  -1.469  -3.566  0.00  0.00    +0.000 A 
ATOM     38  C   UNL     1      -8.250  -2.389  -4.564  0.00  0.00    +0.005 A 
ATOM     39  C   UNL     1      -7.429  -3.471  -4.309  0.00  0.00    -0.029 A 
ATOM     40  C   UNL     1      -7.137  -4.469  -5.399  0.00  0.00    +0.045 C 
ENDBRANCH  32  34
ENDBRANCH  29  30
ENDBRANCH  10  29
TORSDOF 7
