REMARK  Name = ZINC46552217
REMARK  10 active torsions:
REMARK  status: ('A' for Active; 'I' for Inactive)
REMARK    1  A    between atoms: C_1  and  C_2
REMARK    2  A    between atoms: C_2  and  C_3
REMARK    3  A    between atoms: C_2  and  C_4
REMARK    4  A    between atoms: C_4  and  C_6
REMARK    5  A    between atoms: C_4  and  N_24
REMARK    6  A    between atoms: C_6  and  O_8
REMARK    7  A    between atoms: O_8  and  C_9
REMARK    8  A    between atoms: C_9  and  C_10
REMARK    9  A    between atoms: N_24  and  C_25
REMARK   10  A    between atoms: C_28  and  C_32
REMARK                            x       y       z     vdW  Elec       q    Type
REMARK                         _______ _______ _______ _____ _____    ______ ____
ROOT
ATOM      1  C   UNL     1      -2.193  -0.018  -1.431  0.00  0.00    +0.328 C 
ATOM      2  O   UNL     1      -2.664  -0.791  -2.231  0.00  0.00    -0.249 OA
ENDROOT
BRANCH   1   3
ATOM      3  C   UNL     1      -1.543  -0.535  -0.174  0.00  0.00    +0.182 C 
BRANCH   3   5
ATOM      4  C   UNL     1      -0.011   1.431   0.000  0.00  0.00    +0.009 C 
ATOM      5  C   UNL     1      -0.079  -0.091  -0.137  0.00  0.00    +0.014 C 
ATOM      6  C   UNL     1       0.621  -0.743   1.057  0.00  0.00    +0.009 C 
ENDBRANCH   3   5
BRANCH   3   7
ATOM      7  N   UNL     1      -1.610  -1.999  -0.157  0.00  0.00    -0.330 N 
ATOM      8  H   UNL     1      -0.839  -2.523  -0.426  0.00  0.00    +0.147 HD
BRANCH   7   9
ATOM      9  C   UNL     1      -2.784  -2.640   0.248  0.00  0.00    +0.046 A 
ATOM     10  C   UNL     1      -3.921  -1.895   0.531  0.00  0.00    +0.025 A 
ATOM     11  C   UNL     1      -5.080  -2.531   0.930  0.00  0.00    +0.014 A 
ATOM     12  C   UNL     1      -5.109  -3.909   1.050  0.00  0.00    +0.056 A 
ATOM     13  C   UNL     1      -3.979  -4.654   0.769  0.00  0.00    +0.034 A 
ATOM     14  C   UNL     1      -2.817  -4.024   0.363  0.00  0.00    +0.062 A 
ATOM     15 CL   UNL     1      -1.400  -4.961   0.005  0.00  0.00    -0.082 Cl
BRANCH  12  16
ATOM     16  C   UNL     1      -6.375  -4.599   1.487  0.00  0.00    +0.417 C 
ATOM     17  F   UNL     1      -7.147  -4.914   0.363  0.00  0.00    -0.166 F 
ATOM     18  F   UNL     1      -6.052  -5.774   2.175  0.00  0.00    -0.166 F 
ATOM     19  F   UNL     1      -7.102  -3.751   2.329  0.00  0.00    -0.166 F 
ENDBRANCH  12  16
ENDBRANCH   7   9
ENDBRANCH   3   7
ENDBRANCH   1   3
BRANCH   1  20
ATOM     20  O   UNL     1      -2.249   1.304  -1.663  0.00  0.00    -0.454 OA
BRANCH  20  21
ATOM     21  C   UNL     1      -2.880   1.724  -2.874  0.00  0.00    +0.327 C 
BRANCH  21  22
ATOM     22  C   UNL     1      -2.848   3.228  -2.962  0.00  0.00    +0.253 C 
ATOM     23  O   UNL     1      -2.336   3.876  -2.074  0.00  0.00    -0.272 OA
ATOM     24  N   UNL     1      -3.389   3.853  -4.026  0.00  0.00    -0.296 N 
ATOM     25  C   UNL     1      -4.018   3.080  -5.107  0.00  0.00    +0.127 C 
ATOM     26  C   UNL     1      -5.453   3.586  -5.299  0.00  0.00    +0.125 C 
ATOM     27  N   UNL     1      -5.425   5.052  -5.400  0.00  0.00    -0.314 N 
ATOM     28  C   UNL     1      -4.795   5.824  -4.320  0.00  0.00    +0.125 C 
ATOM     29  C   UNL     1      -3.365   5.319  -4.125  0.00  0.00    +0.127 C 
ATOM     30  C   UNL     1      -5.983   5.696  -6.498  0.00  0.00    +0.099 A 
ATOM     31  C   UNL     1      -6.468   4.946  -7.565  0.00  0.00    +0.042 A 
ATOM     32  C   UNL     1      -7.020   5.600  -8.651  0.00  0.00    +0.005 A 
ATOM     33  C   UNL     1      -7.070   6.988  -8.634  0.00  0.00    +0.018 A 
ATOM     34  C   UNL     1      -6.570   7.669  -7.543  0.00  0.00    +0.084 A 
ATOM     35  N   UNL     1      -6.053   7.018  -6.517  0.00  0.00    -0.350 N 
ATOM     36  H   UNL     1      -5.713   7.521  -5.761  0.00  0.00    +0.166 HD
ENDBRANCH  21  22
ENDBRANCH  20  21
ENDBRANCH   1  20
TORSDOF 8
