REMARK  Name = ZINC63384450
REMARK  4 active torsions:
REMARK  status: ('A' for Active; 'I' for Inactive)
REMARK    1  A    between atoms: C_7  and  C_10
REMARK    2  A    between atoms: C_10  and  C_11
REMARK    3  A    between atoms: N_19  and  C_22
REMARK    4  A    between atoms: C_22  and  C_23
REMARK                            x       y       z     vdW  Elec       q    Type
REMARK                         _______ _______ _______ _____ _____    ______ ____
ROOT
ATOM      1  C   UNL     1       0.457  -3.653  -1.462  0.00  0.00    +0.072 C 
ATOM      2  C   UNL     1      -0.573  -4.803  -1.491  0.00  0.00    +0.107 C 
ATOM      3  C   UNL     1      -0.058  -5.772  -2.592  0.00  0.00    +0.122 C 
ATOM      4  C   UNL     1       0.289  -7.024  -1.818  0.00  0.00    +0.228 C 
ATOM      5  O   UNL     1       0.729  -8.046  -2.299  0.00  0.00    -0.275 OA
ATOM      6  N   UNL     1       0.035  -6.829  -0.519  0.00  0.00    -0.239 N 
ATOM      7  C   UNL     1      -0.461  -5.607  -0.216  0.00  0.00    +0.227 C 
ATOM      8  O   UNL     1      -0.765  -5.213   0.889  0.00  0.00    -0.275 OA
ATOM      9  C   UNL     1       1.219  -5.107  -3.123  0.00  0.00    +0.136 C 
ATOM     10  N   UNL     1       1.703  -4.238  -2.025  0.00  0.00    -0.295 NA
ATOM     11  C   UNL     1       0.953  -4.337  -4.385  0.00  0.00    +0.003 A 
ATOM     12  C   UNL     1       0.121  -3.284  -4.696  0.00  0.00    +0.008 A 
ATOM     13  C   UNL     1       0.096  -2.778  -5.983  0.00  0.00    +0.000 A 
ATOM     14  C   UNL     1       0.908  -3.332  -6.956  0.00  0.00    +0.002 A 
ATOM     15  C   UNL     1       1.744  -4.385  -6.649  0.00  0.00    +0.023 A 
ATOM     16  C   UNL     1       1.776  -4.901  -5.355  0.00  0.00    +0.039 A 
ATOM     17  N   UNL     1       2.525  -5.944  -4.806  0.00  0.00    -0.283 N 
ATOM     18  C   UNL     1       2.257  -6.129  -3.499  0.00  0.00    +0.243 C 
ATOM     19  O   UNL     1       2.756  -6.957  -2.767  0.00  0.00    -0.273 OA
ATOM     20  H   UNL     1       2.312  -3.517  -2.380  0.00  0.00    +0.124 HD
ATOM     21  H   UNL     1       3.163  -6.475  -5.308  0.00  0.00    +0.155 HD
ENDROOT
BRANCH   1  22
ATOM     22  C   UNL     1       0.691  -3.186  -0.024  0.00  0.00    +0.052 C 
BRANCH  22  29
ATOM     23  C   UNL     1      -0.016   1.348   0.009  0.00  0.00    +0.001 A 
ATOM     24  C   UNL     1       1.166   2.101   0.002  0.00  0.00    +0.002 A 
ATOM     25  C   UNL     1       2.391   1.535  -0.013  0.00  0.00    +0.026 A 
ATOM     26  C   UNL     1       2.529   0.120  -0.022  0.00  0.00    +0.043 A 
ATOM     27  N   UNL     1       3.587  -0.654  -0.037  0.00  0.00    -0.380 N 
ATOM     28  C   UNL     1       3.143  -2.053  -0.041  0.00  0.00    +0.144 C 
ATOM     29  C   UNL     1       1.631  -2.008  -0.025  0.00  0.00    -0.040 C 
ATOM     30  C   UNL     1       1.295  -0.698  -0.014  0.00  0.00    -0.001 A 
ATOM     31  C   UNL     1       0.002  -0.004   0.002  0.00  0.00    +0.010 A 
ATOM     32  H   UNL     1       4.509  -0.353  -0.045  0.00  0.00    +0.160 HD
ENDBRANCH  22  29
ENDBRANCH   1  22
BRANCH   6  33
ATOM     33  C   UNL     1       0.268  -7.858   0.497  0.00  0.00    +0.148 C 
BRANCH  33  34
ATOM     34  C   UNL     1       1.693  -7.726   1.040  0.00  0.00    +0.136 C 
ATOM     35  C   UNL     1       1.988  -8.879   2.023  0.00  0.00    +0.035 C 
ATOM     36  C   UNL     1       2.809  -8.166   3.131  0.00  0.00    +0.031 C 
ATOM     37  C   UNL     1       2.142  -6.768   3.138  0.00  0.00    +0.160 C 
ATOM     38  O   UNL     1       1.826  -6.495   1.761  0.00  0.00    -0.375 OA
ENDBRANCH  33  34
ENDBRANCH   6  33
TORSDOF 4
