REMARK  Name = ZINC10039518
REMARK  14 active torsions:
REMARK  status: ('A' for Active; 'I' for Inactive)
REMARK    1  A    between atoms: C_1  and  C_2
REMARK    2  A    between atoms: C_2  and  C_3
REMARK    3  A    between atoms: C_3  and  O_4
REMARK    4  A    between atoms: O_4  and  C_5
REMARK    5  A    between atoms: C_5  and  C_7
REMARK    6  A    between atoms: C_10  and  C_13
REMARK    7  A    between atoms: C_16  and  C_18
REMARK    8  A    between atoms: N_19  and  N_20
REMARK    9  A    between atoms: C_21  and  C_23
REMARK   10  A    between atoms: C_23  and  C_25
REMARK   11  A    between atoms: C_23  and  N_28
REMARK   12  A    between atoms: C_25  and  C_26
REMARK   13  A    between atoms: C_25  and  C_27
REMARK   14  A    between atoms: C_29  and  C_31
REMARK                            x       y       z     vdW  Elec       q    Type
REMARK                         _______ _______ _______ _____ _____    ______ ____
ROOT
ATOM      1  C   UNL     1      -3.238   1.902   1.624  0.00  0.00    +0.176 C 
ATOM      2  N   UNL     1      -2.485   1.143   0.882  0.00  0.00    -0.185 NA
ENDROOT
BRANCH   1   6
ATOM      3  C   UNL     1      -2.011   5.299   1.436  0.00  0.00    +0.136 A 
ATOM      4  C   UNL     1      -3.139   5.514   2.175  0.00  0.00    +0.050 A 
ATOM      5  C   UNL     1      -3.762   4.272   2.345  0.00  0.00    +0.051 A 
ATOM      6  C   UNL     1      -2.974   3.340   1.704  0.00  0.00    +0.148 A 
ATOM      7  O   UNL     1      -1.923   3.983   1.158  0.00  0.00    -0.454 OA
BRANCH   3  11
ATOM      8  C   UNL     1       0.750   8.273   0.216  0.00  0.00    +0.059 A 
ATOM      9  C   UNL     1       0.939   6.942  -0.172  0.00  0.00    +0.015 A 
ATOM     10  C   UNL     1       0.049   5.984   0.221  0.00  0.00    +0.012 A 
ATOM     11  C   UNL     1      -1.051   6.333   1.012  0.00  0.00    +0.017 A 
ATOM     12  C   UNL     1      -1.242   7.665   1.396  0.00  0.00    +0.012 A 
ATOM     13  C   UNL     1      -0.350   8.622   1.007  0.00  0.00    +0.015 A 
BRANCH   8  14
ATOM     14  C   UNL     1       1.710   9.308  -0.209  0.00  0.00    +0.339 C 
ATOM     15  O   UNL     1       2.665   9.005  -0.897  0.00  0.00    -0.245 OA
BRANCH  14  16
ATOM     16  O   UNL     1       1.529  10.590   0.164  0.00  0.00    -0.461 OA
BRANCH  16  17
ATOM     17  C   UNL     1       2.513  11.555  -0.291  0.00  0.00    +0.232 C 
BRANCH  17  19
ATOM     18  C   UNL     1       3.180  13.962  -0.251  0.00  0.00    +0.007 C 
ATOM     19  C   UNL     1       2.143  12.945   0.229  0.00  0.00    +0.038 C 
ENDBRANCH  17  19
ENDBRANCH  16  17
ENDBRANCH  14  16
ENDBRANCH   8  14
ENDBRANCH   3  11
ENDBRANCH   1   6
BRANCH   2  20
ATOM     20  N   UNL     1      -1.513   1.717   0.052  0.00  0.00    -0.205 N 
ATOM     21  C   UNL     1      -0.686   0.928  -0.662  0.00  0.00    +0.253 C 
ATOM     22  O   UNL     1      -0.845  -0.274  -0.664  0.00  0.00    -0.272 OA
ATOM     23  H   UNL     1      -1.436   2.682  -0.008  0.00  0.00    +0.177 HD
BRANCH  21  24
ATOM     24  C   UNL     1       0.434   1.541  -1.464  0.00  0.00    +0.163 C 
BRANCH  24  25
ATOM     25  N   UNL     1       1.425   0.511  -1.785  0.00  0.00    -0.300 N 
ATOM     26  C   UNL     1       2.704   0.860  -2.030  0.00  0.00    +0.245 C 
ATOM     27  O   UNL     1       3.034   2.029  -1.985  0.00  0.00    -0.270 OA
ATOM     28  H   UNL     1       1.161  -0.421  -1.821  0.00  0.00    +0.150 HD
BRANCH  26  29
ATOM     29  C   UNL     1       3.704  -0.179  -2.354  0.00  0.00    +0.038 A 
ATOM     30  C   UNL     1       5.029   0.178  -2.609  0.00  0.00    +0.013 A 
ATOM     31  C   UNL     1       5.958  -0.796  -2.910  0.00  0.00    +0.002 A 
ATOM     32  C   UNL     1       5.580  -2.126  -2.960  0.00  0.00    +0.020 A 
ATOM     33  C   UNL     1       4.267  -2.488  -2.708  0.00  0.00    +0.042 A 
ATOM     34  C   UNL     1       3.329  -1.523  -2.401  0.00  0.00    +0.033 A 
ATOM     35 CL   UNL     1       3.802  -4.159  -2.772  0.00  0.00    -0.084 Cl
ENDBRANCH  26  29
ENDBRANCH  24  25
BRANCH  24  36
ATOM     36  C   UNL     1      -0.129   2.129  -2.760  0.00  0.00    +0.012 C 
ATOM     37  C   UNL     1      -0.880   1.040  -3.529  0.00  0.00    +0.009 C 
ATOM     38  C   UNL     1      -1.089   3.272  -2.426  0.00  0.00    +0.009 C 
ENDBRANCH  24  36
ENDBRANCH  21  24
ENDBRANCH   2  20
TORSDOF 11
