REMARK  Name = ZINC01073794
REMARK  12 active torsions:
REMARK  status: ('A' for Active; 'I' for Inactive)
REMARK    1  A    between atoms: C_1  and  C_2
REMARK    2  A    between atoms: C_2  and  C_3
REMARK    3  A    between atoms: C_2  and  C_4
REMARK    4  A    between atoms: C_2  and  C_5
REMARK    5  A    between atoms: C_13  and  C_25
REMARK    6  A    between atoms: C_15  and  C_23
REMARK    7  A    between atoms: C_16  and  N_22
REMARK    8  A    between atoms: C_17  and  C_18
REMARK    9  A    between atoms: C_17  and  C_20
REMARK   10  A    between atoms: C_28  and  O_31
REMARK   11  A    between atoms: O_31  and  C_32
REMARK   12  A    between atoms: C_32  and  C_33
REMARK                            x       y       z     vdW  Elec       q    Type
REMARK                         _______ _______ _______ _____ _____    ______ ____
ROOT
ATOM      1  C   UNL     1      -0.745   1.587   1.259  0.00  0.00    -0.001 C 
ATOM      2  C   UNL     1      -0.013   1.086   0.008  0.00  0.00    +0.031 C 
ATOM      3  C   UNL     1      -0.753   1.591  -1.200  0.00  0.00    -0.024 C 
ATOM      4  C   UNL     1      -2.034   1.815  -1.188  0.00  0.00    -0.030 C 
ATOM      5  C   UNL     1      -2.926   1.579  -0.001  0.00  0.00    +0.030 C 
ATOM      6  C   UNL     1      -2.178   1.061   1.216  0.00  0.00    +0.013 C 
ATOM      7  C   UNL     1      -4.003   0.562  -0.397  0.00  0.00    +0.068 C 
ATOM      8  C   UNL     1      -4.584   0.890  -1.737  0.00  0.00    +0.057 C 
ATOM      9  C   UNL     1      -4.005   1.662  -2.653  0.00  0.00    +0.054 C 
ATOM     10  C   UNL     1      -2.687   2.353  -2.448  0.00  0.00    +0.202 C 
ENDROOT
BRANCH   7  11
ATOM     11  C   UNL     1      -5.100   0.576   0.636  0.00  0.00    -0.038 A 
ATOM     12  C   UNL     1      -5.822   1.734   0.859  0.00  0.00    +0.008 A 
ATOM     13  C   UNL     1      -6.833   1.748   1.801  0.00  0.00    +0.046 A 
ATOM     14  C   UNL     1      -7.115   0.603   2.531  0.00  0.00    +0.121 A 
ATOM     15  C   UNL     1      -6.385  -0.556   2.309  0.00  0.00    +0.046 A 
ATOM     16  C   UNL     1      -5.379  -0.566   1.363  0.00  0.00    +0.008 A 
BRANCH  14  17
ATOM     17  O   UNL     1      -8.104   0.616   3.463  0.00  0.00    -0.483 OA
BRANCH  17  18
ATOM     18  C   UNL     1      -8.815   1.843   3.638  0.00  0.00    +0.324 C 
BRANCH  18  19
ATOM     19  C   UNL     1      -9.866   1.668   4.703  0.00  0.00    +0.248 C 
ATOM     20  O   UNL     1      -9.994   0.598   5.258  0.00  0.00    -0.272 OA
ATOM     21  N   UNL     1     -10.663   2.702   5.039  0.00  0.00    -0.327 N 
ATOM     22  H   UNL     1     -11.430   2.574   5.817  0.00  0.00    +0.145 HD
ATOM     23  H   UNL     1     -10.547   3.673   4.536  0.00  0.00    +0.145 HD
ENDBRANCH  18  19
ENDBRANCH  17  18
ENDBRANCH  14  17
ENDBRANCH   7  11
BRANCH   1  25
ATOM     24  C   UNL     1       1.405   1.573   2.533  0.00  0.00    +0.011 C 
ATOM     25  C   UNL     1      -0.039   1.067   2.513  0.00  0.00    -0.035 C 
ATOM     26  C   UNL     1      -0.773   1.570   3.758  0.00  0.00    +0.011 C 
ATOM     27  C   UNL     1      -0.043  -0.463   2.503  0.00  0.00    +0.011 C 
ENDBRANCH   1  25
BRANCH   9  28
ATOM     28  N   UNL     1      -4.647   1.836  -3.851  0.00  0.00    -0.358 N 
ATOM     29  H   UNL     1      -4.195   2.468  -4.630  0.00  0.00    +0.142 HD
ATOM     30  H   UNL     1      -5.613   1.343  -4.034  0.00  0.00    +0.142 HD
ENDBRANCH   9  28
BRANCH  10  31
ATOM     31  C   UNL     1      -2.908   3.802  -2.307  0.00  0.00    +0.095 C 
ATOM     32  N   UNL     1      -3.079   4.920  -2.199  0.00  0.00    -0.194 NA
ENDBRANCH  10  31
BRANCH  10  33
ATOM     33  C   UNL     1      -1.812   2.099  -3.604  0.00  0.00    +0.095 C 
ATOM     34  N   UNL     1      -1.136   1.903  -4.496  0.00  0.00    -0.194 NA
ENDBRANCH  10  33
BRANCH   8  35
ATOM     35  C   UNL     1      -5.862   0.330  -2.057  0.00  0.00    +0.097 C 
ATOM     36  N   UNL     1      -6.877  -0.115  -2.312  0.00  0.00    -0.191 NA
ENDBRANCH   8  35
TORSDOF 9
