REMARK  Name = ZINC39758336
REMARK  10 active torsions:
REMARK  status: ('A' for Active; 'I' for Inactive)
REMARK    1  A    between atoms: C_1  and  C_2
REMARK    2  A    between atoms: C_12  and  C_14
REMARK    3  A    between atoms: C_14  and  S_15
REMARK    4  A    between atoms: S_15  and  C_16
REMARK    5  A    between atoms: C_19  and  C_24
REMARK    6  A    between atoms: N_20  and  C_21
REMARK    7  A    between atoms: C_21  and  C_22
REMARK    8  A    between atoms: C_24  and  C_26
REMARK    9  A    between atoms: C_24  and  N_27
REMARK   10  A    between atoms: C_28  and  C_30
REMARK                            x       y       z     vdW  Elec       q    Type
REMARK                         _______ _______ _______ _____ _____    ______ ____
ROOT
ATOM      1  C   UNL     1       1.595  -1.129   6.345  0.00  0.00    +0.192 A 
ATOM      2  N   UNL     1       2.665  -1.844   6.086  0.00  0.00    -0.122 NA
ATOM      3  N   UNL     1       3.212  -2.225   7.185  0.00  0.00    -0.132 NA
ATOM      4  C   UNL     1       2.530  -1.780   8.202  0.00  0.00    +0.155 A 
ATOM      5  N   UNL     1       1.478  -1.061   7.704  0.00  0.00    -0.301 N 
ENDROOT
BRANCH   4   6
ATOM      6  C   UNL     1       2.844  -2.009   9.658  0.00  0.00    +0.138 C 
ATOM      7  C   UNL     1       2.475  -3.444  10.040  0.00  0.00    +0.036 C 
BRANCH   6   8
ATOM      8  N   UNL     1       4.275  -1.796   9.888  0.00  0.00    -0.302 N 
ATOM      9  C   UNL     1       4.717  -1.446  11.112  0.00  0.00    +0.247 C 
ATOM     10  O   UNL     1       3.927  -1.308  12.026  0.00  0.00    -0.270 OA
ATOM     11  H   UNL     1       4.905  -1.906   9.158  0.00  0.00    +0.150 HD
BRANCH   9  12
ATOM     12  C   UNL     1       6.159  -1.231  11.344  0.00  0.00    +0.072 A 
ATOM     13  C   UNL     1       7.069  -1.383  10.295  0.00  0.00    +0.016 A 
ATOM     14  C   UNL     1       8.414  -1.181  10.518  0.00  0.00    +0.001 A 
ATOM     15  C   UNL     1       8.866  -0.827  11.777  0.00  0.00    +0.003 A 
ATOM     16  C   UNL     1       7.974  -0.675  12.822  0.00  0.00    +0.039 A 
ATOM     17  C   UNL     1       6.621  -0.869  12.613  0.00  0.00    +0.135 A 
ATOM     18  F   UNL     1       5.748  -0.714  13.633  0.00  0.00    -0.205 F 
ENDBRANCH   9  12
ENDBRANCH   6   8
ENDBRANCH   4   6
BRANCH   1  19
ATOM     19  S   UNL     1       0.516  -0.391   5.163  0.00  0.00    -0.077 S 
BRANCH  19  20
ATOM     20  C   UNL     1       1.231  -0.862   3.564  0.00  0.00    +0.173 C 
BRANCH  20  31
ATOM     21  C   UNL     1      -0.019   1.526   0.010  0.00  0.00    +0.029 C 
ATOM     22  C   UNL     1       0.002  -0.004   0.002  0.00  0.00    +0.083 C 
ATOM     23  C   UNL     1       0.778  -0.520  -1.221  0.00  0.00    +0.059 C 
ATOM     24  C   UNL     1       1.932  -1.304  -0.637  0.00  0.00    -0.024 A 
ATOM     25  C   UNL     1       2.960  -1.995  -1.249  0.00  0.00    +0.005 A 
ATOM     26  C   UNL     1       3.912  -2.643  -0.485  0.00  0.00    +0.000 A 
ATOM     27  C   UNL     1       3.833  -2.599   0.895  0.00  0.00    +0.002 A 
ATOM     28  C   UNL     1       2.809  -1.912   1.510  0.00  0.00    +0.024 A 
ATOM     29  C   UNL     1       1.844  -1.254   0.745  0.00  0.00    +0.040 A 
ATOM     30  N   UNL     1       0.735  -0.509   1.166  0.00  0.00    -0.267 N 
ATOM     31  C   UNL     1       0.393  -0.287   2.450  0.00  0.00    +0.230 C 
ATOM     32  O   UNL     1      -0.589   0.375   2.711  0.00  0.00    -0.274 OA
ENDBRANCH  20  31
ENDBRANCH  19  20
ENDBRANCH   1  19
BRANCH   5  33
ATOM     33  C   UNL     1       0.441  -0.365   8.469  0.00  0.00    +0.152 C 
BRANCH  33  34
ATOM     34  C   UNL     1      -0.711  -1.303   8.723  0.00  0.00    -0.013 C 
ATOM     35  C   UNL     1      -1.125  -1.515   9.948  0.00  0.00    +0.005 C 
ENDBRANCH  33  34
ENDBRANCH   5  33
TORSDOF 8
