REMARK  Name = ZINC02680273
REMARK  8 active torsions:
REMARK  status: ('A' for Active; 'I' for Inactive)
REMARK    1  A    between atoms: C_1  and  C_2
REMARK    2  A    between atoms: C_2  and  O_3
REMARK    3  A    between atoms: O_3  and  C_4
REMARK    4  A    between atoms: C_4  and  C_6
REMARK    5  A    between atoms: C_7  and  C_24
REMARK    6  A    between atoms: N_9  and  N_10
REMARK    7  A    between atoms: N_10  and  C_11
REMARK    8  A    between atoms: C_13  and  N_18
REMARK                            x       y       z     vdW  Elec       q    Type
REMARK                         _______ _______ _______ _____ _____    ______ ____
ROOT
ATOM      1  C   UNL     1       1.457  -2.349  -2.530  0.00  0.00    +0.086 C 
ATOM      2  C   UNL     1       1.637  -3.696  -2.835  0.00  0.00    +0.007 C 
ATOM      3  C   UNL     1       2.326  -3.762  -4.050  0.00  0.00    +0.145 C 
ATOM      4  N   UNL     1       2.691  -4.893  -4.685  0.00  0.00    -0.167 NA
ATOM      5  N   UNL     1       2.567  -2.496  -4.485  0.00  0.00    -0.298 N 
ATOM      6  C   UNL     1       2.043  -1.606  -3.583  0.00  0.00    +0.040 C 
ATOM      7  C   UNL     1       2.084  -0.225  -3.683  0.00  0.00    +0.034 C 
ATOM      8  C   UNL     1       1.174  -4.868  -2.008  0.00  0.00    +0.048 C 
ATOM      9  H   UNL     1       3.030  -2.261  -5.304  0.00  0.00    +0.154 HD
ENDROOT
BRANCH   1  10
ATOM     10  C   UNL     1       0.776  -1.798  -1.335  0.00  0.00    +0.341 C 
ATOM     11  O   UNL     1       0.312  -2.548  -0.500  0.00  0.00    -0.245 OA
BRANCH  10  12
ATOM     12  O   UNL     1       0.671  -0.465  -1.174  0.00  0.00    -0.461 OA
BRANCH  12  14
ATOM     13  C   UNL     1      -0.019   1.526   0.010  0.00  0.00    +0.048 C 
ATOM     14  C   UNL     1       0.002  -0.004   0.002  0.00  0.00    +0.229 C 
ENDBRANCH  12  14
ENDBRANCH  10  12
ENDBRANCH   1  10
BRANCH   4  15
ATOM     15  N   UNL     1       3.327  -4.827  -5.805  0.00  0.00    -0.235 N 
ATOM     16  H   UNL     1       3.542  -3.963  -6.191  0.00  0.00    +0.174 HD
BRANCH  15  17
ATOM     17  C   UNL     1       3.701  -5.987  -6.457  0.00  0.00    +0.064 A 
ATOM     18  C   UNL     1       3.389  -7.231  -5.907  0.00  0.00    +0.058 A 
ATOM     19  C   UNL     1       3.764  -8.385  -6.562  0.00  0.00    +0.128 A 
ATOM     20  C   UNL     1       4.451  -8.312  -7.762  0.00  0.00    +0.034 A 
ATOM     21  C   UNL     1       4.765  -7.082  -8.312  0.00  0.00    +0.019 A 
ATOM     22  C   UNL     1       4.389  -5.919  -7.670  0.00  0.00    +0.041 A 
ATOM     23 BR   UNL     1       4.811  -4.239  -8.427  0.00  0.00    -0.048 Br
BRANCH  19  24
ATOM     24  N   UNL     1       3.433  -9.705  -5.979  0.00  0.00    +0.056 N 
ATOM     25  O   UNL     1       2.780  -9.776  -4.838  0.00  0.00    -0.126 OA
ATOM     26  O   UNL     1       3.791 -10.808  -6.603  0.00  0.00    -0.126 OA
ENDBRANCH  19  24
ENDBRANCH  15  17
ENDBRANCH   4  15
TORSDOF 6
