REMARK  Name = ZINC18616376
REMARK  7 active torsions:
REMARK  status: ('A' for Active; 'I' for Inactive)
REMARK    1  A    between atoms: C_1  and  C_2
REMARK    2  A    between atoms: C_5  and  N_9
REMARK    3  A    between atoms: C_10  and  C_12
REMARK    4  A    between atoms: C_12  and  C_14
REMARK    5  A    between atoms: C_12  and  S_15
REMARK    6  A    between atoms: S_15  and  C_16
REMARK    7  A    between atoms: N_26  and  C_27
REMARK                            x       y       z     vdW  Elec       q    Type
REMARK                         _______ _______ _______ _____ _____    ______ ____
ROOT
ATOM      1  S   UNL     1       2.293   0.628  -0.398  0.00  0.00    -0.075 S 
ENDROOT
BRANCH   1   2
ATOM      2  C   UNL     1       1.054   1.865  -0.199  0.00  0.00    +0.173 A 
ATOM      3  N   UNL     1       1.431   3.116  -0.096  0.00  0.00    -0.223 NA
ATOM      4  C   UNL     1       0.537   4.113   0.058  0.00  0.00    +0.079 A 
ATOM      5  C   UNL     1       0.939   5.447   0.168  0.00  0.00    +0.028 A 
ATOM      6  C   UNL     1      -0.002   6.426   0.324  0.00  0.00    +0.002 A 
ATOM      7  C   UNL     1      -1.355   6.116   0.373  0.00  0.00    +0.001 A 
ATOM      8  C   UNL     1      -1.779   4.820   0.269  0.00  0.00    +0.015 A 
ATOM      9  C   UNL     1      -0.841   3.801   0.110  0.00  0.00    +0.065 A 
ATOM     10  C   UNL     1      -1.239   2.392  -0.013  0.00  0.00    +0.263 A 
ATOM     11  O   UNL     1      -2.410   2.061   0.018  0.00  0.00    -0.267 OA
ATOM     12  N   UNL     1      -0.254   1.475  -0.159  0.00  0.00    -0.284 N 
BRANCH  12  13
ATOM     13  C   UNL     1      -0.594   0.056  -0.281  0.00  0.00    +0.093 C 
ATOM     14  C   UNL     1      -1.607  -0.516   0.713  0.00  0.00    +0.027 C 
ATOM     15  C   UNL     1      -0.126  -0.882   0.834  0.00  0.00    +0.027 C 
ENDBRANCH  12  13
ENDBRANCH   1   2
BRANCH   1  16
ATOM     16  C   UNL     1       3.777   1.665  -0.383  0.00  0.00    +0.137 C 
ATOM     17  C   UNL     1       3.769   2.584  -1.607  0.00  0.00    +0.029 C 
BRANCH  16  19
ATOM     18  N   UNL     1       6.171   1.242   0.074  0.00  0.00    -0.284 N 
ATOM     19  C   UNL     1       5.002   0.788  -0.421  0.00  0.00    +0.230 C 
ATOM     20  O   UNL     1       4.937  -0.326  -0.897  0.00  0.00    -0.274 OA
ATOM     21  H   UNL     1       6.207   2.103   0.520  0.00  0.00    +0.155 HD
BRANCH  18  26
ATOM     22  C   UNL     1      10.879  -1.881  -0.452  0.00  0.00    +0.044 C 
ATOM     23  C   UNL     1       9.628  -1.052  -0.312  0.00  0.00    -0.049 A 
ATOM     24  C   UNL     1       8.662  -1.087  -1.301  0.00  0.00    +0.005 A 
ATOM     25  C   UNL     1       7.515  -0.328  -1.176  0.00  0.00    +0.024 A 
ATOM     26  C   UNL     1       7.332   0.472  -0.056  0.00  0.00    +0.047 A 
ATOM     27  C   UNL     1       8.307   0.509   0.934  0.00  0.00    +0.039 A 
ATOM     28  C   UNL     1       9.450  -0.257   0.805  0.00  0.00    +0.020 A 
ATOM     29 BR   UNL     1       8.066   1.602   2.458  0.00  0.00    -0.048 Br
ENDBRANCH  18  26
ENDBRANCH  16  19
ENDBRANCH   1  16
TORSDOF 5
