REMARK  Name = ZINC39441328
REMARK  8 active torsions:
REMARK  status: ('A' for Active; 'I' for Inactive)
REMARK    1  A    between atoms: C_1  and  C_2
REMARK    2  A    between atoms: C_2  and  C_4
REMARK    3  A    between atoms: C_2  and  S_21
REMARK    4  A    between atoms: N_6  and  C_7
REMARK    5  A    between atoms: C_9  and  C_19
REMARK    6  A    between atoms: S_21  and  C_22
REMARK    7  A    between atoms: N_28  and  C_29
REMARK    8  A    between atoms: C_29  and  C_30
REMARK                            x       y       z     vdW  Elec       q    Type
REMARK                         _______ _______ _______ _____ _____    ______ ____
ROOT
ATOM      1  C   UNL     1      -0.019   1.526   0.010  0.00  0.00    +0.029 C 
ATOM      2  C   UNL     1       0.002  -0.004   0.002  0.00  0.00    +0.137 C 
ENDROOT
BRANCH   2   3
ATOM      3  C   UNL     1      -1.412  -0.526   0.013  0.00  0.00    +0.227 C 
ATOM      4  O   UNL     1      -1.927  -0.901  -1.019  0.00  0.00    -0.275 OA
ATOM      5  N   UNL     1      -2.103  -0.575   1.169  0.00  0.00    -0.301 N 
ATOM      6  H   UNL     1      -1.691  -0.275   1.994  0.00  0.00    +0.150 HD
BRANCH   5   7
ATOM      7  C   UNL     1      -3.478  -1.082   1.179  0.00  0.00    +0.156 C 
ATOM      8  C   UNL     1      -3.682  -2.145   2.283  0.00  0.00    +0.149 C 
ATOM      9  C   UNL     1      -4.597  -3.260   1.824  0.00  0.00    -0.041 C 
ATOM     10  C   UNL     1      -4.772  -3.405   0.521  0.00  0.00    -0.012 C 
ATOM     11  S   UNL     1      -3.821  -2.137  -0.291  0.00  0.00    -0.106 S 
ATOM     12  C   UNL     1      -5.612  -4.432  -0.184  0.00  0.00    +0.042 C 
ATOM     13  C   UNL     1      -6.781  -4.853   0.711  0.00  0.00    +0.005 C 
ATOM     14  C   UNL     1      -6.332  -6.034   1.568  0.00  0.00    +0.001 C 
ATOM     15  C   UNL     1      -5.144  -5.627   2.438  0.00  0.00    +0.004 C 
ATOM     16  C   UNL     1      -5.271  -4.166   2.850  0.00  0.00    +0.033 C 
BRANCH   8  17
ATOM     17  C   UNL     1      -2.376  -2.718   2.646  0.00  0.00    +0.073 C 
ATOM     18  N   UNL     1      -1.368  -3.160   2.927  0.00  0.00    -0.196 NA
ENDBRANCH   8  17
ENDBRANCH   5   7
ENDBRANCH   2   3
BRANCH   2  19
ATOM     19  S   UNL     1       0.851  -0.589  -1.490  0.00  0.00    -0.074 S 
BRANCH  19  20
ATOM     20  C   UNL     1       2.509  -0.029  -1.285  0.00  0.00    +0.193 A 
ATOM     21  H   UNL     1       4.921   1.378   0.109  0.00  0.00    +0.194 HD
ATOM     22  N   UNL     1       2.963   0.643  -0.267  0.00  0.00    -0.145 NA
ATOM     23  N   UNL     1       4.324   0.895  -0.485  0.00  0.00    -0.226 N 
ATOM     24  C   UNL     1       4.652   0.344  -1.672  0.00  0.00    +0.345 A 
ATOM     25  O   UNL     1       5.752   0.362  -2.194  0.00  0.00    -0.245 OA
ATOM     26  N   UNL     1       3.541  -0.234  -2.172  0.00  0.00    -0.266 N 
BRANCH  26  27
ATOM     27  C   UNL     1       3.449  -0.953  -3.445  0.00  0.00    +0.164 C 
BRANCH  27  28
ATOM     28  C   UNL     1       3.088   0.013  -4.543  0.00  0.00    -0.028 A 
ATOM     29  C   UNL     1       1.761   0.256  -4.843  0.00  0.00    +0.005 A 
ATOM     30  C   UNL     1       1.431   1.143  -5.851  0.00  0.00    +0.000 A 
ATOM     31  C   UNL     1       2.428   1.787  -6.559  0.00  0.00    +0.000 A 
ATOM     32  C   UNL     1       3.755   1.545  -6.259  0.00  0.00    +0.000 A 
ATOM     33  C   UNL     1       4.086   0.661  -5.248  0.00  0.00    +0.005 A 
ENDBRANCH  27  28
ENDBRANCH  26  27
ENDBRANCH  19  20
ENDBRANCH   2  19
TORSDOF 7
