REMARK  Name = ZINC39666037
REMARK  11 active torsions:
REMARK  status: ('A' for Active; 'I' for Inactive)
REMARK    1  A    between atoms: C_1  and  C_2
REMARK    2  A    between atoms: C_2  and  C_3
REMARK    3  A    between atoms: C_3  and  C_5
REMARK    4  A    between atoms: C_3  and  C_6
REMARK    5  A    between atoms: C_10  and  C_19
REMARK    6  A    between atoms: N_21  and  C_22
REMARK    7  A    between atoms: C_22  and  C_23
REMARK    8  A    between atoms: C_23  and  C_25
REMARK    9  A    between atoms: C_23  and  O_26
REMARK   10  A    between atoms: O_26  and  C_27
REMARK   11  A    between atoms: C_30  and  C_33
REMARK                            x       y       z     vdW  Elec       q    Type
REMARK                         _______ _______ _______ _____ _____    ______ ____
ROOT
ATOM      1  C   UNL     1      -1.417  -1.983  -0.107  0.00  0.00    +0.218 C 
ATOM      2  O   UNL     1      -0.357  -2.563  -0.207  0.00  0.00    -0.275 OA
ATOM      3  N   UNL     1      -2.571  -2.679  -0.128  0.00  0.00    -0.300 N 
ATOM      4  C   UNL     1      -3.952  -2.151  -0.026  0.00  0.00    +0.121 C 
ATOM      5  C   UNL     1      -4.769  -2.999  -1.026  0.00  0.00    +0.100 C 
ATOM      6  C   UNL     1      -3.974  -4.307  -1.173  0.00  0.00    -0.004 C 
ATOM      7  C   UNL     1      -2.747  -4.144  -0.265  0.00  0.00    +0.115 C 
ATOM      8  C   UNL     1      -3.530  -4.496  -2.620  0.00  0.00    -0.010 C 
ATOM      9  C   UNL     1      -2.791  -5.830  -2.752  0.00  0.00    -0.082 C 
ATOM     10  N   UNL     1      -3.678  -6.926  -2.344  0.00  0.00    +0.379 N 
ATOM     11  C   UNL     1      -4.026  -6.787  -0.925  0.00  0.00    -0.082 C 
ATOM     12  C   UNL     1      -4.817  -5.493  -0.715  0.00  0.00    -0.010 C 
ATOM     13  H   UNL     1      -4.521  -6.899  -2.899  0.00  0.00    -0.086 HD
ATOM     14  H   UNL     1      -3.211  -7.808  -2.490  0.00  0.00    -0.086 HD
ENDROOT
BRANCH   5  15
ATOM     15  C   UNL     1      -6.145  -3.277  -0.476  0.00  0.00    +0.218 C 
ATOM     16  O   UNL     1      -6.301  -3.439   0.715  0.00  0.00    -0.275 OA
ATOM     17  N   UNL     1      -7.202  -3.347  -1.310  0.00  0.00    -0.312 N 
ATOM     18  H   UNL     1      -7.077  -3.218  -2.263  0.00  0.00    +0.149 HD
BRANCH  17  19
ATOM     19  C   UNL     1      -8.539  -3.618  -0.775  0.00  0.00    +0.148 C 
BRANCH  19  20
ATOM     20  C   UNL     1      -9.551  -3.644  -1.923  0.00  0.00    +0.187 C 
ATOM     21  C   UNL     1     -10.947  -3.927  -1.365  0.00  0.00    +0.053 C 
BRANCH  20  22
ATOM     22  O   UNL     1      -9.550  -2.379  -2.587  0.00  0.00    -0.488 OA
BRANCH  22  23
ATOM     23  C   UNL     1      -9.957  -2.363  -3.884  0.00  0.00    +0.121 A 
ATOM     24  C   UNL     1      -9.868  -1.194  -4.626  0.00  0.00    +0.046 A 
ATOM     25  C   UNL     1     -10.281  -1.180  -5.944  0.00  0.00    +0.007 A 
ATOM     26  C   UNL     1     -10.783  -2.330  -6.524  0.00  0.00    -0.050 A 
ATOM     27  C   UNL     1     -10.874  -3.497  -5.787  0.00  0.00    +0.007 A 
ATOM     28  C   UNL     1     -10.456  -3.517  -4.470  0.00  0.00    +0.046 A 
ATOM     29  C   UNL     1     -11.234  -2.312  -7.962  0.00  0.00    +0.044 C 
ENDBRANCH  22  23
ENDBRANCH  20  22
ENDBRANCH  19  20
ENDBRANCH  17  19
ENDBRANCH   5  15
BRANCH   1  30
ATOM     30  C   UNL     1      -1.444  -0.483   0.042  0.00  0.00    +0.072 C 
ATOM     31  C   UNL     1      -2.123  -0.114   1.362  0.00  0.00    +0.017 C 
BRANCH  30  33
ATOM     32  C   UNL     1      -0.042   1.585   0.061  0.00  0.00    +0.004 C 
ATOM     33  C   UNL     1      -0.012   0.055   0.036  0.00  0.00    +0.009 C 
ENDBRANCH  30  33
ENDBRANCH   1  30
TORSDOF 7
