REMARK  Name = ZINC59891642
REMARK  10 active torsions:
REMARK  status: ('A' for Active; 'I' for Inactive)
REMARK    1  A    between atoms: C_1  and  C_2
REMARK    2  A    between atoms: C_2  and  C_3
REMARK    3  A    between atoms: C_2  and  C_4
REMARK    4  A    between atoms: C_4  and  C_5
REMARK    5  A    between atoms: C_5  and  C_26
REMARK    6  A    between atoms: N_6  and  N_7
REMARK    7  A    between atoms: C_10  and  S_13
REMARK    8  A    between atoms: S_13  and  C_14
REMARK    9  A    between atoms: C_14  and  C_15
REMARK   10  A    between atoms: C_15  and  C_17
REMARK                            x       y       z     vdW  Elec       q    Type
REMARK                         _______ _______ _______ _____ _____    ______ ____
ROOT
ATOM      1  N   UNL     1      -1.688  -1.058   4.040  0.00  0.00    -0.205 N 
ATOM      2  C   UNL     1      -2.347  -2.106   4.659  0.00  0.00    +0.232 A 
ATOM      3  N   UNL     1      -2.188  -3.385   4.393  0.00  0.00    -0.186 NA
ATOM      4  C   UNL     1      -2.985  -4.112   5.183  0.00  0.00    +0.210 A 
ATOM      5  N   UNL     1      -3.664  -3.304   5.962  0.00  0.00    -0.144 NA
ATOM      6  N   UNL     1      -3.262  -1.996   5.645  0.00  0.00    -0.245 N 
ATOM      7  H   UNL     1      -1.871  -0.144   4.309  0.00  0.00    +0.177 HD
ATOM      8  H   UNL     1      -3.581  -1.176   6.052  0.00  0.00    +0.192 HD
ENDROOT
BRANCH   1  10
ATOM      9  C   UNL     1      -0.148  -0.348   2.453  0.00  0.00    +0.034 C 
ATOM     10  N   UNL     1      -0.758  -1.317   3.025  0.00  0.00    -0.189 NA
ATOM     11  C   UNL     1      -0.431   1.072   2.871  0.00  0.00    +0.062 C 
BRANCH   9  12
ATOM     12  C   UNL     1       0.853  -0.627   1.362  0.00  0.00    +0.055 C 
BRANCH  12  14
ATOM     13  C   UNL     1       1.176  -0.779  -1.111  0.00  0.00    +0.007 C 
ATOM     14  C   UNL     1       0.142  -0.632   0.007  0.00  0.00    -0.012 C 
ATOM     15  C   UNL     1      -0.840  -1.805  -0.049  0.00  0.00    +0.007 C 
ENDBRANCH  12  14
ENDBRANCH   9  12
ENDBRANCH   1  10
BRANCH   4  16
ATOM     16  S   UNL     1      -3.106  -5.870   5.177  0.00  0.00    -0.076 S 
BRANCH  16  17
ATOM     17  C   UNL     1      -4.340  -6.229   6.457  0.00  0.00    +0.157 C 
BRANCH  17  18
ATOM     18  C   UNL     1      -4.542  -7.719   6.556  0.00  0.00    +0.173 C 
ATOM     19  O   UNL     1      -3.914  -8.465   5.835  0.00  0.00    -0.291 OA
BRANCH  18  20
ATOM     20  C   UNL     1      -5.497  -8.268   7.527  0.00  0.00    +0.022 A 
ATOM     21  C   UNL     1      -6.227  -7.408   8.357  0.00  0.00    +0.015 A 
ATOM     22  C   UNL     1      -7.122  -7.925   9.266  0.00  0.00    +0.050 A 
ATOM     23  C   UNL     1      -7.306  -9.299   9.364  0.00  0.00    +0.166 A 
ATOM     24  C   UNL     1      -6.582 -10.162   8.540  0.00  0.00    +0.167 A 
ATOM     25  C   UNL     1      -5.686  -9.652   7.622  0.00  0.00    +0.061 A 
ATOM     26  O   UNL     1      -6.942 -11.447   8.831  0.00  0.00    -0.453 OA
ATOM     27  C   UNL     1      -7.587 -11.381  10.117  0.00  0.00    +0.466 C 
ATOM     28  O   UNL     1      -8.117 -10.044  10.168  0.00  0.00    -0.453 OA
ENDBRANCH  18  20
ENDBRANCH  17  18
ENDBRANCH  16  17
ENDBRANCH   4  16
TORSDOF 7
