REMARK  Name = ZINC31023860
REMARK  4 active torsions:
REMARK  status: ('A' for Active; 'I' for Inactive)
REMARK    1  A    between atoms: C_9  and  C_12
REMARK    2  A    between atoms: C_12  and  N_13
REMARK    3  A    between atoms: N_16  and  N_17
REMARK    4  A    between atoms: N_17  and  C_18
REMARK                            x       y       z     vdW  Elec       q    Type
REMARK                         _______ _______ _______ _____ _____    ______ ____
ROOT
ATOM      1  N   UNL     1      -0.201   8.034  -0.710  0.00  0.00    -0.295 N 
ATOM      2  C   UNL     1       0.117   9.319  -0.457  0.00  0.00    +0.316 C 
ATOM      3  O   UNL     1      -0.447   9.920   0.437  0.00  0.00    -0.251 OA
ATOM      4  N   UNL     1       1.060   9.938  -1.196  0.00  0.00    -0.220 N 
ATOM      5  H   UNL     1       0.309   7.491  -1.519  0.00  0.00    +0.150 HD
ATOM      6  H   UNL     1       1.319  10.987  -0.989  0.00  0.00    +0.174 HD
ENDROOT
BRANCH   4   7
ATOM      7  N   UNL     1       1.709   9.246  -2.226  0.00  0.00    -0.258 N 
ATOM      8  H   UNL     1       1.514   8.174  -2.376  0.00  0.00    +0.170 HD
BRANCH   7   9
ATOM      9  C   UNL     1       2.607   9.919  -3.065  0.00  0.00    +0.121 A 
ATOM     10  C   UNL     1       2.366  11.239  -3.425  0.00  0.00    +0.186 A 
ATOM     11  C   UNL     1       3.257  11.905  -4.251  0.00  0.00    +0.198 A 
ATOM     12  C   UNL     1       4.384  11.251  -4.726  0.00  0.00    +0.199 A 
ATOM     13  C   UNL     1       4.623   9.932  -4.372  0.00  0.00    +0.198 A 
ATOM     14  C   UNL     1       3.737   9.266  -3.542  0.00  0.00    +0.186 A 
ATOM     15  F   UNL     1       3.970   7.980  -3.198  0.00  0.00    -0.200 F 
ATOM     16  F   UNL     1       5.721   9.297  -4.836  0.00  0.00    -0.199 F 
ATOM     17  F   UNL     1       5.249  11.900  -5.535  0.00  0.00    -0.199 F 
ATOM     18  F   UNL     1       3.026  13.190  -4.598  0.00  0.00    -0.199 F 
ATOM     19  F   UNL     1       1.266  11.875  -2.966  0.00  0.00    -0.200 F 
ENDBRANCH   7   9
ENDBRANCH   4   7
BRANCH   1  20
ATOM     20  C   UNL     1      -1.225   7.362   0.092  0.00  0.00    +0.153 C 
BRANCH  20  29
ATOM     21  C   UNL     1      -0.417   1.065  -0.422  0.00  0.00    +0.004 A 
ATOM     22  C   UNL     1       0.811   1.700  -0.438  0.00  0.00    +0.004 A 
ATOM     23  C   UNL     1       0.881   3.077  -0.344  0.00  0.00    +0.049 A 
ATOM     24  C   UNL     1      -0.281   3.826  -0.233  0.00  0.00    +0.163 A 
ATOM     25  C   UNL     1      -1.516   3.188  -0.220  0.00  0.00    +0.162 A 
ATOM     26  C   UNL     1      -1.579   1.806  -0.319  0.00  0.00    +0.049 A 
ATOM     27  O   UNL     1      -2.669   3.903  -0.117  0.00  0.00    -0.485 OA
ATOM     28  C   UNL     1      -2.549   5.250   0.355  0.00  0.00    +0.275 C 
ATOM     29  C   UNL     1      -1.392   5.921  -0.397  0.00  0.00    +0.228 C 
ATOM     30  O   UNL     1      -0.196   5.180  -0.134  0.00  0.00    -0.480 OA
ENDBRANCH  20  29
ENDBRANCH   1  20
TORSDOF 4
