REMARK  Name = ZINC17146445
REMARK  10 active torsions:
REMARK  status: ('A' for Active; 'I' for Inactive)
REMARK    1  A    between atoms: C_1  and  C_2
REMARK    2  A    between atoms: C_5  and  N_8
REMARK    3  A    between atoms: C_11  and  C_14
REMARK    4  A    between atoms: C_14  and  C_32
REMARK    5  A    between atoms: C_18  and  C_23
REMARK    6  A    between atoms: C_23  and  O_24
REMARK    7  A    between atoms: O_24  and  C_25
REMARK    8  A    between atoms: C_25  and  C_26
REMARK    9  A    between atoms: C_26  and  C_27
REMARK   10  A    between atoms: C_26  and  C_28
REMARK                            x       y       z     vdW  Elec       q    Type
REMARK                         _______ _______ _______ _____ _____    ______ ____
ROOT
ATOM      1  C   UNL     1       8.850  -0.890   3.682  0.00  0.00    +0.154 C 
ATOM      2  C   UNL     1       7.798  -0.782   2.552  0.00  0.00    +0.084 C 
ATOM      3  C   UNL     1       6.489  -0.677   3.349  0.00  0.00    +0.171 C 
ATOM      4  C   UNL     1       5.583   0.417   2.765  0.00  0.00    +0.076 C 
ATOM      5  C   UNL     1       4.202  -0.283   2.761  0.00  0.00    +0.204 C 
ATOM      6  O   UNL     1       4.515  -1.706   2.678  0.00  0.00    -0.458 OA
ATOM      7  C   UNL     1       5.696  -1.952   3.269  0.00  0.00    +0.325 C 
ATOM      8  O   UNL     1       6.064  -3.029   3.673  0.00  0.00    -0.250 OA
ATOM      9  C   UNL     1       6.895  -0.356   4.761  0.00  0.00    +0.325 C 
ATOM     10  O   UNL     1       6.137  -0.235   5.694  0.00  0.00    -0.250 OA
ATOM     11  O   UNL     1       8.231  -0.223   4.823  0.00  0.00    -0.451 OA
ATOM     12  C   UNL     1       9.134  -2.357   4.010  0.00  0.00    +0.063 C 
ENDROOT
BRANCH   1  16
ATOM     13  N   UNL     1      12.740  -0.209   0.779  0.00  0.00    -0.294 N 
ATOM     14  C   UNL     1      11.911   0.049   1.860  0.00  0.00    +0.163 A 
ATOM     15  N   UNL     1      10.796  -0.562   2.215  0.00  0.00    -0.226 NA
ATOM     16  C   UNL     1      10.122  -0.185   3.285  0.00  0.00    +0.094 A 
ATOM     17  C   UNL     1      10.596   0.853   4.015  0.00  0.00    +0.075 A 
ATOM     18  S   UNL     1      12.072   1.260   3.094  0.00  0.00    -0.060 S 
ATOM     19  H   UNL     1      12.444  -0.953   0.024  0.00  0.00    +0.154 HD
BRANCH  13  24
ATOM     20  C   UNL     1      17.656   2.568   0.248  0.00  0.00    +0.044 C 
ATOM     21  C   UNL     1      16.349   1.831   0.389  0.00  0.00    -0.050 A 
ATOM     22  C   UNL     1      15.867   1.517   1.646  0.00  0.00    +0.005 A 
ATOM     23  C   UNL     1      14.670   0.840   1.779  0.00  0.00    +0.023 A 
ATOM     24  C   UNL     1      13.951   0.475   0.648  0.00  0.00    +0.033 A 
ATOM     25  C   UNL     1      14.442   0.787  -0.614  0.00  0.00    +0.023 A 
ATOM     26  C   UNL     1      15.636   1.469  -0.739  0.00  0.00    +0.005 A 
ENDBRANCH  13  24
ENDBRANCH   1  16
BRANCH   5  27
ATOM     27  C   UNL     1       3.384   0.156   1.546  0.00  0.00    +0.204 C 
BRANCH  27  28
ATOM     28  O   UNL     1       2.102  -0.474   1.581  0.00  0.00    -0.376 OA
BRANCH  28  29
ATOM     29  C   UNL     1       1.254  -0.129   0.484  0.00  0.00    +0.163 C 
BRANCH  29  30
ATOM     30  C   UNL     1      -0.084  -0.857   0.625  0.00  0.00    +0.009 C 
ATOM     31  C   UNL     1      -0.945  -0.587  -0.611  0.00  0.00    +0.009 C 
ATOM     32  C   UNL     1      -0.811  -0.352   1.873  0.00  0.00    +0.009 C 
ENDBRANCH  29  30
ENDBRANCH  28  29
ENDBRANCH  27  28
ENDBRANCH   5  27
TORSDOF 6
