REMARK  Name = ZINC10103145
REMARK  5 active torsions:
REMARK  status: ('A' for Active; 'I' for Inactive)
REMARK    1  A    between atoms: C_1  and  C_2
REMARK    2  A    between atoms: C_6  and  C_8
REMARK    3  A    between atoms: C_8  and  N_9
REMARK    4  A    between atoms: N_17  and  C_34
REMARK    5  A    between atoms: N_21  and  N_22
REMARK                            x       y       z     vdW  Elec       q    Type
REMARK                         _______ _______ _______ _____ _____    ______ ____
ROOT
ATOM      1  N   UNL     1      -0.045   5.376  -1.518  0.00  0.00    -0.301 N 
ATOM      2  C   UNL     1      -1.177   5.644  -2.271  0.00  0.00    +0.153 A 
ATOM      3  C   UNL     1      -2.553   5.395  -2.106  0.00  0.00    +0.280 A 
ATOM      4  O   UNL     1      -2.959   4.819  -1.112  0.00  0.00    -0.265 OA
ATOM      5  N   UNL     1      -3.417   5.801  -3.060  0.00  0.00    -0.273 N 
ATOM      6  H   UNL     1      -4.394   5.626  -2.945  0.00  0.00    +0.173 HD
ATOM      7  C   UNL     1      -2.982   6.437  -4.161  0.00  0.00    +0.331 A 
ATOM      8  O   UNL     1      -3.790   6.788  -5.000  0.00  0.00    -0.246 OA
ATOM      9  N   UNL     1      -1.676   6.695  -4.359  0.00  0.00    -0.280 N 
ATOM     10  C   UNL     1      -0.740   6.303  -3.416  0.00  0.00    +0.170 A 
ATOM     11  N   UNL     1       0.587   6.414  -3.333  0.00  0.00    -0.195 NA
ATOM     12  C   UNL     1       1.013   5.874  -2.210  0.00  0.00    +0.218 A 
ATOM     13  N   UNL     1       2.330   5.819  -1.802  0.00  0.00    -0.206 N 
ATOM     14  C   UNL     1      -1.243   7.391  -5.574  0.00  0.00    +0.155 C 
ATOM     15  H   UNL     1       2.559   5.399  -0.958  0.00  0.00    +0.177 HD
ENDROOT
BRANCH  13  16
ATOM     16  N   UNL     1       3.257   6.327  -2.542  0.00  0.00    -0.174 NA
ATOM     17  C   UNL     1       4.505   6.307  -2.136  0.00  0.00    +0.153 C 
ATOM     18  C   UNL     1       5.019   5.860  -0.821  0.00  0.00    +0.029 A 
ATOM     19  C   UNL     1       4.405   5.359   0.321  0.00  0.00    +0.027 A 
ATOM     20  C   UNL     1       5.171   5.021   1.419  0.00  0.00    +0.019 A 
ATOM     21  C   UNL     1       6.547   5.183   1.382  0.00  0.00    +0.017 A 
ATOM     22  C   UNL     1       7.165   5.680   0.253  0.00  0.00    +0.025 A 
ATOM     23  C   UNL     1       6.410   6.025  -0.863  0.00  0.00    +0.043 A 
ATOM     24  N   UNL     1       6.774   6.537  -2.103  0.00  0.00    -0.280 N 
ATOM     25  C   UNL     1       5.702   6.718  -2.894  0.00  0.00    +0.269 C 
ATOM     26  O   UNL     1       5.716   7.148  -4.032  0.00  0.00    -0.268 OA
ATOM     27 BR   UNL     1       4.343   4.339   2.977  0.00  0.00    -0.050 Br
ATOM     28  H   UNL     1       7.686   6.735  -2.367  0.00  0.00    +0.155 HD
ENDBRANCH  13  16
BRANCH   1  29
ATOM     29  C   UNL     1       0.001   4.694  -0.223  0.00  0.00    +0.160 C 
BRANCH  29  35
ATOM     30  C   UNL     1      -2.022   0.168  -0.912  0.00  0.00    +0.044 C 
ATOM     31  C   UNL     1      -0.806   1.046  -0.771  0.00  0.00    -0.050 A 
ATOM     32  C   UNL     1       0.459   0.492  -0.842  0.00  0.00    +0.003 A 
ATOM     33  C   UNL     1       1.575   1.298  -0.718  0.00  0.00    +0.001 A 
ATOM     34  C   UNL     1       1.426   2.658  -0.518  0.00  0.00    +0.005 A 
ATOM     35  C   UNL     1       0.162   3.211  -0.442  0.00  0.00    -0.027 A 
ATOM     36  C   UNL     1      -0.954   2.405  -0.566  0.00  0.00    +0.008 A 
ENDBRANCH  29  35
ENDBRANCH   1  29
TORSDOF 3
