REMARK  Name = ZINC39533507
REMARK  10 active torsions:
REMARK  status: ('A' for Active; 'I' for Inactive)
REMARK    1  A    between atoms: C_1  and  C_2
REMARK    2  A    between atoms: C_2  and  C_3
REMARK    3  A    between atoms: C_2  and  C_4
REMARK    4  A    between atoms: C_4  and  C_5
REMARK    5  A    between atoms: C_8  and  C_11
REMARK    6  A    between atoms: C_11  and  C_13
REMARK    7  A    between atoms: C_11  and  N_22
REMARK    8  A    between atoms: C_13  and  N_14
REMARK    9  A    between atoms: N_14  and  C_15
REMARK   10  A    between atoms: C_15  and  C_16
REMARK                            x       y       z     vdW  Elec       q    Type
REMARK                         _______ _______ _______ _____ _____    ______ ____
ROOT
ATOM      1  C   UNL     1      -1.367  -6.290  -0.493  0.00  0.00    +0.070 C 
ENDROOT
BRANCH   1   2
ATOM      2  N   UNL     1      -0.348  -6.849   0.405  0.00  0.00    -0.294 NA
ATOM      3  C   UNL     1      -0.680  -6.579   1.811  0.00  0.00    +0.100 C 
ATOM      4  C   UNL     1       0.360  -7.245   2.714  0.00  0.00    +0.097 C 
ATOM      5  N   UNL     1       1.696  -6.728   2.383  0.00  0.00    -0.303 NA
ATOM      6  C   UNL     1       2.027  -6.998   0.977  0.00  0.00    +0.132 C 
ATOM      7  C   UNL     1       0.987  -6.332   0.073  0.00  0.00    +0.114 C 
ATOM      8  I   UNL     1       3.987  -6.199   0.532  0.00  0.00    -0.063 I 
ATOM      9  H   UNL     1       1.763  -5.742   2.588  0.00  0.00    +0.123 HD
ENDBRANCH   1   2
BRANCH   1  13
ATOM     10  C   UNL     1      -1.700  -2.083   0.172  0.00  0.00    -0.047 A 
ATOM     11  C   UNL     1      -1.130  -2.555  -0.995  0.00  0.00    +0.004 A 
ATOM     12  C   UNL     1      -1.022  -3.917  -1.210  0.00  0.00    +0.005 A 
ATOM     13  C   UNL     1      -1.484  -4.806  -0.258  0.00  0.00    -0.032 A 
ATOM     14  C   UNL     1      -2.054  -4.334   0.909  0.00  0.00    +0.005 A 
ATOM     15  C   UNL     1      -2.158  -2.973   1.127  0.00  0.00    +0.004 A 
BRANCH  10  16
ATOM     16  C   UNL     1      -1.818  -0.600   0.407  0.00  0.00    +0.038 C 
BRANCH  16  18
ATOM     17  C   UNL     1      -0.623   1.430   1.241  0.00  0.00    +0.007 C 
ATOM     18  C   UNL     1      -0.559  -0.093   1.114  0.00  0.00    -0.013 C 
ATOM     19  C   UNL     1      -0.470  -0.718   2.508  0.00  0.00    +0.007 C 
ENDBRANCH  16  18
ENDBRANCH  10  16
ENDBRANCH   1  13
BRANCH   1  20
ATOM     20  C   UNL     1      -2.715  -6.958  -0.215  0.00  0.00    -0.058 C 
BRANCH  20  21
ATOM     21  N   UNL     1      -2.571  -8.416  -0.328  0.00  0.00    +0.383 N 
ATOM     22  H   UNL     1      -2.265  -8.652  -1.259  0.00  0.00    -0.085 HD
ATOM     23  H   UNL     1      -1.891  -8.739   0.343  0.00  0.00    -0.085 HD
BRANCH  21  24
ATOM     24  C   UNL     1      -3.866  -9.057  -0.060  0.00  0.00    -0.047 C 
BRANCH  24  25
ATOM     25  C   UNL     1      -3.718 -10.553  -0.176  0.00  0.00    -0.064 A 
ATOM     26  C   UNL     1      -3.917 -11.175  -1.394  0.00  0.00    +0.002 A 
ATOM     27  C   UNL     1      -3.782 -12.546  -1.500  0.00  0.00    +0.000 A 
ATOM     28  C   UNL     1      -3.448 -13.296  -0.388  0.00  0.00    +0.000 A 
ATOM     29  C   UNL     1      -3.248 -12.674   0.830  0.00  0.00    +0.000 A 
ATOM     30  C   UNL     1      -3.379 -11.302   0.935  0.00  0.00    +0.002 A 
ENDBRANCH  24  25
ENDBRANCH  21  24
ENDBRANCH  20  21
ENDBRANCH   1  20
TORSDOF 8
