REMARK  Name = ZINC09597340
REMARK  9 active torsions:
REMARK  status: ('A' for Active; 'I' for Inactive)
REMARK    1  A    between atoms: C_1  and  C_2
REMARK    2  A    between atoms: C_2  and  C_3
REMARK    3  A    between atoms: C_6  and  C_9
REMARK    4  A    between atoms: C_18  and  C_34
REMARK    5  A    between atoms: C_18  and  C_35
REMARK    6  A    between atoms: C_22  and  C_24
REMARK    7  A    between atoms: C_27  and  N_30
REMARK    8  A    between atoms: N_30  and  C_31
REMARK    9  A    between atoms: N_30  and  C_32
REMARK                            x       y       z     vdW  Elec       q    Type
REMARK                         _______ _______ _______ _____ _____    ______ ____
ROOT
ATOM      1  C   UNL     1       2.844  -2.055   4.823  0.00  0.00    +0.098 A 
ATOM      2  C   UNL     1       2.563  -1.557   6.098  0.00  0.00    +0.032 A 
ATOM      3  C   UNL     1       3.402  -2.177   6.983  0.00  0.00    +0.123 A 
ATOM      4  N   UNL     1       4.176  -3.034   6.289  0.00  0.00    -0.263 N 
ATOM      5  N   UNL     1       3.810  -2.947   4.937  0.00  0.00    -0.172 NA
ATOM      6  H   UNL     1       4.863  -3.611   6.659  0.00  0.00    +0.190 HD
ATOM      7  N   UNL     1       3.365  -1.885   8.342  0.00  0.00    -0.303 N 
ATOM      8  C   UNL     1       2.693  -0.761   8.753  0.00  0.00    +0.017 C 
ATOM      9  C   UNL     1       2.935  -0.301  10.173  0.00  0.00    +0.058 C 
ATOM     10  C   UNL     1       2.814   1.222  10.249  0.00  0.00    -0.023 C 
ATOM     11  C   UNL     1       1.411   1.617   9.775  0.00  0.00    +0.086 C 
ATOM     12  C   UNL     1       1.193   1.074   8.391  0.00  0.00    +0.162 C 
ATOM     13  C   UNL     1       1.847  -0.088   7.944  0.00  0.00    +0.024 C 
ATOM     14  C   UNL     1       1.550  -0.535   6.529  0.00  0.00    +0.089 C 
ATOM     15  O   UNL     1       0.433   1.653   7.639  0.00  0.00    -0.292 OA
ATOM     16  C   UNL     1       3.864   1.868   9.344  0.00  0.00    +0.011 C 
ATOM     17  C   UNL     1       3.020   1.684  11.692  0.00  0.00    +0.011 C 
ATOM     18  H   UNL     1       3.804  -2.463   8.985  0.00  0.00    +0.153 HD
ENDROOT
BRANCH   1  22
ATOM     19  C   UNL     1       0.912  -0.910   1.211  0.00  0.00    -0.048 A 
ATOM     20  C   UNL     1       1.252   0.051   2.146  0.00  0.00    +0.004 A 
ATOM     21  C   UNL     1       1.879  -0.315   3.320  0.00  0.00    +0.010 A 
ATOM     22  C   UNL     1       2.169  -1.656   3.563  0.00  0.00    +0.002 A 
ATOM     23  C   UNL     1       1.825  -2.620   2.618  0.00  0.00    +0.010 A 
ATOM     24  C   UNL     1       1.193  -2.244   1.450  0.00  0.00    +0.004 A 
BRANCH  19  26
ATOM     25  C   UNL     1      -1.288  -0.524   0.135  0.00  0.00    +0.009 C 
ATOM     26  C   UNL     1       0.229  -0.505  -0.069  0.00  0.00    +0.032 C 
ENDBRANCH  19  26
ENDBRANCH   1  22
BRANCH  14  27
ATOM     27  C   UNL     1       0.171  -1.141   6.473  0.00  0.00    -0.035 A 
ATOM     28  C   UNL     1      -0.129  -2.246   7.248  0.00  0.00    +0.006 A 
ATOM     29  C   UNL     1      -1.391  -2.804   7.199  0.00  0.00    +0.023 A 
ATOM     30  C   UNL     1      -2.360  -2.253   6.371  0.00  0.00    +0.029 A 
ATOM     31  C   UNL     1      -2.056  -1.143   5.594  0.00  0.00    +0.023 A 
ATOM     32  C   UNL     1      -0.793  -0.587   5.651  0.00  0.00    +0.006 A 
BRANCH  30  33
ATOM     33  N   UNL     1      -3.638  -2.815   6.319  0.00  0.00    -0.336 N 
ATOM     34  C   UNL     1      -3.957  -3.986   7.139  0.00  0.00    +0.129 C 
ATOM     35  C   UNL     1      -4.659  -2.233   5.444  0.00  0.00    +0.129 C 
ENDBRANCH  30  33
ENDBRANCH  14  27
TORSDOF 4
