REMARK  Name = ZINC05557392
REMARK  5 active torsions:
REMARK  status: ('A' for Active; 'I' for Inactive)
REMARK    1  A    between atoms: C_1  and  C_2
REMARK    2  A    between atoms: C_5  and  S_21
REMARK    3  A    between atoms: C_7  and  C_8
REMARK    4  A    between atoms: N_10  and  C_11
REMARK    5  A    between atoms: S_21  and  N_24
REMARK                            x       y       z     vdW  Elec       q    Type
REMARK                         _______ _______ _______ _____ _____    ______ ____
ROOT
ATOM      1  C   UNL     1       5.180  -2.223  -4.103  0.00  0.00    +0.044 C 
ATOM      2  C   UNL     1       4.776  -1.858  -2.698  0.00  0.00    -0.038 A 
ATOM      3  C   UNL     1       3.727  -2.513  -2.087  0.00  0.00    +0.006 A 
ATOM      4  C   UNL     1       3.358  -2.183  -0.796  0.00  0.00    +0.029 A 
ATOM      5  C   UNL     1       4.031  -1.186  -0.111  0.00  0.00    +0.106 A 
ATOM      6  C   UNL     1       5.082  -0.523  -0.709  0.00  0.00    +0.041 A 
ATOM      7  C   UNL     1       5.463  -0.856  -2.011  0.00  0.00    +0.041 A 
ENDROOT
BRANCH   7   8
ATOM      8  C   UNL     1       6.588  -0.149  -2.659  0.00  0.00    +0.245 C 
ATOM      9  O   UNL     1       6.991  -0.515  -3.745  0.00  0.00    -0.270 OA
ATOM     10  N   UNL     1       7.167   0.902  -2.044  0.00  0.00    -0.306 N 
ATOM     11  H   UNL     1       6.846   1.194  -1.177  0.00  0.00    +0.150 HD
BRANCH  10  12
ATOM     12  C   UNL     1       8.282   1.602  -2.686  0.00  0.00    +0.036 C 
ATOM     13  C   UNL     1       7.822   2.168  -4.031  0.00  0.00    +0.029 C 
ATOM     14  C   UNL     1       8.987   2.900  -4.702  0.00  0.00    -0.008 C 
ATOM     15  C   UNL     1       9.457   4.044  -3.801  0.00  0.00    +0.007 C 
ATOM     16  C   UNL     1       9.917   3.478  -2.456  0.00  0.00    -0.008 C 
ATOM     17  C   UNL     1       8.752   2.746  -1.785  0.00  0.00    +0.029 C 
ATOM     18  C   UNL     1      11.071   2.500  -2.682  0.00  0.00    +0.007 C 
ATOM     19  C   UNL     1      10.601   1.356  -3.583  0.00  0.00    -0.008 C 
ATOM     20  C   UNL     1      10.142   1.922  -4.928  0.00  0.00    +0.007 C 
ATOM     21  C   UNL     1       9.437   0.624  -2.912  0.00  0.00    +0.029 C 
ENDBRANCH  10  12
ENDBRANCH   7   8
BRANCH   5  22
ATOM     22  S   UNL     1       3.550  -0.769   1.532  0.00  0.00    +0.061 S 
ATOM     23  O   UNL     1       4.688  -0.188   2.154  0.00  0.00    -0.153 OA
ATOM     24  O   UNL     1       2.890  -1.910   2.064  0.00  0.00    -0.153 OA
BRANCH  22  25
ATOM     25  N   UNL     1       2.410   0.427   1.419  0.00  0.00    -0.177 NA
ATOM     26  C   UNL     1       0.982   0.094   1.322  0.00  0.00    +0.109 C 
ATOM     27  C   UNL     1       0.396   0.792   0.091  0.00  0.00    +0.017 C 
ATOM     28  C   UNL     1       0.687   2.292   0.173  0.00  0.00    +0.003 C 
ATOM     29  C   UNL     1       2.200   2.520   0.182  0.00  0.00    +0.017 C 
ATOM     30  C   UNL     1       2.808   1.842   1.414  0.00  0.00    +0.109 C 
ENDBRANCH  22  25
ENDBRANCH   5  22
TORSDOF 4
