REMARK  Name = ZINC36346429
REMARK  14 active torsions:
REMARK  status: ('A' for Active; 'I' for Inactive)
REMARK    1  A    between atoms: C_1  and  C_2
REMARK    2  A    between atoms: C_3  and  C_21
REMARK    3  A    between atoms: C_4  and  O_13
REMARK    4  A    between atoms: N_5  and  C_7
REMARK    5  A    between atoms: O_13  and  C_14
REMARK    6  A    between atoms: C_21  and  N_22
REMARK    7  A    between atoms: N_22  and  C_23
REMARK    8  A    between atoms: N_22  and  C_27
REMARK    9  A    between atoms: C_23  and  C_24
REMARK   10  A    between atoms: C_27  and  C_28
REMARK   11  A    between atoms: C_28  and  C_30
REMARK   12  A    between atoms: C_28  and  O_34
REMARK   13  A    between atoms: C_30  and  C_31
REMARK   14  A    between atoms: C_31  and  C_32
REMARK                            x       y       z     vdW  Elec       q    Type
REMARK                         _______ _______ _______ _____ _____    ______ ____
ROOT
ATOM      1  C   UNL     1      -0.162   1.914   0.538  0.00  0.00    +0.068 C 
ATOM      2  C   UNL     1       0.173   0.446   0.486  0.00  0.00    +0.065 A 
ATOM      3  C   UNL     1       0.234  -0.338  -0.670  0.00  0.00    +0.021 A 
ATOM      4  C   UNL     1       0.566  -1.604  -0.300  0.00  0.00    +0.225 A 
ATOM      5  N   UNL     1       0.709  -1.609   1.052  0.00  0.00    -0.200 N 
ATOM      6  N   UNL     1       0.462  -0.310   1.514  0.00  0.00    -0.168 NA
ENDROOT
BRANCH   5   7
ATOM      7  C   UNL     1       1.048  -2.716   1.843  0.00  0.00    +0.069 A 
ATOM      8  C   UNL     1       0.446  -3.946   1.613  0.00  0.00    +0.028 A 
ATOM      9  C   UNL     1       0.783  -5.035   2.393  0.00  0.00    +0.002 A 
ATOM     10  C   UNL     1       1.718  -4.901   3.402  0.00  0.00    +0.000 A 
ATOM     11  C   UNL     1       2.320  -3.678   3.634  0.00  0.00    +0.002 A 
ATOM     12  C   UNL     1       1.992  -2.587   2.853  0.00  0.00    +0.028 A 
ENDBRANCH   5   7
BRANCH   4  13
ATOM     13  O   UNL     1       0.725  -2.667  -1.129  0.00  0.00    -0.438 OA
BRANCH  13  14
ATOM     14  C   UNL     1      -0.379  -3.387  -1.462  0.00  0.00    +0.133 A 
ATOM     15  C   UNL     1      -1.635  -2.961  -1.053  0.00  0.00    +0.046 A 
ATOM     16  C   UNL     1      -2.756  -3.693  -1.393  0.00  0.00    +0.006 A 
ATOM     17  C   UNL     1      -2.629  -4.850  -2.139  0.00  0.00    +0.038 A 
ATOM     18  C   UNL     1      -1.377  -5.278  -2.549  0.00  0.00    +0.127 A 
ATOM     19  C   UNL     1      -0.252  -4.544  -2.216  0.00  0.00    +0.084 A 
ATOM     20  F   UNL     1      -1.254  -6.408  -3.278  0.00  0.00    -0.205 F 
ENDBRANCH  13  14
ENDBRANCH   4  13
BRANCH   3  21
ATOM     21  C   UNL     1      -0.024   0.135  -2.078  0.00  0.00    -0.036 C 
BRANCH  21  22
ATOM     22  N   UNL     1       1.234   0.600  -2.676  0.00  0.00    +0.384 N 
ATOM     23  H   UNL     1       1.632   1.327  -2.100  0.00  0.00    -0.081 HD
BRANCH  22  24
ATOM     24  C   UNL     1       2.177  -0.523  -2.769  0.00  0.00    -0.075 C 
BRANCH  24  25
ATOM     25  C   UNL     1       3.515  -0.022  -3.316  0.00  0.00    -0.028 C 
ATOM     26  C   UNL     1       3.958  -0.542  -4.685  0.00  0.00    +0.002 C 
ATOM     27  C   UNL     1       4.660  -1.032  -3.416  0.00  0.00    +0.002 C 
ENDBRANCH  24  25
ENDBRANCH  22  24
BRANCH  22  28
ATOM     28  C   UNL     1       0.971   1.130  -4.021  0.00  0.00    -0.047 C 
BRANCH  28  29
ATOM     29  C   UNL     1       0.140   2.410  -3.910  0.00  0.00    +0.098 C 
BRANCH  29  30
ATOM     30  O   UNL     1      -1.176   2.086  -3.457  0.00  0.00    -0.394 OA
ATOM     31  H   UNL     1      -1.656   1.484  -4.042  0.00  0.00    +0.210 HD
ENDBRANCH  29  30
BRANCH  29  32
ATOM     32  C   UNL     1       0.056   3.084  -5.281  0.00  0.00    +0.033 C 
BRANCH  32  33
ATOM     33  C   UNL     1      -0.668   4.425  -5.147  0.00  0.00    +0.029 C 
BRANCH  33  34
ATOM     34  C   UNL     1      -0.751   5.088  -6.498  0.00  0.00    -0.034 C 
ATOM     35  C   UNL     1      -1.913   5.458  -6.976  0.00  0.00    +0.004 C 
ENDBRANCH  33  34
ENDBRANCH  32  33
ENDBRANCH  29  32
ENDBRANCH  28  29
ENDBRANCH  22  28
ENDBRANCH  21  22
ENDBRANCH   3  21
TORSDOF 13
