REMARK  Name = ZINC35778135
REMARK  17 active torsions:
REMARK  status: ('A' for Active; 'I' for Inactive)
REMARK    1  A    between atoms: C_1  and  N_2
REMARK    2  A    between atoms: C_3  and  O_31
REMARK    3  A    between atoms: C_4  and  C_13
REMARK    4  A    between atoms: C_5  and  C_7
REMARK    5  A    between atoms: C_13  and  N_14
REMARK    6  A    between atoms: N_14  and  C_15
REMARK    7  A    between atoms: N_14  and  C_19
REMARK    8  A    between atoms: C_15  and  C_16
REMARK    9  A    between atoms: C_16  and  O_17
REMARK   10  A    between atoms: O_17  and  C_18
REMARK   11  A    between atoms: C_19  and  C_20
REMARK   12  A    between atoms: C_20  and  C_22
REMARK   13  A    between atoms: C_20  and  O_30
REMARK   14  A    between atoms: C_22  and  O_23
REMARK   15  A    between atoms: O_23  and  C_24
REMARK   16  A    between atoms: C_24  and  C_25
REMARK   17  A    between atoms: O_31  and  C_32
REMARK                            x       y       z     vdW  Elec       q    Type
REMARK                         _______ _______ _______ _____ _____    ______ ____
ROOT
ATOM      1  C   UNL     1      -0.187  -6.643   2.185  0.00  0.00    +0.176 C 
ATOM      2  N   UNL     1      -0.488  -5.976   0.916  0.00  0.00    -0.235 N 
ATOM      3  C   UNL     1       0.058  -4.811   0.478  0.00  0.00    +0.221 A 
ATOM      4  C   UNL     1      -0.480  -4.533  -0.736  0.00  0.00    +0.025 A 
ATOM      5  C   UNL     1      -1.387  -5.563  -1.052  0.00  0.00    +0.098 A 
ATOM      6  N   UNL     1      -1.383  -6.429  -0.061  0.00  0.00    -0.168 NA
ENDROOT
BRANCH   5   7
ATOM      7  C   UNL     1      -2.199  -5.660  -2.290  0.00  0.00    +0.002 A 
ATOM      8  C   UNL     1      -2.845  -4.532  -2.792  0.00  0.00    +0.010 A 
ATOM      9  C   UNL     1      -3.600  -4.627  -3.944  0.00  0.00    +0.001 A 
ATOM     10  C   UNL     1      -3.716  -5.839  -4.599  0.00  0.00    +0.000 A 
ATOM     11  C   UNL     1      -3.077  -6.962  -4.105  0.00  0.00    +0.001 A 
ATOM     12  C   UNL     1      -2.315  -6.877  -2.958  0.00  0.00    +0.010 A 
ENDBRANCH   5   7
BRANCH   4  13
ATOM     13  C   UNL     1      -0.165  -3.335  -1.594  0.00  0.00    -0.035 C 
BRANCH  13  14
ATOM     14  N   UNL     1       1.067  -3.587  -2.354  0.00  0.00    +0.386 N 
ATOM     15  H   UNL     1       1.818  -3.801  -1.715  0.00  0.00    -0.081 HD
BRANCH  14  16
ATOM     16  C   UNL     1       1.414  -2.392  -3.135  0.00  0.00    -0.050 C 
BRANCH  16  17
ATOM     17  C   UNL     1       1.655  -1.216  -2.187  0.00  0.00    +0.141 C 
BRANCH  17  18
ATOM     18  O   UNL     1       2.752  -1.517  -1.323  0.00  0.00    -0.385 OA
ATOM     19  C   UNL     1       3.062  -0.478  -0.393  0.00  0.00    +0.193 C 
ENDBRANCH  17  18
ENDBRANCH  16  17
ENDBRANCH  14  16
BRANCH  14  20
ATOM     20  C   UNL     1       0.858  -4.722  -3.262  0.00  0.00    -0.044 C 
BRANCH  20  21
ATOM     21  C   UNL     1       2.194  -5.125  -3.891  0.00  0.00    +0.124 C 
BRANCH  21  22
ATOM     22  O   UNL     1       2.624  -4.102  -4.790  0.00  0.00    -0.391 OA
ATOM     23  H   UNL     1       2.008  -3.930  -5.515  0.00  0.00    +0.210 HD
ENDBRANCH  21  22
BRANCH  21  24
ATOM     24  C   UNL     1       2.021  -6.438  -4.657  0.00  0.00    +0.189 C 
BRANCH  24  25
ATOM     25  O   UNL     1       3.291  -6.875  -5.146  0.00  0.00    -0.370 OA
BRANCH  25  26
ATOM     26  C   UNL     1       3.242  -8.099  -5.880  0.00  0.00    +0.234 C 
BRANCH  26  27
ATOM     27  C   UNL     1       4.629  -8.463  -6.345  0.00  0.00    +0.130 A 
ATOM     28  C   UNL     1       5.513  -9.216  -5.667  0.00  0.00    +0.047 A 
ATOM     29  C   UNL     1       6.676  -9.301  -6.467  0.00  0.00    +0.041 A 
ATOM     30  C   UNL     1       6.432  -8.595  -7.585  0.00  0.00    +0.195 A 
ATOM     31  O   UNL     1       5.189  -8.094  -7.508  0.00  0.00    -0.465 OA
ENDBRANCH  26  27
ENDBRANCH  25  26
ENDBRANCH  24  25
ENDBRANCH  21  24
ENDBRANCH  20  21
ENDBRANCH  14  20
ENDBRANCH  13  14
ENDBRANCH   4  13
BRANCH   3  32
ATOM     32  O   UNL     1       0.976  -4.061   1.138  0.00  0.00    -0.438 OA
BRANCH  32  33
ATOM     33  C   UNL     1       0.526  -3.139   2.030  0.00  0.00    +0.130 A 
ATOM     34  C   UNL     1      -0.828  -3.062   2.325  0.00  0.00    +0.048 A 
ATOM     35  C   UNL     1      -1.283  -2.125   3.232  0.00  0.00    +0.023 A 
ATOM     36  C   UNL     1      -0.391  -1.264   3.845  0.00  0.00    +0.041 A 
ATOM     37  C   UNL     1       0.959  -1.339   3.552  0.00  0.00    +0.023 A 
ATOM     38  C   UNL     1       1.420  -2.278   2.650  0.00  0.00    +0.048 A 
ATOM     39 CL   UNL     1      -0.967  -0.086   4.984  0.00  0.00    -0.084 Cl
ENDBRANCH  32  33
ENDBRANCH   3  32
TORSDOF 15
