REMARK  Name = ZINC58289123
REMARK  10 active torsions:
REMARK  status: ('A' for Active; 'I' for Inactive)
REMARK    1  A    between atoms: C_1  and  C_2
REMARK    2  A    between atoms: C_2  and  N_3
REMARK    3  A    between atoms: C_5  and  C_14
REMARK    4  A    between atoms: C_14  and  N_15
REMARK    5  A    between atoms: N_15  and  C_16
REMARK    6  A    between atoms: N_15  and  C_17
REMARK    7  A    between atoms: C_17  and  C_18
REMARK    8  A    between atoms: N_20  and  C_21
REMARK    9  A    between atoms: C_25  and  C_27
REMARK   10  A    between atoms: N_29  and  C_30
REMARK                            x       y       z     vdW  Elec       q    Type
REMARK                         _______ _______ _______ _____ _____    ______ ____
ROOT
ATOM      1  N   UNL     1      -5.681  -0.065   2.251  0.00  0.00    +0.386 N 
ATOM      2  C   UNL     1      -5.660   1.400   2.141  0.00  0.00    -0.095 C 
ATOM      3  H   UNL     1      -6.096  -0.459   1.419  0.00  0.00    -0.081 HD
ENDROOT
BRANCH   1   4
ATOM      4  C   UNL     1      -4.308  -0.565   2.397  0.00  0.00    -0.032 C 
BRANCH   4   7
ATOM      5  N   UNL     1      -1.376  -0.519   0.006  0.00  0.00    -0.324 N 
ATOM      6  C   UNL     1      -2.082  -0.789   1.271  0.00  0.00    +0.147 C 
ATOM      7  C   UNL     1      -3.518  -0.267   1.121  0.00  0.00    +0.174 C 
ATOM      8  O   UNL     1      -4.133  -0.923   0.009  0.00  0.00    -0.487 OA
ATOM      9  C   UNL     1      -3.448  -0.956  -1.165  0.00  0.00    +0.142 A 
ATOM     10  C   UNL     1      -2.071  -0.754  -1.191  0.00  0.00    +0.072 A 
ATOM     11  C   UNL     1      -1.387  -0.789  -2.396  0.00  0.00    +0.027 A 
ATOM     12  C   UNL     1      -2.076  -1.018  -3.573  0.00  0.00    +0.002 A 
ATOM     13  C   UNL     1      -3.445  -1.210  -3.548  0.00  0.00    +0.004 A 
ATOM     14  C   UNL     1      -4.128  -1.188  -2.350  0.00  0.00    +0.047 A 
BRANCH   5  16
ATOM     15  C   UNL     1      -0.013   1.511   0.015  0.00  0.00    +0.024 C 
ATOM     16  C   UNL     1       0.001  -0.019  -0.002  0.00  0.00    +0.102 C 
ENDBRANCH   5  16
ENDBRANCH   4   7
ENDBRANCH   1   4
BRANCH   1  17
ATOM     17  C   UNL     1      -6.472  -0.456   3.425  0.00  0.00    +0.019 C 
BRANCH  17  18
ATOM     18  C   UNL     1      -7.909  -0.051   3.221  0.00  0.00    +0.201 C 
ATOM     19  O   UNL     1      -8.241   0.509   2.197  0.00  0.00    -0.278 OA
ATOM     20  N   UNL     1      -8.825  -0.310   4.175  0.00  0.00    -0.287 N 
ATOM     21  H   UNL     1      -8.574  -0.817   4.963  0.00  0.00    +0.155 HD
BRANCH  20  22
ATOM     22  C   UNL     1     -10.138   0.151   4.029  0.00  0.00    +0.034 A 
ATOM     23  C   UNL     1     -10.857   0.567   5.143  0.00  0.00    +0.023 A 
ATOM     24  C   UNL     1     -12.154   1.024   5.004  0.00  0.00    +0.003 A 
ATOM     25  C   UNL     1     -12.744   1.069   3.757  0.00  0.00    +0.013 A 
ATOM     26  C   UNL     1     -12.031   0.654   2.631  0.00  0.00    +0.038 A 
ATOM     27  C   UNL     1     -10.720   0.199   2.771  0.00  0.00    +0.036 A 
BRANCH  26  28
ATOM     28  C   UNL     1     -12.661   0.701   1.295  0.00  0.00    +0.244 C 
ATOM     29  O   UNL     1     -12.038   0.339   0.316  0.00  0.00    -0.270 OA
ATOM     30  N   UNL     1     -13.926   1.146   1.161  0.00  0.00    -0.314 N 
ATOM     31  C   UNL     1     -14.550   1.194  -0.163  0.00  0.00    +0.128 C 
ATOM     32  H   UNL     1     -14.423   1.435   1.943  0.00  0.00    +0.149 HD
ENDBRANCH  26  28
ENDBRANCH  20  22
ENDBRANCH  17  18
ENDBRANCH   1  17
TORSDOF 7
