REMARK  Name = ZINC28405049
REMARK  5 active torsions:
REMARK  status: ('A' for Active; 'I' for Inactive)
REMARK    1  A    between atoms: C_1  and  N_2
REMARK    2  A    between atoms: N_2  and  C_3
REMARK    3  A    between atoms: C_3  and  C_4
REMARK    4  A    between atoms: N_11  and  C_12
REMARK    5  A    between atoms: C_12  and  C_13
REMARK                            x       y       z     vdW  Elec       q    Type
REMARK                         _______ _______ _______ _____ _____    ______ ____
ROOT
ATOM      1  C   UNL     1      -0.018   1.461   0.010  0.00  0.00    +0.134 C 
ATOM      2  N   UNL     1       0.002  -0.004   0.002  0.00  0.00    -0.281 N 
ATOM      3  C   UNL     1       0.000  -0.672  -1.169  0.00  0.00    +0.302 C 
ATOM      4  O   UNL     1       0.017  -1.887  -1.175  0.00  0.00    -0.253 OA
ATOM      5  N   UNL     1      -0.020   0.009  -2.332  0.00  0.00    -0.296 N 
ATOM      6  H   UNL     1      -0.033   0.978  -2.327  0.00  0.00    +0.150 HD
ENDROOT
BRANCH   2   7
ATOM      7  C   UNL     1       0.024  -0.743   1.267  0.00  0.00    +0.183 C 
BRANCH   7   8
ATOM      8  C   UNL     1      -1.389  -1.016   1.714  0.00  0.00    +0.122 A 
ATOM      9  C   UNL     1      -2.117  -2.103   1.401  0.00  0.00    +0.046 A 
ATOM     10  C   UNL     1      -3.375  -1.948   2.027  0.00  0.00    +0.041 A 
ATOM     11  C   UNL     1      -3.340  -0.775   2.686  0.00  0.00    +0.195 A 
ATOM     12  O   UNL     1      -2.133  -0.218   2.497  0.00  0.00    -0.466 OA
ENDBRANCH   7   8
ENDBRANCH   2   7
BRANCH   5  13
ATOM     13  C   UNL     1      -0.022  -0.717  -3.605  0.00  0.00    +0.150 C 
BRANCH  13  14
ATOM     14  C   UNL     1      -0.047   0.283  -4.762  0.00  0.00    +0.195 C 
ATOM     15  C   UNL     1      -0.113  -0.453  -6.122  0.00  0.00    +0.085 C 
ATOM     16  C   UNL     1      -1.008   0.466  -6.932  0.00  0.00    -0.002 A 
ATOM     17  C   UNL     1      -1.255   0.559  -8.284  0.00  0.00    +0.007 A 
ATOM     18  C   UNL     1      -2.131   1.517  -8.761  0.00  0.00    +0.000 A 
ATOM     19  C   UNL     1      -2.756   2.378  -7.878  0.00  0.00    +0.004 A 
ATOM     20  C   UNL     1      -2.512   2.284  -6.524  0.00  0.00    +0.046 A 
ATOM     21  C   UNL     1      -1.634   1.320  -6.034  0.00  0.00    +0.124 A 
ATOM     22  O   UNL     1      -1.265   1.047  -4.750  0.00  0.00    -0.487 OA
ENDBRANCH  13  14
ENDBRANCH   5  13
TORSDOF 4
