REMARK  Name = ZINC09547679
REMARK  6 active torsions:
REMARK  status: ('A' for Active; 'I' for Inactive)
REMARK    1  A    between atoms: C_1  and  C_2
REMARK    2  A    between atoms: C_9  and  N_14
REMARK    3  A    between atoms: C_15  and  C_17
REMARK    4  A    between atoms: C_17  and  C_18
REMARK    5  A    between atoms: C_18  and  C_19
REMARK    6  A    between atoms: C_28  and  C_29
REMARK                            x       y       z     vdW  Elec       q    Type
REMARK                         _______ _______ _______ _____ _____    ______ ____
ROOT
ATOM      1  C   UNL     1       3.587  -6.305  -1.095  0.00  0.00    +0.101 C 
ENDROOT
BRANCH   1   3
ATOM      2  N   UNL     1       2.001  -4.534  -0.410  0.00  0.00    -0.285 N 
ATOM      3  C   UNL     1       3.281  -4.934  -0.547  0.00  0.00    +0.218 C 
ATOM      4  O   UNL     1       4.186  -4.192  -0.230  0.00  0.00    -0.275 OA
ATOM      5  H   UNL     1       1.277  -5.153  -0.592  0.00  0.00    +0.155 HD
BRANCH   2  13
ATOM      6  C   UNL     1       1.538   2.942   1.535  0.00  0.00    +0.062 C 
ATOM      7  C   UNL     1       2.006   1.488   1.439  0.00  0.00    +0.256 C 
ATOM      8  C   UNL     1       2.992   1.353   0.306  0.00  0.00    +0.258 C 
ATOM      9  O   UNL     1       3.685   2.295  -0.014  0.00  0.00    -0.271 OA
ATOM     10  N   UNL     1       3.105   0.175  -0.346  0.00  0.00    -0.279 N 
ATOM     11  C   UNL     1       2.271  -0.890   0.024  0.00  0.00    +0.077 A 
ATOM     12  C   UNL     1       2.556  -2.183  -0.380  0.00  0.00    +0.050 A 
ATOM     13  C   UNL     1       1.717  -3.224  -0.003  0.00  0.00    +0.035 A 
ATOM     14  C   UNL     1       0.598  -2.966   0.777  0.00  0.00    +0.027 A 
ATOM     15  C   UNL     1       0.313  -1.675   1.181  0.00  0.00    +0.049 A 
ATOM     16  C   UNL     1       1.147  -0.635   0.807  0.00  0.00    +0.143 A 
ATOM     17  O   UNL     1       0.880   0.641   1.199  0.00  0.00    -0.478 OA
ATOM     18  H   UNL     1       3.752   0.068  -1.061  0.00  0.00    +0.155 HD
ENDBRANCH   2  13
ENDBRANCH   1   3
BRANCH   1  19
ATOM     19  C   UNL     1       5.102  -6.506  -1.148  0.00  0.00    +0.047 C 
BRANCH  19  20
ATOM     20  C   UNL     1       5.408  -7.870  -1.712  0.00  0.00    -0.014 A 
ATOM     21  C   UNL     1       5.570  -8.211  -3.124  0.00  0.00    +0.003 A 
ATOM     22  C   UNL     1       5.518  -7.474  -4.310  0.00  0.00    +0.010 A 
ATOM     23  C   UNL     1       5.725  -8.099  -5.507  0.00  0.00    +0.001 A 
ATOM     24  C   UNL     1       5.994  -9.460  -5.555  0.00  0.00    +0.002 A 
ATOM     25  C   UNL     1       6.056 -10.205  -4.397  0.00  0.00    +0.026 A 
ATOM     26  C   UNL     1       5.848  -9.591  -3.167  0.00  0.00    +0.047 A 
ATOM     27  N   UNL     1       5.845 -10.053  -1.869  0.00  0.00    -0.354 N 
ATOM     28  H   UNL     1       6.005 -10.972  -1.604  0.00  0.00    +0.166 HD
ATOM     29  C   UNL     1       5.580  -9.015  -1.006  0.00  0.00    +0.051 A 
BRANCH  29  30
ATOM     30  C   UNL     1       5.496  -9.131   0.466  0.00  0.00    -0.001 A 
ATOM     31  C   UNL     1       6.173  -8.221   1.280  0.00  0.00    +0.013 A 
ATOM     32  C   UNL     1       6.087  -8.330   2.652  0.00  0.00    +0.039 A 
ATOM     33  C   UNL     1       5.339  -9.347   3.223  0.00  0.00    +0.123 A 
ATOM     34  C   UNL     1       4.670 -10.257   2.420  0.00  0.00    +0.039 A 
ATOM     35  C   UNL     1       4.745 -10.153   1.046  0.00  0.00    +0.013 A 
ATOM     36  F   UNL     1       5.262  -9.453   4.568  0.00  0.00    -0.205 F 
ENDBRANCH  29  30
ENDBRANCH  19  20
ENDBRANCH   1  19
TORSDOF 5
