REMARK  Name = ZINC02744601
REMARK  12 active torsions:
REMARK  status: ('A' for Active; 'I' for Inactive)
REMARK    1  A    between atoms: C_1  and  C_2
REMARK    2  A    between atoms: C_2  and  C_3
REMARK    3  A    between atoms: C_3  and  O_4
REMARK    4  A    between atoms: O_4  and  C_5
REMARK    5  A    between atoms: C_5  and  C_7
REMARK    6  A    between atoms: C_11  and  N_12
REMARK    7  A    between atoms: C_13  and  C_15
REMARK    8  A    between atoms: C_18  and  C_20
REMARK    9  A    between atoms: C_20  and  N_21
REMARK   10  A    between atoms: C_22  and  C_30
REMARK   11  A    between atoms: C_24  and  C_26
REMARK   12  A    between atoms: C_32  and  C_36
REMARK                            x       y       z     vdW  Elec       q    Type
REMARK                         _______ _______ _______ _____ _____    ______ ____
ROOT
ATOM      1  N   UNL     1      -1.221  -2.349   2.487  0.00  0.00    -0.273 N 
ATOM      2  C   UNL     1      -1.240  -3.215   3.520  0.00  0.00    +0.284 C 
ATOM      3  O   UNL     1      -1.290  -4.413   3.309  0.00  0.00    -0.266 OA
ATOM      4  H   UNL     1      -1.182  -1.395   2.655  0.00  0.00    +0.156 HD
ENDROOT
BRANCH   1   9
ATOM      5  C   UNL     1      -1.248  -2.096   0.003  0.00  0.00    +0.091 A 
ATOM      6  C   UNL     1      -1.289  -2.843  -1.244  0.00  0.00    -0.021 A 
ATOM      7  C   UNL     1      -1.340  -4.185  -1.108  0.00  0.00    -0.004 A 
ATOM      8  S   UNL     1      -1.334  -4.465   0.640  0.00  0.00    -0.077 S 
ATOM      9  C   UNL     1      -1.259  -2.823   1.187  0.00  0.00    +0.087 A 
ATOM     10  C   UNL     1      -1.392  -5.202  -2.206  0.00  0.00    +0.046 C 
ATOM     11  C   UNL     1      -1.756  -4.485  -3.514  0.00  0.00    -0.009 C 
ATOM     12  C   UNL     1      -0.871  -3.243  -3.658  0.00  0.00    +0.008 C 
ATOM     13  C   UNL     1      -1.276  -2.193  -2.622  0.00  0.00    +0.037 C 
ATOM     14  C   UNL     1      -1.518  -5.424  -4.698  0.00  0.00    +0.008 C 
BRANCH   5  15
ATOM     15  C   UNL     1      -1.191  -0.633   0.010  0.00  0.00    +0.342 C 
ATOM     16  O   UNL     1      -2.220   0.016   0.023  0.00  0.00    -0.245 OA
BRANCH  15  17
ATOM     17  O   UNL     1       0.002  -0.004   0.002  0.00  0.00    -0.461 OA
BRANCH  17  18
ATOM     18  C   UNL     1      -0.018   1.448   0.010  0.00  0.00    +0.232 C 
BRANCH  18  20
ATOM     19  C   UNL     1       1.397   3.507   0.008  0.00  0.00    +0.007 C 
ATOM     20  C   UNL     1       1.418   1.977  -0.001  0.00  0.00    +0.038 C 
ENDBRANCH  18  20
ENDBRANCH  17  18
ENDBRANCH  15  17
ENDBRANCH   5  15
ENDBRANCH   1   9
BRANCH   2  21
ATOM     21  C   UNL     1      -1.200  -2.714   4.897  0.00  0.00    +0.190 A 
ATOM     22  C   UNL     1      -1.213  -3.477   6.030  0.00  0.00    +0.055 A 
ATOM     23  C   UNL     1      -1.162  -2.589   7.115  0.00  0.00    +0.047 A 
ATOM     24  C   UNL     1      -1.120  -1.339   6.605  0.00  0.00    +0.127 A 
ATOM     25  O   UNL     1      -1.138  -1.418   5.268  0.00  0.00    -0.453 OA
BRANCH  24  26
ATOM     26  C   UNL     1      -1.057  -0.065   7.407  0.00  0.00    +0.217 C 
BRANCH  26  27
ATOM     27  N   UNL     1       0.343   0.293   7.646  0.00  0.00    -0.261 N 
ATOM     28  C   UNL     1       1.111   1.069   6.852  0.00  0.00    +0.037 A 
ATOM     29  C   UNL     1       2.335   1.157   7.420  0.00  0.00    +0.056 A 
ATOM     30  C   UNL     1       2.316   0.410   8.603  0.00  0.00    +0.165 A 
ATOM     31  N   UNL     1       1.120  -0.104   8.742  0.00  0.00    -0.167 NA
ATOM     32  C   UNL     1       0.681   1.720   5.562  0.00  0.00    +0.065 C 
BRANCH  30  33
ATOM     33  C   UNL     1       3.470   0.232   9.555  0.00  0.00    +0.436 C 
ATOM     34  F   UNL     1       3.439   1.246  10.519  0.00  0.00    -0.164 F 
ATOM     35  F   UNL     1       3.368  -1.013  10.185  0.00  0.00    -0.164 F 
ATOM     36  F   UNL     1       4.674   0.299   8.846  0.00  0.00    -0.164 F 
ENDBRANCH  30  33
ENDBRANCH  26  27
ENDBRANCH  24  26
ENDBRANCH   2  21
TORSDOF 9
