REMARK  Name = ZINC01209073
REMARK  5 active torsions:
REMARK  status: ('A' for Active; 'I' for Inactive)
REMARK    1  A    between atoms: C_3  and  C_8
REMARK    2  A    between atoms: C_5  and  O_7
REMARK    3  A    between atoms: C_11  and  C_21
REMARK    4  A    between atoms: C_11  and  O_25
REMARK    5  A    between atoms: C_13  and  C_15
REMARK                            x       y       z     vdW  Elec       q    Type
REMARK                         _______ _______ _______ _____ _____    ______ ____
ROOT
ATOM      1  C   UNL     1       1.167   3.567   0.010  0.00  0.00    +0.269 C 
ATOM      2  O   UNL     1       2.211   4.186   0.078  0.00  0.00    -0.268 OA
ATOM      3  N   UNL     1      -0.004   4.229  -0.078  0.00  0.00    -0.148 N 
ATOM      4  C   UNL     1      -0.159   5.690  -0.180  0.00  0.00    +0.257 C 
ATOM      5  C   UNL     1      -1.687   5.879  -0.253  0.00  0.00    +0.119 C 
ATOM      6  C   UNL     1      -2.230   4.470  -0.172  0.00  0.00    +0.045 C 
ATOM      7  N   UNL     1      -1.269   3.645  -0.081  0.00  0.00    -0.183 NA
ENDROOT
BRANCH   1  10
ATOM      8  C   UNL     1       2.405   0.021   0.002  0.00  0.00    +0.004 A 
ATOM      9  C   UNL     1       2.395   1.400  -0.011  0.00  0.00    +0.013 A 
ATOM     10  C   UNL     1       1.181   2.089   0.022  0.00  0.00    +0.042 A 
ATOM     11  C   UNL     1      -0.018   1.378   0.068  0.00  0.00    +0.058 A 
ATOM     12  C   UNL     1       0.004  -0.007   0.080  0.00  0.00    +0.118 A 
ATOM     13  C   UNL     1       1.216  -0.683   0.048  0.00  0.00    +0.045 A 
BRANCH  12  14
ATOM     14  O   UNL     1      -1.162  -0.704   0.124  0.00  0.00    -0.507 OA
ATOM     15  H   UNL     1      -1.472  -0.897   1.020  0.00  0.00    +0.292 HD
ENDBRANCH  12  14
ENDBRANCH   1  10
BRANCH   6  16
ATOM     16  C   UNL     1      -3.690   4.100  -0.196  0.00  0.00    +0.035 C 
ATOM     17  C   UNL     1      -4.378   4.657   1.052  0.00  0.00    +0.009 C 
ATOM     18  C   UNL     1      -5.861   4.281   1.028  0.00  0.00    +0.001 C 
ATOM     19  C   UNL     1      -6.001   2.758   1.004  0.00  0.00    +0.000 C 
ATOM     20  C   UNL     1      -5.314   2.202  -0.244  0.00  0.00    +0.001 C 
ATOM     21  C   UNL     1      -3.831   2.577  -0.220  0.00  0.00    +0.009 C 
ENDBRANCH   6  16
BRANCH   4  22
ATOM     22  C   UNL     1       0.415   6.381   1.058  0.00  0.00    +0.438 C 
ATOM     23  F   UNL     1       1.783   6.104   1.155  0.00  0.00    -0.166 F 
ATOM     24  F   UNL     1       0.226   7.763   0.951  0.00  0.00    -0.166 F 
ATOM     25  F   UNL     1      -0.238   5.909   2.201  0.00  0.00    -0.166 F 
ENDBRANCH   4  22
BRANCH   4  26
ATOM     26  O   UNL     1       0.465   6.181  -1.368  0.00  0.00    -0.363 OA
ATOM     27  H   UNL     1       1.418   6.021  -1.407  0.00  0.00    +0.212 HD
ENDBRANCH   4  26
TORSDOF 5
