REMARK  Name = ZINC23627202
REMARK  8 active torsions:
REMARK  status: ('A' for Active; 'I' for Inactive)
REMARK    1  A    between atoms: C_1  and  C_2
REMARK    2  A    between atoms: C_5  and  S_8
REMARK    3  A    between atoms: S_8  and  N_11
REMARK    4  A    between atoms: C_14  and  N_17
REMARK    5  A    between atoms: N_17  and  C_18
REMARK    6  A    between atoms: C_18  and  C_20
REMARK    7  A    between atoms: C_18  and  C_26
REMARK    8  A    between atoms: N_28  and  C_29
REMARK                            x       y       z     vdW  Elec       q    Type
REMARK                         _______ _______ _______ _____ _____    ______ ____
ROOT
ATOM      1  N   UNL     1       0.562  -5.808  -4.154  0.00  0.00    +0.391 N 
ATOM      2  H   UNL     1       1.539  -6.217  -3.857  0.00  0.00    -0.084 HD
ATOM      3  H   UNL     1      -0.232  -6.295  -3.571  0.00  0.00    -0.084 HD
ENDROOT
BRANCH   1   7
ATOM      4  N   UNL     1      -0.015  -2.067  -2.343  0.00  0.00    -0.177 NA
ATOM      5  C   UNL     1      -0.930  -2.396  -3.445  0.00  0.00    +0.108 C 
ATOM      6  C   UNL     1      -0.904  -3.906  -3.677  0.00  0.00    +0.001 C 
ATOM      7  C   UNL     1       0.539  -4.361  -3.901  0.00  0.00    -0.068 C 
ATOM      8  C   UNL     1       1.373  -4.049  -2.656  0.00  0.00    +0.001 C 
ATOM      9  C   UNL     1       1.375  -2.536  -2.414  0.00  0.00    +0.108 C 
BRANCH   4  10
ATOM     10  S   UNL     1      -0.544  -1.189  -1.042  0.00  0.00    +0.061 S 
ATOM     11  O   UNL     1       0.317  -1.511   0.042  0.00  0.00    -0.153 OA
ATOM     12  O   UNL     1      -1.952  -1.368  -0.976  0.00  0.00    -0.153 OA
BRANCH  10  17
ATOM     13  C   UNL     1       0.395   4.633  -2.319  0.00  0.00    +0.044 C 
ATOM     14  C   UNL     1       0.160   3.179  -1.999  0.00  0.00    -0.050 A 
ATOM     15  C   UNL     1      -1.038   2.581  -2.343  0.00  0.00    +0.005 A 
ATOM     16  C   UNL     1      -1.253   1.247  -2.050  0.00  0.00    +0.029 A 
ATOM     17  C   UNL     1      -0.270   0.511  -1.415  0.00  0.00    +0.105 A 
ATOM     18  C   UNL     1       0.928   1.110  -1.071  0.00  0.00    +0.029 A 
ATOM     19  C   UNL     1       1.143   2.444  -1.364  0.00  0.00    +0.005 A 
ENDBRANCH  10  17
ENDBRANCH   4  10
ENDBRANCH   1   7
BRANCH   1  20
ATOM     20  C   UNL     1       0.345  -6.096  -5.579  0.00  0.00    +0.047 C 
BRANCH  20  21
ATOM     21  C   UNL     1       1.653  -5.983  -6.319  0.00  0.00    -0.053 A 
ATOM     22  C   UNL     1       2.817  -6.457  -5.743  0.00  0.00    +0.002 A 
ATOM     23  C   UNL     1       4.015  -6.357  -6.424  0.00  0.00    +0.000 A 
ATOM     24  C   UNL     1       4.051  -5.775  -7.678  0.00  0.00    +0.000 A 
ATOM     25  C   UNL     1       2.888  -5.297  -8.252  0.00  0.00    +0.000 A 
ATOM     26  C   UNL     1       1.689  -5.401  -7.572  0.00  0.00    +0.002 A 
ENDBRANCH  20  21
BRANCH  20  27
ATOM     27  C   UNL     1      -0.199  -7.493  -5.731  0.00  0.00    +0.203 C 
ATOM     28  O   UNL     1       0.052  -8.336  -4.896  0.00  0.00    -0.277 OA
ATOM     29  N   UNL     1      -0.965  -7.806  -6.795  0.00  0.00    -0.314 N 
ATOM     30  H   UNL     1      -1.193  -7.041  -7.552  0.00  0.00    +0.149 HD
BRANCH  29  31
ATOM     31  C   UNL     1      -1.494  -9.164  -6.943  0.00  0.00    +0.073 C 
ATOM     32  C   UNL     1      -1.421  -9.803  -8.331  0.00  0.00    +0.024 C 
ATOM     33  C   UNL     1      -2.768  -9.339  -7.772  0.00  0.00    +0.024 C 
ENDBRANCH  29  31
ENDBRANCH  20  27
ENDBRANCH   1  20
TORSDOF 7
