REMARK  Name = ZINC01060242
REMARK  8 active torsions:
REMARK  status: ('A' for Active; 'I' for Inactive)
REMARK    1  A    between atoms: C_1  and  C_2
REMARK    2  A    between atoms: C_2  and  O_3
REMARK    3  A    between atoms: O_3  and  C_4
REMARK    4  A    between atoms: C_4  and  C_6
REMARK    5  A    between atoms: C_7  and  N_31
REMARK    6  A    between atoms: N_8  and  C_24
REMARK    7  A    between atoms: C_11  and  C_13
REMARK    8  A    between atoms: C_27  and  C_30
REMARK                            x       y       z     vdW  Elec       q    Type
REMARK                         _______ _______ _______ _____ _____    ______ ____
ROOT
ATOM      1  C   UNL     1      -3.780   2.098   0.113  0.00  0.00    +0.085 C 
ATOM      2  C   UNL     1      -3.465   3.422   0.059  0.00  0.00    +0.103 C 
ATOM      3  N   UNL     1      -2.149   3.812  -0.054  0.00  0.00    -0.261 N 
ATOM      4  C   UNL     1      -1.204   2.937  -0.523  0.00  0.00    +0.024 C 
ATOM      5  C   UNL     1      -1.426   1.606  -0.500  0.00  0.00    +0.025 C 
ATOM      6  C   UNL     1      -2.714   1.045   0.048  0.00  0.00    +0.101 C 
ATOM      7  C   UNL     1      -0.461   0.702  -0.977  0.00  0.00    +0.162 C 
ATOM      8  O   UNL     1      -0.699  -0.490  -0.958  0.00  0.00    -0.292 OA
ATOM      9  C   UNL     1       0.859   1.182  -1.516  0.00  0.00    +0.080 C 
ATOM     10  C   UNL     1       1.223   2.506  -0.836  0.00  0.00    +0.014 C 
ATOM     11  C   UNL     1       0.084   3.501  -1.072  0.00  0.00    +0.052 C 
ENDROOT
BRANCH   3  12
ATOM     12  C   UNL     1      -1.776   5.115   0.298  0.00  0.00    +0.040 A 
ATOM     13  C   UNL     1      -2.203   6.192  -0.468  0.00  0.00    +0.024 A 
ATOM     14  C   UNL     1      -1.838   7.476  -0.115  0.00  0.00    +0.005 A 
ATOM     15  C   UNL     1      -1.038   7.689   0.993  0.00  0.00    -0.050 A 
ATOM     16  C   UNL     1      -0.607   6.619   1.754  0.00  0.00    +0.005 A 
ATOM     17  C   UNL     1      -0.973   5.332   1.410  0.00  0.00    +0.024 A 
ATOM     18  C   UNL     1      -0.637   9.092   1.372  0.00  0.00    +0.044 C 
ENDBRANCH   3  12
BRANCH   6  19
ATOM     19  C   UNL     1      -2.467   0.506   1.434  0.00  0.00    +0.003 A 
ATOM     20  C   UNL     1      -2.629  -0.756   1.899  0.00  0.00    +0.013 A 
ATOM     21  C   UNL     1      -2.338  -1.025   3.224  0.00  0.00    +0.023 A 
ATOM     22  C   UNL     1      -1.899  -0.017   4.018  0.00  0.00    +0.055 A 
ATOM     23  S   UNL     1      -1.880   1.363   2.885  0.00  0.00    -0.085 S 
ATOM     24 BR   UNL     1      -1.423  -0.062   5.848  0.00  0.00    -0.043 Br
ENDBRANCH   6  19
BRANCH   2  25
ATOM     25  N   UNL     1      -4.457   4.365   0.128  0.00  0.00    -0.346 N 
ATOM     26  H   UNL     1      -4.288   5.216   0.562  0.00  0.00    +0.143 HD
ATOM     27  H   UNL     1      -5.329   4.182  -0.256  0.00  0.00    +0.143 HD
ENDBRANCH   2  25
BRANCH   1  28
ATOM     28  C   UNL     1      -5.123   1.713   0.230  0.00  0.00    +0.339 C 
ATOM     29  O   UNL     1      -5.989   2.559   0.375  0.00  0.00    -0.245 OA
BRANCH  28  30
ATOM     30  O   UNL     1      -5.458   0.406   0.183  0.00  0.00    -0.462 OA
BRANCH  30  32
ATOM     31  C   UNL     1      -7.027  -1.431   0.232  0.00  0.00    +0.048 C 
ATOM     32  C   UNL     1      -6.845   0.086   0.309  0.00  0.00    +0.229 C 
ENDBRANCH  30  32
ENDBRANCH  28  30
ENDBRANCH   1  28
TORSDOF 6
