REMARK  Name = ZINC59264766
REMARK  7 active torsions:
REMARK  status: ('A' for Active; 'I' for Inactive)
REMARK    1  A    between atoms: C_4  and  N_7
REMARK    2  A    between atoms: N_7  and  C_8
REMARK    3  A    between atoms: C_14  and  C_16
REMARK    4  A    between atoms: C_16  and  S_17
REMARK    5  A    between atoms: S_17  and  C_18
REMARK    6  A    between atoms: C_21  and  C_24
REMARK    7  A    between atoms: N_22  and  N_23
REMARK                            x       y       z     vdW  Elec       q    Type
REMARK                         _______ _______ _______ _____ _____    ______ ____
ROOT
ATOM      1  C   UNL     1       4.748   1.540  -0.196  0.00  0.00    +0.174 C 
ENDROOT
BRANCH   1   3
ATOM      2  N   UNL     1       3.628  -0.659  -0.023  0.00  0.00    -0.240 N 
ATOM      3  C   UNL     1       4.764   0.034  -0.238  0.00  0.00    +0.234 C 
ATOM      4  O   UNL     1       5.800  -0.556  -0.467  0.00  0.00    -0.274 OA
BRANCH   2   8
ATOM      5  C   UNL     1       0.021   1.364   0.487  0.00  0.00    +0.000 A 
ATOM      6  C   UNL     1       0.585   0.681   1.549  0.00  0.00    +0.002 A 
ATOM      7  C   UNL     1       1.781   0.009   1.383  0.00  0.00    +0.024 A 
ATOM      8  C   UNL     1       2.416   0.021   0.148  0.00  0.00    +0.041 A 
ATOM      9  C   UNL     1       1.847   0.707  -0.916  0.00  0.00    +0.024 A 
ATOM     10  C   UNL     1       0.651   1.377  -0.744  0.00  0.00    +0.002 A 
ENDBRANCH   2   8
BRANCH   2  11
ATOM     11  C   UNL     1       3.660  -2.058   0.030  0.00  0.00    +0.041 A 
ATOM     12  C   UNL     1       4.306  -2.700   1.078  0.00  0.00    +0.024 A 
ATOM     13  C   UNL     1       4.336  -4.080   1.127  0.00  0.00    +0.002 A 
ATOM     14  C   UNL     1       3.724  -4.822   0.134  0.00  0.00    +0.000 A 
ATOM     15  C   UNL     1       3.080  -4.186  -0.911  0.00  0.00    +0.002 A 
ATOM     16  C   UNL     1       3.042  -2.806  -0.963  0.00  0.00    +0.024 A 
ENDBRANCH   2  11
ENDBRANCH   1   3
BRANCH   1  17
ATOM     17  S   UNL     1       6.442   2.168  -0.364  0.00  0.00    -0.075 S 
BRANCH  17  18
ATOM     18  C   UNL     1       6.256   3.919  -0.297  0.00  0.00    +0.209 A 
ATOM     19  N   UNL     1       5.128   4.578  -0.149  0.00  0.00    -0.121 NA
ATOM     20  N   UNL     1       5.355   5.843  -0.142  0.00  0.00    -0.127 NA
ATOM     21  C   UNL     1       6.640   6.069  -0.284  0.00  0.00    +0.183 A 
ATOM     22  N   UNL     1       7.257   4.843  -0.382  0.00  0.00    -0.224 N 
BRANCH  21  23
ATOM     23  C   UNL     1       7.300   7.391  -0.325  0.00  0.00    +0.035 A 
ATOM     24  C   UNL     1       8.247   7.671  -1.312  0.00  0.00    +0.013 A 
ATOM     25  C   UNL     1       8.859   8.907  -1.345  0.00  0.00    +0.001 A 
ATOM     26  C   UNL     1       8.536   9.869  -0.404  0.00  0.00    +0.001 A 
ATOM     27  C   UNL     1       7.598   9.598   0.577  0.00  0.00    +0.016 A 
ATOM     28  C   UNL     1       6.974   8.367   0.619  0.00  0.00    +0.029 A 
ATOM     29 BR   UNL     1       5.687   8.002   1.955  0.00  0.00    -0.050 Br
ENDBRANCH  21  23
BRANCH  22  30
ATOM     30  N   UNL     1       8.593   4.602  -0.534  0.00  0.00    -0.295 N 
ATOM     31  H   UNL     1       8.860   4.648  -1.506  0.00  0.00    +0.163 HD
ATOM     32  H   UNL     1       9.142   5.240   0.022  0.00  0.00    +0.163 HD
ENDBRANCH  22  30
ENDBRANCH  17  18
ENDBRANCH   1  17
TORSDOF 7
