REMARK  Name = ZINC14755148
REMARK  11 active torsions:
REMARK  status: ('A' for Active; 'I' for Inactive)
REMARK    1  A    between atoms: C_1  and  C_2
REMARK    2  A    between atoms: C_3  and  C_32
REMARK    3  A    between atoms: C_4  and  C_31
REMARK    4  A    between atoms: C_7  and  C_8
REMARK    5  A    between atoms: C_8  and  C_10
REMARK    6  A    between atoms: C_10  and  C_12
REMARK    7  A    between atoms: C_10  and  O_13
REMARK    8  A    between atoms: O_13  and  C_14
REMARK    9  A    between atoms: C_14  and  C_16
REMARK   10  A    between atoms: C_18  and  C_26
REMARK   11  A    between atoms: C_32  and  C_34
REMARK                            x       y       z     vdW  Elec       q    Type
REMARK                         _______ _______ _______ _____ _____    ______ ____
ROOT
ATOM      1  C   UNL     1      -1.641   0.809  -1.681  0.00  0.00    +0.341 C 
ATOM      2  O   UNL     1      -1.918  -0.245  -1.145  0.00  0.00    -0.245 OA
ENDROOT
BRANCH   1   3
ATOM      3  C   UNL     1      -2.384   1.243  -2.883  0.00  0.00    +0.070 A 
ATOM      4  C   UNL     1      -2.171   2.491  -3.450  0.00  0.00    +0.047 A 
ATOM      5  C   UNL     1      -2.897   2.861  -4.596  0.00  0.00    +0.107 A 
ATOM      6  N   UNL     1      -3.788   2.063  -5.152  0.00  0.00    -0.244 NA
ATOM      7  C   UNL     1      -4.057   0.849  -4.669  0.00  0.00    +0.073 A 
ATOM      8  C   UNL     1      -3.377   0.376  -3.519  0.00  0.00    +0.014 A 
ATOM      9  C   UNL     1      -3.664  -0.897  -3.015  0.00  0.00    +0.011 A 
ATOM     10  C   UNL     1      -4.598  -1.673  -3.637  0.00  0.00    +0.001 A 
ATOM     11  C   UNL     1      -5.270  -1.214  -4.767  0.00  0.00    +0.002 A 
ATOM     12  C   UNL     1      -5.015   0.020  -5.284  0.00  0.00    +0.028 A 
BRANCH   5  13
ATOM     13  C   UNL     1      -2.658   4.188  -5.193  0.00  0.00    +0.153 A 
ATOM     14  C   UNL     1      -3.276   4.691  -6.297  0.00  0.00    +0.051 A 
ATOM     15  C   UNL     1      -2.748   5.979  -6.506  0.00  0.00    +0.042 A 
ATOM     16  C   UNL     1      -1.837   6.195  -5.535  0.00  0.00    +0.196 A 
ATOM     17  O   UNL     1      -1.785   5.112  -4.745  0.00  0.00    -0.461 OA
ENDBRANCH   5  13
ENDBRANCH   1   3
BRANCH   1  18
ATOM     18  O   UNL     1      -0.657   1.581  -1.182  0.00  0.00    -0.450 OA
BRANCH  18  19
ATOM     19  C   UNL     1       0.029   1.092   0.001  0.00  0.00    +0.246 C 
ATOM     20  C   UNL     1      -0.689   1.598   1.253  0.00  0.00    +0.061 C 
BRANCH  19  21
ATOM     21  C   UNL     1       1.451   1.592  -0.001  0.00  0.00    +0.219 C 
ATOM     22  O   UNL     1       1.755   2.555  -0.674  0.00  0.00    -0.287 OA
BRANCH  21  29
ATOM     23  C   UNL     1       4.438   2.432   0.161  0.00  0.00    +0.047 C 
ATOM     24  C   UNL     1       3.761   1.288   0.872  0.00  0.00    -0.012 A 
ATOM     25  C   UNL     1       4.367   0.371   1.760  0.00  0.00    +0.041 A 
ATOM     26  C   UNL     1       3.377  -0.507   2.178  0.00  0.00    +0.024 A 
ATOM     27  N   UNL     1       2.222  -0.160   1.594  0.00  0.00    -0.355 N 
ATOM     28  H   UNL     1       1.372  -0.610   1.720  0.00  0.00    +0.166 HD
ATOM     29  C   UNL     1       2.432   0.937   0.783  0.00  0.00    +0.090 A 
ATOM     30  C   UNL     1       3.567  -1.656   3.134  0.00  0.00    +0.064 C 
BRANCH  25  31
ATOM     31  C   UNL     1       5.776   0.350   2.164  0.00  0.00    +0.162 C 
ATOM     32  O   UNL     1       6.565  -0.363   1.579  0.00  0.00    -0.292 OA
ATOM     33  C   UNL     1       6.246   1.215   3.306  0.00  0.00    +0.091 C 
ENDBRANCH  25  31
ENDBRANCH  21  29
ENDBRANCH  19  21
ENDBRANCH  18  19
ENDBRANCH   1  18
TORSDOF 7
