REMARK  Name = ZINC37512093
REMARK  8 active torsions:
REMARK  status: ('A' for Active; 'I' for Inactive)
REMARK    1  A    between atoms: C_1  and  C_2
REMARK    2  A    between atoms: C_7  and  O_8
REMARK    3  A    between atoms: O_8  and  C_9
REMARK    4  A    between atoms: C_9  and  C_10
REMARK    5  A    between atoms: C_10  and  C_12
REMARK    6  A    between atoms: N_18  and  C_23
REMARK    7  A    between atoms: C_23  and  C_24
REMARK    8  A    between atoms: N_26  and  C_27
REMARK                            x       y       z     vdW  Elec       q    Type
REMARK                         _______ _______ _______ _____ _____    ______ ____
ROOT
ATOM      1  C   UNL     1       0.067  -0.476   6.128  0.00  0.00    +0.023 A 
ATOM      2  C   UNL     1       0.093  -1.865   6.305  0.00  0.00    +0.015 A 
ATOM      3  C   UNL     1       0.112  -2.400   7.574  0.00  0.00    +0.048 A 
ATOM      4  C   UNL     1       0.106  -1.563   8.682  0.00  0.00    +0.143 A 
ATOM      5  C   UNL     1       0.080  -0.176   8.514  0.00  0.00    +0.079 A 
ATOM      6  C   UNL     1       0.066   0.368   7.246  0.00  0.00    +0.038 A 
ATOM      7  N   UNL     1       0.074   0.651   9.646  0.00  0.00    -0.257 N 
ATOM      8  C   UNL     1       0.409   0.124  10.844  0.00  0.00    +0.258 C 
ATOM      9  O   UNL     1       0.382   0.812  11.842  0.00  0.00    -0.271 OA
ATOM     10  C   UNL     1       0.817  -1.325  10.934  0.00  0.00    +0.325 C 
ATOM     11  O   UNL     1       0.127  -2.082   9.937  0.00  0.00    -0.481 OA
ENDROOT
BRANCH   1  12
ATOM     12  C   UNL     1       0.046   0.093   4.775  0.00  0.00    +0.200 C 
ATOM     13  O   UNL     1       0.028   1.296   4.623  0.00  0.00    -0.288 OA
BRANCH  12  14
ATOM     14  C   UNL     1       0.047  -0.817   3.574  0.00  0.00    +0.308 C 
BRANCH  14  15
ATOM     15  O   UNL     1       0.025  -0.032   2.381  0.00  0.00    -0.484 OA
BRANCH  15  22
ATOM     16  C   UNL     1      -0.018   1.503   0.010  0.00  0.00    +0.047 C 
ATOM     17  C   UNL     1       0.002  -0.004   0.002  0.00  0.00    -0.006 A 
ATOM     18  C   UNL     1       0.006  -0.689  -1.198  0.00  0.00    +0.045 A 
ATOM     19  C   UNL     1       0.025  -2.073  -1.206  0.00  0.00    +0.124 A 
ATOM     20  C   UNL     1       0.040  -2.773  -0.012  0.00  0.00    +0.042 A 
ATOM     21  C   UNL     1       0.036  -2.091   1.190  0.00  0.00    +0.049 A 
ATOM     22  C   UNL     1       0.023  -0.704   1.199  0.00  0.00    +0.124 A 
ATOM     23  F   UNL     1       0.029  -2.741  -2.380  0.00  0.00    -0.205 F 
ENDBRANCH  15  22
ENDBRANCH  14  15
ENDBRANCH  12  14
ENDBRANCH   1  12
BRANCH   7  24
ATOM     24  C   UNL     1      -0.290   2.066   9.533  0.00  0.00    +0.209 C 
BRANCH  24  25
ATOM     25  C   UNL     1      -1.777   2.219   9.728  0.00  0.00    +0.231 C 
ATOM     26  O   UNL     1      -2.464   1.243   9.942  0.00  0.00    -0.274 OA
ATOM     27  N   UNL     1      -2.342   3.441   9.666  0.00  0.00    -0.311 N 
ATOM     28  H   UNL     1      -1.793   4.222   9.495  0.00  0.00    +0.149 HD
BRANCH  27  29
ATOM     29  C   UNL     1      -3.787   3.590   9.856  0.00  0.00    +0.073 C 
ATOM     30  C   UNL     1      -4.504   3.351   8.525  0.00  0.00    +0.022 C 
ATOM     31  C   UNL     1      -6.013   3.507   8.724  0.00  0.00    +0.002 C 
ATOM     32  C   UNL     1      -6.319   4.921   9.222  0.00  0.00    +0.000 C 
ATOM     33  C   UNL     1      -5.602   5.159  10.553  0.00  0.00    +0.002 C 
ATOM     34  C   UNL     1      -4.093   5.004  10.354  0.00  0.00    +0.022 C 
ENDBRANCH  27  29
ENDBRANCH  24  25
ENDBRANCH   7  24
TORSDOF 7
