REMARK  Name = ZINC16137595
REMARK  1 active torsions:
REMARK  status: ('A' for Active; 'I' for Inactive)
REMARK    1  A    between atoms: N_11  and  N_14
REMARK                            x       y       z     vdW  Elec       q    Type
REMARK                         _______ _______ _______ _____ _____    ______ ____
ROOT
ATOM      1  C   UNL     1      -0.019   1.527   0.010  0.00  0.00    +0.040 C 
ATOM      2  C   UNL     1       1.341   2.135   0.001  0.00  0.00    -0.030 C 
ATOM      3  C   UNL     1       2.424   1.517  -0.333  0.00  0.00    -0.030 C 
ATOM      4  C   UNL     1       2.461   0.071  -0.712  0.00  0.00    +0.040 C 
ATOM      5  C   UNL     1       1.110  -0.529  -0.925  0.00  0.00    +0.093 C 
ATOM      6  C   UNL     1       0.002  -0.004   0.002  0.00  0.00    +0.093 C 
ATOM      7  C   UNL     1      -1.223  -0.409  -0.834  0.00  0.00    +0.240 C 
ATOM      8  O   UNL     1      -2.333  -0.655  -0.411  0.00  0.00    -0.274 OA
ATOM      9  N   UNL     1      -0.834  -0.441  -2.123  0.00  0.00    -0.175 N 
ATOM     10  C   UNL     1       0.499  -0.359  -2.287  0.00  0.00    +0.240 C 
ATOM     11  O   UNL     1       1.088  -0.192  -3.333  0.00  0.00    -0.274 OA
ENDROOT
BRANCH   9  12
ATOM     12  N   UNL     1      -1.713  -0.532  -3.165  0.00  0.00    -0.245 NA
ATOM     13  H   UNL     1      -1.226  -0.542  -4.049  0.00  0.00    +0.141 HD
ATOM     14  H   UNL     1      -2.304  -1.345  -3.069  0.00  0.00    +0.141 HD
ENDBRANCH   9  12
TORSDOF 1
