REMARK  Name = ZINC35097084
REMARK  12 active torsions:
REMARK  status: ('A' for Active; 'I' for Inactive)
REMARK    1  A    between atoms: C_1  and  C_2
REMARK    2  A    between atoms: C_2  and  C_38
REMARK    3  A    between atoms: C_7  and  C_11
REMARK    4  A    between atoms: C_11  and  N_12
REMARK    5  A    between atoms: N_12  and  C_13
REMARK    6  A    between atoms: C_13  and  C_14
REMARK    7  A    between atoms: C_14  and  N_15
REMARK    8  A    between atoms: C_21  and  C_23
REMARK    9  A    between atoms: C_23  and  C_24
REMARK   10  A    between atoms: C_23  and  C_25
REMARK   11  A    between atoms: C_23  and  C_26
REMARK   12  A    between atoms: N_30  and  C_31
REMARK                            x       y       z     vdW  Elec       q    Type
REMARK                         _______ _______ _______ _____ _____    ______ ____
ROOT
ATOM      1  N   UNL     1       2.095   0.851   4.706  0.00  0.00    -0.280 N 
ATOM      2  C   UNL     1       2.862   1.959   4.707  0.00  0.00    +0.307 C 
ATOM      3  O   UNL     1       2.458   2.978   5.232  0.00  0.00    -0.252 OA
ATOM      4  N   UNL     1       4.079   1.937   4.127  0.00  0.00    -0.269 N 
ATOM      5  H   UNL     1       4.375   1.145   3.652  0.00  0.00    +0.156 HD
ENDROOT
BRANCH   4   6
ATOM      6  C   UNL     1       4.914   3.058   4.209  0.00  0.00    +0.035 A 
ATOM      7  C   UNL     1       6.287   2.894   4.331  0.00  0.00    +0.025 A 
ATOM      8  C   UNL     1       7.109   4.001   4.412  0.00  0.00    +0.022 A 
ATOM      9  C   UNL     1       6.565   5.272   4.372  0.00  0.00    +0.041 A 
ATOM     10  C   UNL     1       5.197   5.438   4.250  0.00  0.00    +0.022 A 
ATOM     11  C   UNL     1       4.371   4.335   4.163  0.00  0.00    +0.025 A 
ATOM     12 CL   UNL     1       7.601   6.662   4.473  0.00  0.00    -0.084 Cl
ENDBRANCH   4   6
BRANCH   1  13
ATOM     13  C   UNL     1       2.583  -0.377   4.074  0.00  0.00    +0.140 C 
BRANCH  13  19
ATOM     14  C   UNL     1       0.446   1.507   1.417  0.00  0.00    +0.012 C 
ATOM     15  C   UNL     1       0.158   0.027   1.158  0.00  0.00    -0.025 C 
ATOM     16  C   UNL     1       1.125  -0.631   0.153  0.00  0.00    -0.000 C 
ATOM     17  C   UNL     1       2.520   0.004   0.242  0.00  0.00    +0.031 C 
ATOM     18  C   UNL     1       2.976   0.031   1.680  0.00  0.00    -0.025 C 
ATOM     19  C   UNL     1       2.169  -0.395   2.625  0.00  0.00    -0.053 C 
ATOM     20  C   UNL     1       0.787  -0.921   2.196  0.00  0.00    +0.022 C 
ATOM     21  C   UNL     1       0.970  -1.899   1.009  0.00  0.00    +0.012 C 
ATOM     22  C   UNL     1      -1.319  -0.256   0.877  0.00  0.00    +0.012 C 
ENDBRANCH  13  19
ENDBRANCH   1  13
BRANCH   1  23
ATOM     23  C   UNL     1       0.773   0.875   5.337  0.00  0.00    +0.125 C 
BRANCH  23  24
ATOM     24  C   UNL     1       0.903   0.474   6.808  0.00  0.00    +0.103 C 
BRANCH  24  25
ATOM     25  N   UNL     1      -0.423   0.498   7.441  0.00  0.00    -0.298 NA
ATOM     26  C   UNL     1      -0.958   1.865   7.490  0.00  0.00    +0.103 C 
ATOM     27  C   UNL     1      -2.407   1.825   7.987  0.00  0.00    +0.123 C 
ATOM     28  N   UNL     1      -2.443   1.097   9.265  0.00  0.00    -0.299 N 
ATOM     29  C   UNL     1      -1.803  -0.226   9.329  0.00  0.00    +0.123 C 
ATOM     30  C   UNL     1      -0.378  -0.106   8.779  0.00  0.00    +0.103 C 
ATOM     31  C   UNL     1      -3.046   1.627  10.347  0.00  0.00    +0.222 C 
ATOM     32  O   UNL     1      -3.489   2.755  10.302  0.00  0.00    -0.275 OA
BRANCH  31  33
ATOM     33  C   UNL     1      -3.169   0.819  11.613  0.00  0.00    +0.055 C 
ATOM     34  C   UNL     1      -3.796  -0.539  11.292  0.00  0.00    +0.022 C 
ATOM     35  C   UNL     1      -1.781   0.610  12.221  0.00  0.00    +0.022 C 
BRANCH  33  36
ATOM     36  C   UNL     1      -4.055   1.567  12.611  0.00  0.00    +0.124 C 
ATOM     37 CL   UNL     1      -4.203   0.600  14.126  0.00  0.00    -0.124 Cl
ENDBRANCH  33  36
ENDBRANCH  31  33
ENDBRANCH  24  25
ENDBRANCH  23  24
ENDBRANCH   1  23
TORSDOF 8
