REMARK  Name = ZINC49570791
REMARK  4 active torsions:
REMARK  status: ('A' for Active; 'I' for Inactive)
REMARK    1  A    between atoms: C_2  and  S_9
REMARK    2  A    between atoms: N_7  and  N_8
REMARK    3  A    between atoms: S_9  and  N_12
REMARK    4  A    between atoms: N_12  and  C_13
REMARK                            x       y       z     vdW  Elec       q    Type
REMARK                         _______ _______ _______ _____ _____    ______ ____
ROOT
ATOM      1  S   UNL     1       1.208   3.773   0.010  0.00  0.00    +0.061 S 
ATOM      2  O   UNL     1       2.453   4.166  -0.550  0.00  0.00    -0.153 OA
ATOM      3  O   UNL     1      -0.037   4.198  -0.527  0.00  0.00    -0.153 OA
ENDROOT
BRANCH   1   5
ATOM      4  C   UNL     1      -0.016   1.319   0.009  0.00  0.00    +0.144 A 
ATOM      5  C   UNL     1       1.185   2.011   0.002  0.00  0.00    +0.141 A 
ATOM      6  C   UNL     1       2.367   1.288  -0.014  0.00  0.00    +0.144 A 
ATOM      7  N   UNL     1       2.314  -0.034  -0.020  0.00  0.00    -0.220 NA
ATOM      8  C   UNL     1       1.150  -0.666  -0.013  0.00  0.00    +0.229 A 
ATOM      9  N   UNL     1       0.002  -0.004   0.002  0.00  0.00    -0.220 NA
ATOM     10  N   UNL     1       1.132  -2.050  -0.020  0.00  0.00    -0.252 N 
ATOM     11  H   UNL     1       1.966  -2.546  -0.031  0.00  0.00    +0.169 HD
BRANCH  10  12
ATOM     12  N   UNL     1      -0.060  -2.717  -0.012  0.00  0.00    -0.254 NA
ATOM     13  H   UNL     1      -0.640  -2.430  -0.787  0.00  0.00    +0.140 HD
ATOM     14  H   UNL     1       0.085  -3.716  -0.019  0.00  0.00    +0.140 HD
ENDBRANCH  10  12
ENDBRANCH   1   5
BRANCH   1  15
ATOM     15  N   UNL     1       1.229   4.255   1.595  0.00  0.00    -0.188 NA
ATOM     16  H   UNL     1       0.477   4.745   1.962  0.00  0.00    +0.148 HD
BRANCH  15  17
ATOM     17  C   UNL     1       2.383   3.940   2.440  0.00  0.00    +0.061 C 
ATOM     18  C   UNL     1       3.333   5.163   2.560  0.00  0.00    +0.000 C 
ATOM     19  C   UNL     1       3.799   5.165   4.037  0.00  0.00    -0.077 C 
ATOM     20  N   UNL     1       3.219   3.964   4.642  0.00  0.00    +0.383 N 
ATOM     21  C   UNL     1       1.951   3.726   3.901  0.00  0.00    -0.050 C 
ATOM     22  C   UNL     1       1.507   2.301   4.204  0.00  0.00    -0.014 C 
ATOM     23  C   UNL     1       1.209   2.221   5.710  0.00  0.00    -0.003 C 
ATOM     24  C   UNL     1       2.424   2.667   6.523  0.00  0.00    -0.019 C 
ATOM     25  C   UNL     1       2.910   4.051   6.062  0.00  0.00    -0.078 C 
ATOM     26  H   UNL     1       3.835   3.181   4.482  0.00  0.00    -0.081 HD
ENDBRANCH  15  17
ENDBRANCH   1  15
TORSDOF 4
