REMARK  Name = ZINC08450281
REMARK  10 active torsions:
REMARK  status: ('A' for Active; 'I' for Inactive)
REMARK    1  A    between atoms: C_1  and  C_2
REMARK    2  A    between atoms: C_3  and  C_31
REMARK    3  A    between atoms: C_4  and  C_16
REMARK    4  A    between atoms: C_10  and  C_14
REMARK    5  A    between atoms: C_10  and  C_15
REMARK    6  A    between atoms: C_19  and  C_21
REMARK    7  A    between atoms: C_21  and  O_22
REMARK    8  A    between atoms: O_22  and  C_23
REMARK    9  A    between atoms: C_26  and  O_29
REMARK   10  A    between atoms: O_29  and  C_30
REMARK                            x       y       z     vdW  Elec       q    Type
REMARK                         _______ _______ _______ _____ _____    ______ ____
ROOT
ATOM      1  C   UNL     1      -0.018   1.502   0.015  0.00  0.00    +0.061 C 
ATOM      2  C   UNL     1       0.002  -0.004   0.007  0.00  0.00    +0.014 C 
ATOM      3  C   UNL     1      -1.155  -0.687   0.007  0.00  0.00    +0.046 C 
ATOM      4  C   UNL     1      -1.174  -2.188  -0.009  0.00  0.00    +0.126 C 
ATOM      5  C   UNL     1       0.163  -2.750   0.405  0.00  0.00    +0.027 C 
ATOM      6  C   UNL     1       1.271  -1.979   0.384  0.00  0.00    +0.016 C 
ATOM      7  N   UNL     1       1.198  -0.668  -0.006  0.00  0.00    -0.321 N 
ATOM      8  C   UNL     1       2.615  -2.540   0.778  0.00  0.00    +0.058 C 
ATOM      9  C   UNL     1       2.426  -3.634   1.832  0.00  0.00    -0.023 C 
ATOM     10  C   UNL     1       1.518  -4.721   1.247  0.00  0.00    +0.086 C 
ATOM     11  C   UNL     1       0.222  -4.094   0.812  0.00  0.00    +0.162 C 
ATOM     12  O   UNL     1      -0.794  -4.762   0.812  0.00  0.00    -0.292 OA
ATOM     13  C   UNL     1       3.784  -4.239   2.194  0.00  0.00    +0.011 C 
ATOM     14  C   UNL     1       1.775  -3.038   3.081  0.00  0.00    +0.011 C 
ATOM     15  H   UNL     1       2.001  -0.204  -0.291  0.00  0.00    +0.152 HD
ENDROOT
BRANCH   3  16
ATOM     16  C   UNL     1      -2.380   0.023   0.023  0.00  0.00    +0.248 C 
ATOM     17  O   UNL     1      -2.378   1.240   0.037  0.00  0.00    -0.270 OA
ATOM     18  N   UNL     1      -3.548  -0.649   0.024  0.00  0.00    -0.267 N 
ATOM     19  C   UNL     1      -4.750   0.044   0.146  0.00  0.00    +0.125 A 
ATOM     20  C   UNL     1      -5.944  -0.661   0.253  0.00  0.00    +0.044 A 
ATOM     21  C   UNL     1      -7.131   0.039   0.374  0.00  0.00    +0.005 A 
ATOM     22  C   UNL     1      -7.083   1.427   0.385  0.00  0.00    +0.020 A 
ATOM     23  C   UNL     1      -5.862   2.062   0.275  0.00  0.00    +0.113 A 
ATOM     24  N   UNL     1      -4.745   1.367   0.166  0.00  0.00    -0.240 NA
ATOM     25  H   UNL     1      -3.552  -1.615  -0.061  0.00  0.00    +0.157 HD
ENDBRANCH   3  16
BRANCH   4  26
ATOM     26  C   UNL     1      -1.500  -2.663  -1.401  0.00  0.00    +0.117 A 
ATOM     27  C   UNL     1      -2.561  -3.416  -1.746  0.00  0.00    +0.046 A 
ATOM     28  C   UNL     1      -2.477  -3.626  -3.142  0.00  0.00    +0.048 A 
ATOM     29  C   UNL     1      -1.370  -2.990  -3.566  0.00  0.00    +0.142 A 
ATOM     30  O   UNL     1      -0.786  -2.404  -2.508  0.00  0.00    -0.460 OA
BRANCH  29  31
ATOM     31  C   UNL     1      -0.873  -2.939  -4.987  0.00  0.00    +0.303 C 
BRANCH  31  32
ATOM     32  O   UNL     1      -1.439  -1.806  -5.649  0.00  0.00    -0.484 OA
BRANCH  32  33
ATOM     33  C   UNL     1      -1.090  -1.612  -6.949  0.00  0.00    +0.121 A 
ATOM     34  C   UNL     1      -0.225  -2.498  -7.574  0.00  0.00    +0.049 A 
ATOM     35  C   UNL     1       0.130  -2.302  -8.895  0.00  0.00    +0.049 A 
ATOM     36  C   UNL     1      -0.379  -1.219  -9.596  0.00  0.00    +0.120 A 
ATOM     37  C   UNL     1      -1.245  -0.333  -8.971  0.00  0.00    +0.049 A 
ATOM     38  C   UNL     1      -1.603  -0.532  -7.652  0.00  0.00    +0.049 A 
BRANCH  36  39
ATOM     39  O   UNL     1      -0.029  -1.025 -10.896  0.00  0.00    -0.495 OA
ATOM     40  C   UNL     1      -0.591   0.111 -11.556  0.00  0.00    +0.277 C 
ENDBRANCH  36  39
ENDBRANCH  32  33
ENDBRANCH  31  32
ENDBRANCH  29  31
ENDBRANCH   4  26
TORSDOF 6
