REMARK  Name = ZINC18105822
REMARK  10 active torsions:
REMARK  status: ('A' for Active; 'I' for Inactive)
REMARK    1  A    between atoms: C_1  and  C_2
REMARK    2  A    between atoms: C_3  and  N_9
REMARK    3  A    between atoms: C_10  and  C_12
REMARK    4  A    between atoms: C_12  and  C_13
REMARK    5  A    between atoms: C_13  and  C_14
REMARK    6  A    between atoms: N_16  and  N_17
REMARK    7  A    between atoms: N_17  and  C_18
REMARK    8  A    between atoms: C_20  and  O_21
REMARK    9  A    between atoms: C_23  and  C_25
REMARK   10  A    between atoms: C_23  and  C_26
REMARK                            x       y       z     vdW  Elec       q    Type
REMARK                         _______ _______ _______ _____ _____    ______ ____
ROOT
ATOM      1  C   UNL     1       0.398  -0.110  -7.338  0.00  0.00    +0.229 C 
ATOM      2  O   UNL     1       0.381   1.103  -7.329  0.00  0.00    -0.274 OA
ATOM      3  N   UNL     1       0.503  -0.774  -8.506  0.00  0.00    -0.236 N 
ATOM      4  H   UNL     1       0.517  -1.744  -8.512  0.00  0.00    +0.173 HD
ENDROOT
BRANCH   3   5
ATOM      5  N   UNL     1       0.593  -0.064  -9.710  0.00  0.00    -0.265 N 
ATOM      6  H   UNL     1       0.580   0.906  -9.703  0.00  0.00    +0.170 HD
BRANCH   5   7
ATOM      7  C   UNL     1       0.702  -0.752 -10.919  0.00  0.00    +0.044 C 
ATOM      8  C   UNL     1       0.797  -0.009 -12.188  0.00  0.00    +0.065 C 
ATOM      9  C   UNL     1       0.515  -0.627 -13.338  0.00  0.00    +0.097 C 
ATOM     10  C   UNL     1       0.100  -2.075 -13.338  0.00  0.00    +0.084 C 
ATOM     11  C   UNL     1       0.843  -2.831 -12.238  0.00  0.00    -0.008 C 
ATOM     12  C   UNL     1       0.727  -2.090 -10.933  0.00  0.00    +0.004 C 
ATOM     13  C   UNL     1       2.321  -2.955 -12.616  0.00  0.00    +0.016 C 
ATOM     14  C   UNL     1       0.240  -4.229 -12.087  0.00  0.00    +0.016 C 
BRANCH   9  15
ATOM     15  O   UNL     1       0.603   0.050 -14.508  0.00  0.00    -0.511 OA
ATOM     16  H   UNL     1       0.877   0.972 -14.409  0.00  0.00    +0.292 HD
ENDBRANCH   9  15
ENDBRANCH   5   7
ENDBRANCH   3   5
BRANCH   1  17
ATOM     17  C   UNL     1       0.301  -0.874  -6.042  0.00  0.00    +0.106 C 
BRANCH  17  18
ATOM     18  C   UNL     1       0.192   0.111  -4.876  0.00  0.00    +0.105 C 
BRANCH  18  20
ATOM     19  N   UNL     1      -0.010   0.011  -2.413  0.00  0.00    -0.285 N 
ATOM     20  C   UNL     1       0.095  -0.653  -3.581  0.00  0.00    +0.218 C 
ATOM     21  O   UNL     1       0.112  -1.866  -3.590  0.00  0.00    -0.275 OA
ATOM     22  H   UNL     1      -0.104   0.977  -2.411  0.00  0.00    +0.155 HD
BRANCH  19  25
ATOM     23  C   UNL     1      -1.263   1.190  -0.146  0.00  0.00    +0.047 C 
ATOM     24  C   UNL     1      -0.583  -0.153  -0.073  0.00  0.00    -0.011 A 
ATOM     25  C   UNL     1       0.017  -0.692  -1.204  0.00  0.00    +0.038 A 
ATOM     26  C   UNL     1       0.643  -1.929  -1.132  0.00  0.00    +0.023 A 
ATOM     27  C   UNL     1       0.667  -2.621   0.064  0.00  0.00    +0.003 A 
ATOM     28  C   UNL     1       0.069  -2.084   1.188  0.00  0.00    +0.020 A 
ATOM     29  C   UNL     1      -0.550  -0.848   1.122  0.00  0.00    +0.046 A 
ATOM     30 CL   UNL     1      -1.293  -0.173   2.538  0.00  0.00    -0.083 Cl
ENDBRANCH  19  25
ENDBRANCH  18  20
ENDBRANCH  17  18
ENDBRANCH   1  17
TORSDOF 7
