REMARK  Name = ZINC58960228
REMARK  9 active torsions:
REMARK  status: ('A' for Active; 'I' for Inactive)
REMARK    1  A    between atoms: C_1  and  C_2
REMARK    2  A    between atoms: C_2  and  C_3
REMARK    3  A    between atoms: C_6  and  C_9
REMARK    4  A    between atoms: C_11  and  C_27
REMARK    5  A    between atoms: C_13  and  S_15
REMARK    6  A    between atoms: S_15  and  C_16
REMARK    7  A    between atoms: C_16  and  C_17
REMARK    8  A    between atoms: N_19  and  N_20
REMARK    9  A    between atoms: N_23  and  C_26
REMARK                            x       y       z     vdW  Elec       q    Type
REMARK                         _______ _______ _______ _____ _____    ______ ____
ROOT
ATOM      1  C   UNL     1       2.787  -1.912   4.667  0.00  0.00    +0.076 A 
ATOM      2  C   UNL     1       2.092  -2.175   5.851  0.00  0.00    +0.060 A 
ATOM      3  C   UNL     1       2.803  -2.632   6.946  0.00  0.00    +0.148 A 
ATOM      4  N   UNL     1       4.111  -2.806   6.842  0.00  0.00    -0.218 NA
ATOM      5  C   UNL     1       4.745  -2.548   5.707  0.00  0.00    +0.190 A 
ATOM      6  N   UNL     1       4.102  -2.115   4.633  0.00  0.00    -0.222 NA
ENDROOT
BRANCH   1  10
ATOM      7  C   UNL     1       0.731  -0.503   1.223  0.00  0.00    -0.048 A 
ATOM      8  C   UNL     1       2.098  -0.709   1.173  0.00  0.00    +0.004 A 
ATOM      9  C   UNL     1       2.771  -1.166   2.288  0.00  0.00    +0.010 A 
ATOM     10  C   UNL     1       2.070  -1.420   3.466  0.00  0.00    +0.001 A 
ATOM     11  C   UNL     1       0.693  -1.211   3.510  0.00  0.00    +0.010 A 
ATOM     12  C   UNL     1       0.031  -0.749   2.391  0.00  0.00    +0.004 A 
BRANCH   7  14
ATOM     13  C   UNL     1      -0.019   1.526   0.010  0.00  0.00    +0.009 C 
ATOM     14  C   UNL     1       0.002  -0.004   0.002  0.00  0.00    +0.032 C 
ENDBRANCH   7  14
ENDBRANCH   1  10
BRANCH   3  15
ATOM     15  C   UNL     1       2.096  -2.929   8.243  0.00  0.00    +0.434 C 
ATOM     16  F   UNL     1       1.681  -4.264   8.253  0.00  0.00    -0.164 F 
ATOM     17  F   UNL     1       2.970  -2.704   9.312  0.00  0.00    -0.164 F 
ATOM     18  F   UNL     1       0.982  -2.092   8.369  0.00  0.00    -0.164 F 
ENDBRANCH   3  15
BRANCH   5  19
ATOM     19  S   UNL     1       6.488  -2.796   5.622  0.00  0.00    -0.077 S 
BRANCH  19  20
ATOM     20  C   UNL     1       6.928  -3.387   7.279  0.00  0.00    +0.174 C 
BRANCH  20  21
ATOM     21  C   UNL     1       8.412  -3.641   7.344  0.00  0.00    +0.237 C 
ATOM     22  O   UNL     1       9.105  -3.443   6.368  0.00  0.00    -0.274 OA
ATOM     23  N   UNL     1       8.970  -4.089   8.486  0.00  0.00    -0.248 N 
ATOM     24  H   UNL     1       8.417  -4.247   9.267  0.00  0.00    +0.169 HD
BRANCH  23  25
ATOM     25  N   UNL     1      10.316  -4.319   8.544  0.00  0.00    -0.231 NA
ATOM     26  C   UNL     1      10.597  -5.742   8.782  0.00  0.00    +0.087 C 
ATOM     27  C   UNL     1      12.110  -5.967   8.781  0.00  0.00    -0.062 C 
ATOM     28  N   UNL     1      12.728  -5.147   9.831  0.00  0.00    +0.380 N 
ATOM     29  C   UNL     1      12.460  -3.727   9.567  0.00  0.00    -0.062 C 
ATOM     30  C   UNL     1      10.949  -3.483   9.574  0.00  0.00    +0.087 C 
ATOM     31  C   UNL     1      14.179  -5.377   9.842  0.00  0.00    -0.096 C 
ATOM     32  H   UNL     1      12.341  -5.401  10.728  0.00  0.00    -0.082 HD
ENDBRANCH  23  25
ENDBRANCH  20  21
ENDBRANCH  19  20
ENDBRANCH   5  19
TORSDOF 7
