REMARK  Name = ZINC12390524
REMARK  7 active torsions:
REMARK  status: ('A' for Active; 'I' for Inactive)
REMARK    1  A    between atoms: C_1  and  N_50
REMARK    2  A    between atoms: C_2  and  N_50
REMARK    3  A    between atoms: C_3  and  C_4
REMARK    4  A    between atoms: C_3  and  N_50
REMARK    5  A    between atoms: C_4  and  N_5
REMARK    6  A    between atoms: C_6  and  C_8
REMARK    7  A    between atoms: C_8  and  N_9
REMARK                            x       y       z     vdW  Elec       q    Type
REMARK                         _______ _______ _______ _____ _____    ______ ____
ROOT
ATOM      1  N   UNL     1       3.828   8.931   1.708  0.00  0.00    -0.291 N 
ATOM      2  C   UNL     1       4.398   7.847   1.145  0.00  0.00    +0.303 C 
ATOM      3  O   UNL     1       5.543   7.549   1.423  0.00  0.00    -0.253 OA
ATOM      4  N   UNL     1       3.697   7.093   0.276  0.00  0.00    -0.280 N 
ATOM      5  C   UNL     1       4.335   5.974  -0.435  0.00  0.00    +0.114 C 
ATOM      6  C   UNL     1       3.672   4.662   0.003  0.00  0.00    +0.056 C 
ATOM      7  C   UNL     1       2.177   4.850   0.010  0.00  0.00    -0.016 A 
ATOM      8  C   UNL     1       1.147   3.816   0.013  0.00  0.00    +0.005 A 
ATOM      9  C   UNL     1       1.168   2.419   0.003  0.00  0.00    +0.030 A 
ATOM     10  C   UNL     1      -0.007   1.722   0.012  0.00  0.00    +0.042 A 
ATOM     11  C   UNL     1      -1.225   2.391   0.026  0.00  0.00    +0.022 A 
ATOM     12  C   UNL     1      -1.268   3.768   0.041  0.00  0.00    +0.027 A 
ATOM     13  C   UNL     1      -0.085   4.498   0.031  0.00  0.00    +0.047 A 
ATOM     14  N   UNL     1       0.196   5.847   0.035  0.00  0.00    -0.356 N 
ATOM     15  H   UNL     1      -0.468   6.554   0.045  0.00  0.00    +0.166 HD
ATOM     16  C   UNL     1       1.547   6.041   0.021  0.00  0.00    +0.038 A 
ATOM     17  C   UNL     1       2.274   7.368   0.013  0.00  0.00    +0.162 C 
ATOM     18 CL   UNL     1       0.021  -0.014  -0.001  0.00  0.00    -0.084 Cl
ATOM     19  H   UNL     1       2.893   9.128   1.543  0.00  0.00    +0.151 HD
ENDROOT
BRANCH   1  20
ATOM     20  C   UNL     1       4.622   9.812   2.568  0.00  0.00    +0.201 C 
BRANCH  20  22
ATOM     21  N   UNL     1       4.276  11.881   3.879  0.00  0.00    -0.316 N 
ATOM     22  C   UNL     1       3.756  10.941   3.066  0.00  0.00    +0.230 C 
ATOM     23  O   UNL     1       2.591  11.003   2.735  0.00  0.00    -0.274 OA
ATOM     24  H   UNL     1       5.208  11.832   4.144  0.00  0.00    +0.149 HD
BRANCH  21  25
ATOM     25  C   UNL     1       3.435  12.978   4.364  0.00  0.00    +0.085 C 
BRANCH  25  26
ATOM     26  C   UNL     1       4.263  13.899   5.262  0.00  0.00    -0.061 C 
BRANCH  26  29
ATOM     27  C   UNL     1       4.106  15.767   6.794  0.00  0.00    -0.097 C 
ATOM     28  C   UNL     1       3.004  15.871   4.641  0.00  0.00    -0.097 C 
ATOM     29  N   UNL     1       3.396  14.987   5.759  0.00  0.00    +0.377 N 
ATOM     30  H   UNL     1       2.550  14.577   6.172  0.00  0.00    -0.083 HD
ENDBRANCH  26  29
ENDBRANCH  25  26
ENDBRANCH  21  25
ENDBRANCH  20  22
ENDBRANCH   1  20
TORSDOF 5
