REMARK  Name = ZINC02686509
REMARK  10 active torsions:
REMARK  status: ('A' for Active; 'I' for Inactive)
REMARK    1  A    between atoms: C_5  and  C_7
REMARK    2  A    between atoms: C_7  and  N_8
REMARK    3  A    between atoms: C_9  and  C_11
REMARK    4  A    between atoms: C_11  and  C_12
REMARK    5  A    between atoms: C_12  and  N_13
REMARK    6  A    between atoms: N_22  and  C_25
REMARK    7  A    between atoms: C_25  and  C_26
REMARK    8  A    between atoms: N_28  and  C_29
REMARK    9  A    between atoms: C_29  and  C_30
REMARK   10  A    between atoms: C_30  and  C_31
REMARK                            x       y       z     vdW  Elec       q    Type
REMARK                         _______ _______ _______ _____ _____    ______ ____
ROOT
ATOM      1  N   UNL     1      -0.020   1.094   2.454  0.00  0.00    -0.260 N 
ATOM      2  C   UNL     1      -0.370  -0.093   2.995  0.00  0.00    +0.264 A 
ATOM      3  O   UNL     1      -1.263  -0.761   2.510  0.00  0.00    -0.267 OA
ATOM      4  C   UNL     1       0.362  -0.561   4.185  0.00  0.00    +0.063 A 
ATOM      5  C   UNL     1       0.065  -1.776   4.798  0.00  0.00    +0.015 A 
ATOM      6  C   UNL     1       0.776  -2.167   5.913  0.00  0.00    +0.001 A 
ATOM      7  C   UNL     1       1.780  -1.358   6.424  0.00  0.00    +0.002 A 
ATOM      8  C   UNL     1       2.084  -0.151   5.826  0.00  0.00    +0.027 A 
ATOM      9  C   UNL     1       1.380   0.258   4.704  0.00  0.00    +0.059 A 
ATOM     10  N   UNL     1       1.655   1.462   4.073  0.00  0.00    -0.284 N 
ATOM     11  C   UNL     1       0.960   1.840   2.986  0.00  0.00    +0.333 A 
ATOM     12  O   UNL     1       1.232   2.903   2.462  0.00  0.00    -0.246 OA
ENDROOT
BRANCH   1  13
ATOM     13  C   UNL     1      -0.729   1.579   1.267  0.00  0.00    +0.139 C 
BRANCH  13  14
ATOM     14  C   UNL     1      -0.013   1.086   0.008  0.00  0.00    +0.117 C 
BRANCH  14  16
ATOM     15  N   UNL     1      -0.288   1.272  -2.443  0.00  0.00    -0.311 N 
ATOM     16  C   UNL     1      -0.742   1.585  -1.213  0.00  0.00    +0.215 C 
ATOM     17  O   UNL     1      -1.736   2.268  -1.088  0.00  0.00    -0.276 OA
ATOM     18  H   UNL     1       0.507   0.726  -2.543  0.00  0.00    +0.149 HD
BRANCH  15  19
ATOM     19  C   UNL     1      -0.997   1.758  -3.630  0.00  0.00    +0.141 C 
BRANCH  19  24
ATOM     20  C   UNL     1       1.204   1.672  -6.696  0.00  0.00    +0.000 A 
ATOM     21  C   UNL     1       1.002   0.380  -7.146  0.00  0.00    +0.001 A 
ATOM     22  C   UNL     1       0.153  -0.466  -6.458  0.00  0.00    +0.020 A 
ATOM     23  C   UNL     1      -0.495  -0.021  -5.320  0.00  0.00    +0.046 A 
ATOM     24  C   UNL     1      -0.292   1.272  -4.870  0.00  0.00    -0.012 A 
ATOM     25  C   UNL     1       0.554   2.119  -5.561  0.00  0.00    +0.006 A 
ATOM     26 CL   UNL     1      -1.562  -1.083  -4.456  0.00  0.00    -0.083 Cl
ENDBRANCH  19  24
ENDBRANCH  15  19
ENDBRANCH  14  16
ENDBRANCH  13  14
ENDBRANCH   1  13
BRANCH  10  27
ATOM     27  C   UNL     1       2.712   2.331   4.596  0.00  0.00    +0.222 C 
BRANCH  27  28
ATOM     28  C   UNL     1       2.126   3.282   5.608  0.00  0.00    +0.233 C 
ATOM     29  O   UNL     1       0.942   3.238   5.867  0.00  0.00    -0.274 OA
ATOM     30  N   UNL     1       2.918   4.181   6.226  0.00  0.00    -0.314 N 
ATOM     31  H   UNL     1       3.865   4.216   6.019  0.00  0.00    +0.149 HD
BRANCH  30  32
ATOM     32  C   UNL     1       2.348   5.105   7.210  0.00  0.00    +0.108 C 
BRANCH  32  33
ATOM     33  C   UNL     1       3.453   6.012   7.756  0.00  0.00    +0.049 C 
BRANCH  33  34
ATOM     34  C   UNL     1       2.867   6.963   8.768  0.00  0.00    -0.072 C 
ATOM     35  C   UNL     1       2.929   6.633  10.018  0.00  0.00    -0.028 C 
ATOM     36  C   UNL     1       2.383   7.470  11.137  0.00  0.00    +0.027 C 
ATOM     37  C   UNL     1       2.144   8.903  10.655  0.00  0.00    +0.004 C 
ATOM     38  C   UNL     1       1.353   8.848   9.343  0.00  0.00    +0.005 C 
ATOM     39  C   UNL     1       2.252   8.236   8.264  0.00  0.00    +0.030 C 
ENDBRANCH  33  34
ENDBRANCH  32  33
ENDBRANCH  30  32
ENDBRANCH  27  28
ENDBRANCH  10  27
TORSDOF 10
