REMARK  Name = ZINC60156021
REMARK  12 active torsions:
REMARK  status: ('A' for Active; 'I' for Inactive)
REMARK    1  A    between atoms: C_1  and  C_2
REMARK    2  A    between atoms: C_5  and  C_8
REMARK    3  A    between atoms: C_8  and  C_10
REMARK    4  A    between atoms: C_8  and  N_30
REMARK    5  A    between atoms: C_10  and  N_11
REMARK    6  A    between atoms: C_12  and  C_14
REMARK    7  A    between atoms: C_18  and  S_20
REMARK    8  A    between atoms: S_20  and  N_23
REMARK    9  A    between atoms: N_23  and  C_24
REMARK   10  A    between atoms: C_24  and  C_25
REMARK   11  A    between atoms: N_30  and  C_31
REMARK   12  A    between atoms: N_30  and  C_32
REMARK                            x       y       z     vdW  Elec       q    Type
REMARK                         _______ _______ _______ _____ _____    ______ ____
ROOT
ATOM      1  N   UNL     1      -1.116  -6.359   0.374  0.00  0.00    -0.313 N 
ATOM      2  C   UNL     1      -2.198  -7.131   0.595  0.00  0.00    +0.244 C 
ATOM      3  O   UNL     1      -3.280  -6.617   0.800  0.00  0.00    -0.270 OA
ATOM      4  H   UNL     1      -0.252  -6.769   0.210  0.00  0.00    +0.149 HD
ENDROOT
BRANCH   2   5
ATOM      5  C   UNL     1      -2.068  -8.604   0.586  0.00  0.00    +0.039 A 
ATOM      6  C   UNL     1      -0.826  -9.197   0.356  0.00  0.00    +0.013 A 
ATOM      7  C   UNL     1      -0.712 -10.572   0.350  0.00  0.00    +0.003 A 
ATOM      8  C   UNL     1      -1.826 -11.363   0.572  0.00  0.00    +0.028 A 
ATOM      9  C   UNL     1      -3.060 -10.781   0.800  0.00  0.00    +0.106 A 
ATOM     10  C   UNL     1      -3.186  -9.407   0.815  0.00  0.00    +0.041 A 
BRANCH   9  11
ATOM     11  S   UNL     1      -4.472 -11.797   1.080  0.00  0.00    +0.059 S 
ATOM     12  O   UNL     1      -5.608 -11.020   0.727  0.00  0.00    -0.153 OA
ATOM     13  O   UNL     1      -4.193 -13.055   0.480  0.00  0.00    -0.153 OA
BRANCH  11  14
ATOM     14  N   UNL     1      -4.568 -12.062   2.712  0.00  0.00    -0.185 NA
ATOM     15  H   UNL     1      -4.456 -12.959   3.065  0.00  0.00    +0.148 HD
BRANCH  14  16
ATOM     16  C   UNL     1      -4.824 -10.943   3.622  0.00  0.00    +0.148 C 
BRANCH  16  17
ATOM     17  C   UNL     1      -5.228 -11.476   4.973  0.00  0.00    +0.005 A 
ATOM     18  C   UNL     1      -4.447 -11.784   6.037  0.00  0.00    +0.012 A 
ATOM     19  C   UNL     1      -5.042 -12.264   7.189  0.00  0.00    +0.008 A 
ATOM     20  C   UNL     1      -6.389 -12.412   7.220  0.00  0.00    +0.045 A 
ATOM     21  S   UNL     1      -6.859 -11.859   5.589  0.00  0.00    -0.100 S 
ENDBRANCH  16  17
ENDBRANCH  14  16
ENDBRANCH  11  14
ENDBRANCH   9  11
ENDBRANCH   2   5
BRANCH   1  22
ATOM     22  C   UNL     1      -1.244  -4.899   0.382  0.00  0.00    +0.094 C 
BRANCH  22  23
ATOM     23  C   UNL     1       0.090  -4.268  -0.022  0.00  0.00    -0.021 C 
BRANCH  23  28
ATOM     24  C   UNL     1       1.298  -5.663  -5.498  0.00  0.00    +0.044 C 
ATOM     25  C   UNL     1       0.983  -5.299  -4.070  0.00  0.00    -0.050 A 
ATOM     26  C   UNL     1       1.585  -5.987  -3.033  0.00  0.00    +0.003 A 
ATOM     27  C   UNL     1       1.296  -5.653  -1.722  0.00  0.00    +0.002 A 
ATOM     28  C   UNL     1       0.406  -4.631  -1.450  0.00  0.00    -0.059 A 
ATOM     29  C   UNL     1      -0.195  -3.943  -2.487  0.00  0.00    +0.002 A 
ATOM     30  C   UNL     1       0.097  -4.274  -3.797  0.00  0.00    +0.003 A 
ENDBRANCH  23  28
BRANCH  23  31
ATOM     31  N   UNL     1      -0.002  -2.807   0.103  0.00  0.00    +0.382 N 
ATOM     32  C   UNL     1      -0.292  -2.452   1.498  0.00  0.00    -0.096 C 
ATOM     33  C   UNL     1       1.273  -2.200  -0.302  0.00  0.00    -0.096 C 
ATOM     34  H   UNL     1      -0.742  -2.465  -0.492  0.00  0.00    -0.082 HD
ENDBRANCH  23  31
ENDBRANCH  22  23
ENDBRANCH   1  22
TORSDOF 9
