REMARK  Name = ZINC33750351
REMARK  9 active torsions:
REMARK  status: ('A' for Active; 'I' for Inactive)
REMARK    1  A    between atoms: C_1  and  C_2
REMARK    2  A    between atoms: C_2  and  C_3
REMARK    3  A    between atoms: C_3  and  C_5
REMARK    4  A    between atoms: C_3  and  S_14
REMARK    5  A    between atoms: N_7  and  C_8
REMARK    6  A    between atoms: C_8  and  C_9
REMARK    7  A    between atoms: S_14  and  C_15
REMARK    8  A    between atoms: C_19  and  C_23
REMARK    9  A    between atoms: N_26  and  C_27
REMARK                            x       y       z     vdW  Elec       q    Type
REMARK                         _______ _______ _______ _____ _____    ______ ____
ROOT
ATOM      1  C   UNL     1      -2.584   1.521   1.679  0.00  0.00    +0.178 A 
ATOM      2  N   UNL     1      -2.187   2.198   0.626  0.00  0.00    -0.201 NA
ATOM      3  C   UNL     1      -2.406   3.525   0.530  0.00  0.00    +0.187 A 
ATOM      4  C   UNL     1      -3.105   4.190   1.645  0.00  0.00    +0.079 A 
ATOM      5  C   UNL     1      -3.203   5.522   1.309  0.00  0.00    +0.046 A 
ATOM      6  N   UNL     1      -2.629   5.685   0.109  0.00  0.00    -0.279 N 
ATOM      7  N   UNL     1      -2.145   4.457  -0.359  0.00  0.00    -0.153 NA
ATOM      8  H   UNL     1      -2.559   6.528  -0.364  0.00  0.00    +0.189 HD
ATOM      9  C   UNL     1      -3.843   6.603   2.142  0.00  0.00    +0.066 C 
ATOM     10  C   UNL     1      -3.510   3.360   2.777  0.00  0.00    +0.115 A 
ATOM     11  N   UNL     1      -4.166   3.902   3.858  0.00  0.00    -0.344 N 
ATOM     12  N   UNL     1      -3.226   2.059   2.722  0.00  0.00    -0.276 N 
ATOM     13  H   UNL     1      -4.369   4.850   3.878  0.00  0.00    +0.144 HD
ATOM     14  H   UNL     1      -4.427   3.335   4.601  0.00  0.00    +0.144 HD
ENDROOT
BRANCH  12  15
ATOM     15  C   UNL     1      -3.599   1.247   3.772  0.00  0.00    +0.050 A 
ATOM     16  C   UNL     1      -4.949   1.040   4.049  0.00  0.00    +0.027 A 
ATOM     17  C   UNL     1      -5.318   0.225   5.100  0.00  0.00    +0.017 A 
ATOM     18  C   UNL     1      -4.349  -0.384   5.879  0.00  0.00    +0.018 A 
ATOM     19  C   UNL     1      -3.007  -0.181   5.608  0.00  0.00    +0.017 A 
ATOM     20  C   UNL     1      -2.628   0.626   4.555  0.00  0.00    +0.027 A 
ATOM     21 BR   UNL     1      -4.862  -1.498   7.319  0.00  0.00    -0.050 Br
ENDBRANCH  12  15
BRANCH   1  22
ATOM     22  S   UNL     1      -2.255  -0.210   1.718  0.00  0.00    -0.075 S 
BRANCH  22  23
ATOM     23  C   UNL     1      -1.531  -0.556   0.091  0.00  0.00    +0.140 C 
BRANCH  23  24
ATOM     24  C   UNL     1      -2.579  -0.366  -0.975  0.00  0.00    +0.227 C 
ATOM     25  O   UNL     1      -3.755  -0.391  -0.681  0.00  0.00    -0.275 OA
ATOM     26  N   UNL     1      -2.208  -0.168  -2.256  0.00  0.00    -0.307 N 
ATOM     27  H   UNL     1      -1.267  -0.148  -2.491  0.00  0.00    +0.149 HD
BRANCH  26  28
ATOM     28  C   UNL     1      -3.227   0.017  -3.293  0.00  0.00    +0.178 C 
BRANCH  28  29
ATOM     29  C   UNL     1      -2.555   0.218  -4.627  0.00  0.00    +0.122 A 
ATOM     30  C   UNL     1      -2.229  -0.754  -5.498  0.00  0.00    +0.046 A 
ATOM     31  C   UNL     1      -1.622  -0.123  -6.608  0.00  0.00    +0.041 A 
ATOM     32  C   UNL     1      -1.613   1.197  -6.349  0.00  0.00    +0.195 A 
ATOM     33  O   UNL     1      -2.185   1.398  -5.150  0.00  0.00    -0.466 OA
ENDBRANCH  28  29
ENDBRANCH  26  28
ENDBRANCH  23  24
BRANCH  23  35
ATOM     34  C   UNL     1       0.138  -2.155   1.040  0.00  0.00    +0.005 C 
ATOM     35  C   UNL     1      -1.023  -1.999   0.055  0.00  0.00    +0.020 C 
ENDBRANCH  23  35
ENDBRANCH  22  23
ENDBRANCH   1  22
TORSDOF 7
