REMARK  Name = ZINC14548383
REMARK  6 active torsions:
REMARK  status: ('A' for Active; 'I' for Inactive)
REMARK    1  A    between atoms: C_1  and  O_2
REMARK    2  A    between atoms: O_2  and  C_3
REMARK    3  A    between atoms: C_6  and  N_9
REMARK    4  A    between atoms: N_9  and  S_10
REMARK    5  A    between atoms: S_10  and  C_13
REMARK    6  A    between atoms: C_26  and  C_29
REMARK                            x       y       z     vdW  Elec       q    Type
REMARK                         _______ _______ _______ _____ _____    ______ ____
ROOT
ATOM      1  C   UNL     1      -4.253   1.838  -0.596  0.00  0.00    +0.109 A 
ATOM      2  C   UNL     1      -5.378   1.733   0.203  0.00  0.00    +0.030 A 
ATOM      3  C   UNL     1      -5.853   0.485   0.553  0.00  0.00    +0.025 A 
ATOM      4  C   UNL     1      -5.205  -0.658   0.103  0.00  0.00    +0.031 A 
ATOM      5  C   UNL     1      -4.079  -0.558  -0.699  0.00  0.00    -0.018 A 
ATOM      6  C   UNL     1      -3.611   0.703  -1.047  0.00  0.00    +0.034 A 
ATOM      7  C   UNL     1      -3.350  -1.760  -1.210  0.00  0.00    +0.049 C 
ATOM      8  C   UNL     1      -2.055  -1.980  -0.465  0.00  0.00    -0.023 C 
ATOM      9  C   UNL     1      -1.831  -3.263  -0.315  0.00  0.00    -0.030 C 
ATOM     10  C   UNL     1      -2.946  -4.074  -0.947  0.00  0.00    +0.033 C 
ATOM     11  C   UNL     1      -4.134  -3.070  -1.004  0.00  0.00    +0.029 C 
ATOM     12  C   UNL     1      -4.799  -3.070   0.375  0.00  0.00    +0.111 C 
ATOM     13  N   UNL     1      -5.697  -1.915   0.470  0.00  0.00    -0.336 N 
ATOM     14  H   UNL     1      -6.611  -2.020   0.779  0.00  0.00    +0.147 HD
ENDROOT
BRANCH  12  15
ATOM     15  C   UNL     1      -5.589  -4.341   0.555  0.00  0.00    +0.010 A 
ATOM     16  C   UNL     1      -5.248  -5.471   1.222  0.00  0.00    +0.013 A 
ATOM     17  C   UNL     1      -6.144  -6.523   1.258  0.00  0.00    +0.008 A 
ATOM     18  C   UNL     1      -7.332  -6.398   0.617  0.00  0.00    +0.045 A 
ATOM     19  S   UNL     1      -7.213  -4.751  -0.062  0.00  0.00    -0.100 S 
ENDBRANCH  12  15
BRANCH   1  20
ATOM     20  S   UNL     1      -3.641   3.428  -1.043  0.00  0.00    +0.072 S 
ATOM     21  O   UNL     1      -4.759   4.304  -1.059  0.00  0.00    -0.150 OA
ATOM     22  O   UNL     1      -2.807   3.238  -2.178  0.00  0.00    -0.150 OA
BRANCH  20  23
ATOM     23  N   UNL     1      -2.657   3.938   0.187  0.00  0.00    -0.216 N 
ATOM     24  H   UNL     1      -2.894   4.725   0.703  0.00  0.00    +0.174 HD
BRANCH  23  28
ATOM     25  C   UNL     1       0.838   1.844   1.065  0.00  0.00    +0.120 A 
ATOM     26  C   UNL     1       0.781   2.657  -0.057  0.00  0.00    +0.047 A 
ATOM     27  C   UNL     1      -0.375   3.355  -0.346  0.00  0.00    +0.028 A 
ATOM     28  C   UNL     1      -1.483   3.235   0.482  0.00  0.00    +0.048 A 
ATOM     29  C   UNL     1      -1.425   2.421   1.605  0.00  0.00    +0.028 A 
ATOM     30  C   UNL     1      -0.267   1.728   1.896  0.00  0.00    +0.047 A 
BRANCH  25  32
ATOM     31  C   UNL     1       1.968   0.343   2.524  0.00  0.00    +0.277 C 
ATOM     32  O   UNL     1       1.979   1.161   1.353  0.00  0.00    -0.495 OA
ENDBRANCH  25  32
ENDBRANCH  23  28
ENDBRANCH  20  23
ENDBRANCH   1  20
TORSDOF 5
