REMARK  Name = ZINC14742438
REMARK  10 active torsions:
REMARK  status: ('A' for Active; 'I' for Inactive)
REMARK    1  A    between atoms: C_1  and  N_2
REMARK    2  A    between atoms: N_2  and  C_3
REMARK    3  A    between atoms: N_2  and  S_4
REMARK    4  A    between atoms: S_4  and  C_7
REMARK    5  A    between atoms: C_9  and  C_26
REMARK    6  A    between atoms: C_11  and  N_13
REMARK    7  A    between atoms: N_13  and  C_14
REMARK    8  A    between atoms: C_14  and  C_15
REMARK    9  A    between atoms: C_18  and  C_21
REMARK   10  A    between atoms: C_32  and  C_35
REMARK                            x       y       z     vdW  Elec       q    Type
REMARK                         _______ _______ _______ _____ _____    ______ ____
ROOT
ATOM      1  C   UNL     1       1.228   9.548  -1.923  0.00  0.00    +0.108 A 
ATOM      2  C   UNL     1       1.386   8.184  -1.779  0.00  0.00    +0.041 A 
ATOM      3  C   UNL     1       0.273   7.373  -1.547  0.00  0.00    +0.040 A 
ATOM      4  C   UNL     1      -0.996   7.946  -1.465  0.00  0.00    +0.036 A 
ATOM      5  C   UNL     1      -1.143   9.317  -1.606  0.00  0.00    +0.030 A 
ATOM      6  C   UNL     1      -0.029  10.116  -1.837  0.00  0.00    +0.051 A 
ENDROOT
BRANCH   3   7
ATOM      7  C   UNL     1       0.439   5.912  -1.394  0.00  0.00    +0.247 C 
ATOM      8  O   UNL     1       1.247   5.317  -2.081  0.00  0.00    -0.270 OA
ATOM      9  N   UNL     1      -0.305   5.240  -0.493  0.00  0.00    -0.297 N 
ATOM     10  C   UNL     1      -1.208   5.958   0.416  0.00  0.00    +0.108 C 
ATOM     11  C   UNL     1      -0.888   5.544   1.856  0.00  0.00    +0.020 C 
ATOM     12  C   UNL     1      -0.960   4.020   1.973  0.00  0.00    +0.016 C 
ATOM     13  C   UNL     1       0.080   3.386   1.046  0.00  0.00    +0.092 C 
ATOM     14  C   UNL     1      -0.229   3.776  -0.403  0.00  0.00    +0.120 C 
BRANCH  13  15
ATOM     15  C   UNL     1       0.030   1.886   1.185  0.00  0.00    +0.215 C 
ATOM     16  O   UNL     1      -0.759   1.374   1.950  0.00  0.00    -0.276 OA
ATOM     17  N   UNL     1       0.863   1.114   0.459  0.00  0.00    -0.329 N 
ATOM     18  H   UNL     1       0.831   0.149   0.549  0.00  0.00    +0.145 HD
ATOM     19  H   UNL     1       1.492   1.524  -0.156  0.00  0.00    +0.145 HD
ENDBRANCH  13  15
ENDBRANCH   3   7
BRANCH   1  20
ATOM     20  S   UNL     1       2.635  10.568  -2.216  0.00  0.00    +0.060 S 
ATOM     21  O   UNL     1       2.290  11.873  -1.771  0.00  0.00    -0.153 OA
ATOM     22  O   UNL     1       3.760   9.863  -1.711  0.00  0.00    -0.153 OA
BRANCH  20  24
ATOM     23  C   UNL     1       2.174  11.732  -4.614  0.00  0.00    +0.131 C 
ATOM     24  N   UNL     1       2.835  10.665  -3.857  0.00  0.00    -0.183 NA
ATOM     25  C   UNL     1       3.672   9.685  -4.553  0.00  0.00    +0.131 C 
ENDBRANCH  20  24
ENDBRANCH   1  20
BRANCH   5  26
ATOM     26  N   UNL     1      -2.412   9.896  -1.520  0.00  0.00    -0.340 N 
ATOM     27  H   UNL     1      -2.515  10.855  -1.622  0.00  0.00    +0.146 HD
BRANCH  26  28
ATOM     28  C   UNL     1      -3.586   9.055  -1.276  0.00  0.00    +0.136 C 
BRANCH  28  29
ATOM     29  C   UNL     1      -4.821   9.918  -1.228  0.00  0.00    -0.030 A 
ATOM     30  C   UNL     1      -5.244  10.448  -0.022  0.00  0.00    +0.006 A 
ATOM     31  C   UNL     1      -6.371  11.243   0.027  0.00  0.00    +0.012 A 
ATOM     32  C   UNL     1      -7.090  11.502  -1.140  0.00  0.00    +0.017 A 
ATOM     33  C   UNL     1      -6.661  10.959  -2.353  0.00  0.00    +0.012 A 
ATOM     34  C   UNL     1      -5.529  10.170  -2.389  0.00  0.00    +0.006 A 
BRANCH  32  35
ATOM     35  C   UNL     1      -8.301  12.348  -1.093  0.00  0.00    +0.135 A 
ATOM     36  C   UNL     1      -8.826  12.929   0.018  0.00  0.00    +0.050 A 
ATOM     37  C   UNL     1      -9.970  13.640  -0.398  0.00  0.00    +0.042 A 
ATOM     38  C   UNL     1     -10.090  13.453  -1.726  0.00  0.00    +0.196 A 
ATOM     39  O   UNL     1      -9.080  12.672  -2.143  0.00  0.00    -0.463 OA
ENDBRANCH  32  35
ENDBRANCH  28  29
ENDBRANCH  26  28
ENDBRANCH   5  26
TORSDOF 8
