REMARK  Name = ZINC40563634
REMARK  7 active torsions:
REMARK  status: ('A' for Active; 'I' for Inactive)
REMARK    1  A    between atoms: C_1  and  C_2
REMARK    2  A    between atoms: C_5  and  C_7
REMARK    3  A    between atoms: C_7  and  C_9
REMARK    4  A    between atoms: C_7  and  C_26
REMARK    5  A    between atoms: C_9  and  N_10
REMARK    6  A    between atoms: C_11  and  C_13
REMARK    7  A    between atoms: N_15  and  C_20
REMARK                            x       y       z     vdW  Elec       q    Type
REMARK                         _______ _______ _______ _____ _____    ______ ____
ROOT
ATOM      1  C   UNL     1       3.005  -4.246   1.516  0.00  0.00    +0.120 C 
ENDROOT
BRANCH   1   2
ATOM      2  N   UNL     1       2.065  -4.150   2.636  0.00  0.00    -0.309 N 
ATOM      3  C   UNL     1       2.520  -3.892   3.878  0.00  0.00    +0.260 C 
ATOM      4  O   UNL     1       3.712  -3.738   4.069  0.00  0.00    -0.269 OA
ATOM      5  H   UNL     1       1.115  -4.273   2.484  0.00  0.00    +0.149 HD
BRANCH   3   6
ATOM      6  C   UNL     1       1.579  -3.796   4.999  0.00  0.00    +0.122 C 
ATOM      7  N   UNL     1       0.311  -3.966   4.786  0.00  0.00    -0.172 NA
ATOM      8  N   UNL     1      -0.616  -3.880   5.831  0.00  0.00    -0.160 N 
ATOM      9  C   UNL     1      -0.292  -3.255   6.979  0.00  0.00    +0.240 C 
ATOM     10  O   UNL     1      -1.101  -3.179   7.879  0.00  0.00    -0.273 OA
ATOM     11  C   UNL     1       1.079  -2.649   7.141  0.00  0.00    +0.104 C 
ATOM     12  C   UNL     1       2.099  -3.506   6.382  0.00  0.00    +0.071 C 
BRANCH   8  13
ATOM     13  C   UNL     1      -1.887  -4.448   5.681  0.00  0.00    +0.060 A 
ATOM     14  C   UNL     1      -2.630  -4.198   4.535  0.00  0.00    +0.025 A 
ATOM     15  C   UNL     1      -3.884  -4.760   4.391  0.00  0.00    +0.002 A 
ATOM     16  C   UNL     1      -4.399  -5.569   5.386  0.00  0.00    +0.000 A 
ATOM     17  C   UNL     1      -3.662  -5.820   6.529  0.00  0.00    +0.002 A 
ATOM     18  C   UNL     1      -2.405  -5.266   6.677  0.00  0.00    +0.025 A 
ENDBRANCH   8  13
ENDBRANCH   3   6
ENDBRANCH   1   2
BRANCH   1  19
ATOM     19  C   UNL     1       2.235  -4.545   0.228  0.00  0.00    +0.104 C 
BRANCH  19  20
ATOM     20  C   UNL     1       3.209  -4.765  -0.900  0.00  0.00    -0.010 A 
ATOM     21  C   UNL     1       4.118  -3.887  -1.353  0.00  0.00    +0.088 A 
ATOM     22  N   UNL     1       4.824  -4.438  -2.387  0.00  0.00    -0.360 N 
ATOM     23  H   UNL     1       5.535  -3.994  -2.876  0.00  0.00    +0.165 HD
ATOM     24  C   UNL     1       4.376  -5.717  -2.631  0.00  0.00    +0.047 A 
ATOM     25  C   UNL     1       3.349  -5.980  -1.706  0.00  0.00    +0.004 A 
ATOM     26  C   UNL     1       2.704  -7.218  -1.714  0.00  0.00    +0.010 A 
ATOM     27  C   UNL     1       3.078  -8.171  -2.620  0.00  0.00    +0.001 A 
ATOM     28  C   UNL     1       4.093  -7.918  -3.532  0.00  0.00    +0.002 A 
ATOM     29  C   UNL     1       4.736  -6.700  -3.548  0.00  0.00    +0.026 A 
ENDBRANCH  19  20
BRANCH  19  34
ATOM     30  C   UNL     1       0.705   0.125  -0.909  0.00  0.00    +0.086 C 
ATOM     31  C   UNL     1       0.673  -1.349  -0.597  0.00  0.00    +0.102 A 
ATOM     32  C   UNL     1      -0.431  -2.116  -0.532  0.00  0.00    +0.044 A 
ATOM     33  C   UNL     1      -0.002  -3.425  -0.214  0.00  0.00    +0.045 A 
ATOM     34  C   UNL     1       1.338  -3.380  -0.103  0.00  0.00    +0.114 A 
ATOM     35  O   UNL     1       1.742  -2.121  -0.342  0.00  0.00    -0.464 OA
ENDBRANCH  19  34
ENDBRANCH   1  19
TORSDOF 6
