REMARK  Name = ZINC49044377
REMARK  9 active torsions:
REMARK  status: ('A' for Active; 'I' for Inactive)
REMARK    1  A    between atoms: C_1  and  C_2
REMARK    2  A    between atoms: C_2  and  C_3
REMARK    3  A    between atoms: C_6  and  S_8
REMARK    4  A    between atoms: S_8  and  N_11
REMARK    5  A    between atoms: N_11  and  C_12
REMARK    6  A    between atoms: C_12  and  C_13
REMARK    7  A    between atoms: C_16  and  O_20
REMARK    8  A    between atoms: C_17  and  N_19
REMARK    9  A    between atoms: O_20  and  C_21
REMARK                            x       y       z     vdW  Elec       q    Type
REMARK                         _______ _______ _______ _____ _____    ______ ____
ROOT
ATOM      1  N   UNL     1       1.614  -3.534  -5.327  0.00  0.00    -0.185 NA
ATOM      2  H   UNL     1       2.371  -4.101  -5.542  0.00  0.00    +0.148 HD
ENDROOT
BRANCH   1   3
ATOM      3  S   UNL     1       1.791  -1.887  -5.313  0.00  0.00    +0.065 S 
ATOM      4  O   UNL     1       0.717  -1.357  -6.078  0.00  0.00    -0.153 OA
ATOM      5  O   UNL     1       3.152  -1.622  -5.626  0.00  0.00    -0.153 OA
BRANCH   3   9
ATOM      6  C   UNL     1       0.707  -0.490  -1.238  0.00  0.00    -0.009 A 
ATOM      7  C   UNL     1       2.023  -0.761  -1.421  0.00  0.00    +0.013 A 
ATOM      8  C   UNL     1       2.451  -1.202  -2.659  0.00  0.00    +0.036 A 
ATOM      9  C   UNL     1       1.542  -1.350  -3.654  0.00  0.00    +0.143 A 
ATOM     10  S   UNL     1       0.026  -0.866  -2.845  0.00  0.00    -0.074 S 
BRANCH   6  12
ATOM     11  C   UNL     1      -0.019   1.526   0.010  0.00  0.00    +0.009 C 
ATOM     12  C   UNL     1       0.002  -0.004   0.002  0.00  0.00    +0.039 C 
ENDBRANCH   6  12
ENDBRANCH   3   9
ENDBRANCH   1   3
BRANCH   1  13
ATOM     13  C   UNL     1       0.315  -4.133  -5.014  0.00  0.00    +0.141 C 
BRANCH  13  14
ATOM     14  C   UNL     1       0.311  -5.577  -5.445  0.00  0.00    -0.030 A 
ATOM     15  C   UNL     1      -0.094  -5.915  -6.723  0.00  0.00    +0.008 A 
ATOM     16  C   UNL     1      -0.099  -7.238  -7.124  0.00  0.00    +0.048 A 
ATOM     17  C   UNL     1       0.303  -8.230  -6.244  0.00  0.00    +0.141 A 
ATOM     18  C   UNL     1       0.711  -7.891  -4.956  0.00  0.00    +0.067 A 
ATOM     19  C   UNL     1       0.719  -6.561  -4.563  0.00  0.00    +0.031 A 
BRANCH  18  20
ATOM     20  N   UNL     1       1.117  -8.889  -4.063  0.00  0.00    -0.355 N 
ATOM     21  H   UNL     1       1.115  -9.819  -4.341  0.00  0.00    +0.142 HD
ATOM     22  H   UNL     1       1.401  -8.652  -3.167  0.00  0.00    +0.142 HD
ENDBRANCH  18  20
BRANCH  17  23
ATOM     23  O   UNL     1       0.298  -9.532  -6.637  0.00  0.00    -0.493 OA
ATOM     24  C   UNL     1      -0.133  -9.806  -7.972  0.00  0.00    +0.277 C 
ENDBRANCH  17  23
ENDBRANCH  13  14
ENDBRANCH   1  13
TORSDOF 7
