REMARK  Name = ZINC37365397
REMARK  4 active torsions:
REMARK  status: ('A' for Active; 'I' for Inactive)
REMARK    1  A    between atoms: C_1  and  C_2
REMARK    2  A    between atoms: C_5  and  N_9
REMARK    3  A    between atoms: C_6  and  C_8
REMARK    4  A    between atoms: C_10  and  N_20
REMARK                            x       y       z     vdW  Elec       q    Type
REMARK                         _______ _______ _______ _____ _____    ______ ____
ROOT
ATOM      1  N   UNL     1       0.059  -4.171  -0.021  0.00  0.00    -0.264 N 
ATOM      2  C   UNL     1      -1.128  -4.856  -0.024  0.00  0.00    +0.104 A 
ATOM      3  C   UNL     1      -1.181  -6.210  -0.032  0.00  0.00    +0.050 A 
ATOM      4  C   UNL     1       0.016  -6.965  -0.037  0.00  0.00    -0.010 A 
ATOM      5  C   UNL     1       0.004  -8.364  -0.046  0.00  0.00    +0.009 A 
ATOM      6  C   UNL     1       1.187  -9.047  -0.051  0.00  0.00    +0.001 A 
ATOM      7  C   UNL     1       2.402  -8.373  -0.048  0.00  0.00    +0.001 A 
ATOM      8  C   UNL     1       2.446  -7.007  -0.039  0.00  0.00    +0.014 A 
ATOM      9  C   UNL     1       1.255  -6.280  -0.034  0.00  0.00    +0.047 A 
ATOM     10  C   UNL     1       1.244  -4.814  -0.031  0.00  0.00    +0.265 A 
ATOM     11  O   UNL     1       2.289  -4.188  -0.032  0.00  0.00    -0.267 OA
ENDROOT
BRANCH   1  16
ATOM     12  C   UNL     1      -0.018   1.503   0.010  0.00  0.00    +0.044 C 
ATOM     13  C   UNL     1       0.002  -0.004   0.002  0.00  0.00    -0.050 A 
ATOM     14  C   UNL     1       0.006  -0.688  -1.200  0.00  0.00    +0.005 A 
ATOM     15  C   UNL     1       0.025  -2.068  -1.211  0.00  0.00    +0.027 A 
ATOM     16  C   UNL     1       0.040  -2.771  -0.013  0.00  0.00    +0.054 A 
ATOM     17  C   UNL     1       0.037  -2.082   1.192  0.00  0.00    -0.026 A 
ATOM     18  C   UNL     1       0.023  -0.700   1.196  0.00  0.00    +0.008 A 
ATOM     19  C   UNL     1       0.054  -2.840   2.494  0.00  0.00    +0.046 C 
ENDBRANCH   1  16
BRANCH   2  20
ATOM     20  N   UNL     1      -2.312  -4.142  -0.018  0.00  0.00    -0.344 N 
ATOM     21  H   UNL     1      -2.293  -3.172  -0.013  0.00  0.00    +0.144 HD
ATOM     22  H   UNL     1      -3.161  -4.611  -0.021  0.00  0.00    +0.144 HD
ENDBRANCH   2  20
TORSDOF 2
