REMARK  Name = ZINC49721226
REMARK  2 active torsions:
REMARK  status: ('A' for Active; 'I' for Inactive)
REMARK    1  A    between atoms: C_10  and  C_12
REMARK    2  A    between atoms: C_18  and  C_20
REMARK                            x       y       z     vdW  Elec       q    Type
REMARK                         _______ _______ _______ _____ _____    ______ ____
ROOT
ATOM      1  C   UNL     1      -0.265   0.993   0.132  0.00  0.00    +0.000 A 
ATOM      2  C   UNL     1       0.827   1.840   0.089  0.00  0.00    +0.000 A 
ATOM      3  C   UNL     1       2.100   1.313   0.015  0.00  0.00    +0.006 A 
ATOM      4  C   UNL     1       2.292  -0.062  -0.012  0.00  0.00    -0.019 A 
ATOM      5  C   UNL     1       1.207  -0.907   0.040  0.00  0.00    -0.041 A 
ATOM      6  C   UNL     1      -0.074  -0.372   0.107  0.00  0.00    +0.004 A 
ATOM      7  C   UNL     1       1.339  -2.407   0.045  0.00  0.00    +0.054 C 
ATOM      8  C   UNL     1       2.697  -2.836  -0.507  0.00  0.00    +0.113 C 
ATOM      9  N   UNL     1       3.731  -2.017   0.148  0.00  0.00    -0.290 N 
ATOM     10  C   UNL     1       3.708  -0.572  -0.108  0.00  0.00    +0.138 C 
ATOM     11  C   UNL     1       4.661  -2.571   0.951  0.00  0.00    +0.219 C 
ATOM     12  O   UNL     1       5.563  -1.893   1.393  0.00  0.00    -0.275 OA
ENDROOT
BRANCH  10  13
ATOM     13  C   UNL     1       4.565   0.131   0.912  0.00  0.00    -0.005 A 
ATOM     14  C   UNL     1       5.659   0.884   0.511  0.00  0.00    +0.009 A 
ATOM     15  C   UNL     1       6.418   1.514   1.485  0.00  0.00    +0.020 A 
ATOM     16  C   UNL     1       6.063   1.372   2.813  0.00  0.00    +0.111 A 
ATOM     17  N   UNL     1       5.017   0.648   3.158  0.00  0.00    -0.263 NA
ATOM     18  C   UNL     1       4.268   0.040   2.258  0.00  0.00    +0.116 A 
ENDBRANCH  10  13
BRANCH  11  19
ATOM     19  C   UNL     1       4.579  -4.035   1.299  0.00  0.00    +0.075 C 
ATOM     20  C   UNL     1       3.613  -4.340   2.456  0.00  0.00    +0.013 C 
ATOM     21  C   UNL     1       4.654  -5.357   2.953  0.00  0.00    +0.001 C 
ATOM     22  C   UNL     1       5.712  -4.513   2.222  0.00  0.00    +0.013 C 
ENDBRANCH  11  19
TORSDOF 2
