REMARK  Name = ZINC45232506
REMARK  5 active torsions:
REMARK  status: ('A' for Active; 'I' for Inactive)
REMARK    1  A    between atoms: C_1  and  N_2
REMARK    2  A    between atoms: C_6  and  C_7
REMARK    3  A    between atoms: C_7  and  C_9
REMARK    4  A    between atoms: C_7  and  N_15
REMARK    5  A    between atoms: C_24  and  C_26
REMARK                            x       y       z     vdW  Elec       q    Type
REMARK                         _______ _______ _______ _____ _____    ______ ____
ROOT
ATOM      1  N   UNL     1       1.017  -1.109   3.304  0.00  0.00    -0.285 N 
ATOM      2  C   UNL     1       2.311  -0.732   3.288  0.00  0.00    +0.303 C 
ATOM      3  O   UNL     1       2.667   0.191   2.581  0.00  0.00    -0.253 OA
ATOM      4  N   UNL     1       3.210  -1.379   4.056  0.00  0.00    -0.279 N 
ATOM      5  C   UNL     1       2.776  -2.581   4.794  0.00  0.00    +0.110 C 
ATOM      6  C   UNL     1       3.823  -3.708   4.735  0.00  0.00    +0.019 C 
ATOM      7  C   UNL     1       4.420  -3.789   3.352  0.00  0.00    +0.002 C 
ATOM      8  C   UNL     1       5.673  -2.921   3.290  0.00  0.00    +0.002 C 
ATOM      9  C   UNL     1       5.413  -1.503   2.996  0.00  0.00    +0.027 C 
ATOM     10  C   UNL     1       4.562  -0.870   4.118  0.00  0.00    +0.108 C 
ATOM     11  H   UNL     1       0.745  -1.889   3.811  0.00  0.00    +0.151 HD
ENDROOT
BRANCH  10  12
ATOM     12  C   UNL     1       4.544   0.626   3.942  0.00  0.00    -0.024 A 
ATOM     13  C   UNL     1       3.938   1.444   4.884  0.00  0.00    +0.025 A 
ATOM     14  C   UNL     1       3.941   2.812   4.689  0.00  0.00    +0.111 A 
ATOM     15  N   UNL     1       4.510   3.341   3.622  0.00  0.00    -0.263 NA
ATOM     16  C   UNL     1       5.094   2.594   2.706  0.00  0.00    +0.111 A 
ATOM     17  C   UNL     1       5.136   1.218   2.837  0.00  0.00    +0.025 A 
ENDBRANCH  10  12
BRANCH   1  18
ATOM     18  C   UNL     1       0.021  -0.339   2.554  0.00  0.00    +0.171 C 
BRANCH  18  24
ATOM     19  C   UNL     1      -0.039   1.445   0.021  0.00  0.00    +0.150 C 
ATOM     20  N   UNL     1      -0.034  -0.020   0.031  0.00  0.00    -0.336 N 
ATOM     21  C   UNL     1      -0.050  -0.840  -1.065  0.00  0.00    +0.106 A 
ATOM     22  C   UNL     1      -0.037  -2.106  -0.605  0.00  0.00    +0.130 A 
ATOM     23  N   UNL     1      -0.015  -2.060   0.736  0.00  0.00    -0.238 NA
ATOM     24  C   UNL     1      -0.008  -0.814   1.124  0.00  0.00    +0.134 A 
ENDBRANCH  18  24
BRANCH  18  25
ATOM     25  C   UNL     1      -1.337  -0.535   3.175  0.00  0.00    -0.020 A 
ATOM     26  C   UNL     1      -1.712  -1.782   3.639  0.00  0.00    +0.006 A 
ATOM     27  C   UNL     1      -2.959  -1.962   4.209  0.00  0.00    +0.000 A 
ATOM     28  C   UNL     1      -3.830  -0.894   4.317  0.00  0.00    +0.000 A 
ATOM     29  C   UNL     1      -3.455   0.354   3.854  0.00  0.00    +0.000 A 
ATOM     30  C   UNL     1      -2.207   0.534   3.288  0.00  0.00    +0.006 A 
ENDBRANCH  18  25
ENDBRANCH   1  18
TORSDOF 4
