REMARK  Name = ZINC35268304
REMARK  9 active torsions:
REMARK  status: ('A' for Active; 'I' for Inactive)
REMARK    1  A    between atoms: C_1  and  C_2
REMARK    2  A    between atoms: C_2  and  C_3
REMARK    3  A    between atoms: C_3  and  C_5
REMARK    4  A    between atoms: C_3  and  C_6
REMARK    5  A    between atoms: C_6  and  C_8
REMARK    6  A    between atoms: C_6  and  N_23
REMARK    7  A    between atoms: C_14  and  C_16
REMARK    8  A    between atoms: C_19  and  C_22
REMARK    9  A    between atoms: N_26  and  C_27
REMARK                            x       y       z     vdW  Elec       q    Type
REMARK                         _______ _______ _______ _____ _____    ______ ____
ROOT
ATOM      1  C   UNL     1      -1.423  -2.082  -0.129  0.00  0.00    +0.163 C 
ENDROOT
BRANCH   1   2
ATOM      2  C   UNL     1      -0.761  -2.475  -1.424  0.00  0.00    +0.239 C 
ATOM      3  O   UNL     1       0.235  -3.166  -1.410  0.00  0.00    -0.273 OA
ATOM      4  N   UNL     1      -1.277  -2.059  -2.598  0.00  0.00    -0.262 N 
ATOM      5  C   UNL     1      -0.666  -2.422  -3.792  0.00  0.00    +0.188 A 
ATOM      6  N   UNL     1       0.408  -3.164  -3.984  0.00  0.00    -0.125 NA
ATOM      7  N   UNL     1       0.851  -3.412  -5.141  0.00  0.00    -0.140 NA
ATOM      8  C   UNL     1       0.214  -2.910  -6.192  0.00  0.00    +0.134 A 
ATOM      9  S   UNL     1      -1.110  -2.035  -5.372  0.00  0.00    -0.030 S 
ATOM     10  H   UNL     1      -2.074  -1.506  -2.609  0.00  0.00    +0.157 HD
BRANCH   8  11
ATOM     11  C   UNL     1       0.513  -3.042  -7.634  0.00  0.00    +0.009 A 
ATOM     12  C   UNL     1      -0.300  -2.415  -8.579  0.00  0.00    +0.011 A 
ATOM     13  C   UNL     1      -0.016  -2.542  -9.923  0.00  0.00    +0.004 A 
ATOM     14  C   UNL     1       1.073  -3.290 -10.335  0.00  0.00    -0.050 A 
ATOM     15  C   UNL     1       1.883  -3.915  -9.403  0.00  0.00    +0.004 A 
ATOM     16  C   UNL     1       1.613  -3.791  -8.056  0.00  0.00    +0.011 A 
ATOM     17  C   UNL     1       1.377  -3.425 -11.805  0.00  0.00    +0.044 C 
ENDBRANCH   8  11
ENDBRANCH   1   2
BRANCH   1  18
ATOM     18  N   UNL     1      -0.678  -2.655   0.995  0.00  0.00    -0.288 N 
ATOM     19  C   UNL     1      -1.299  -2.884   2.168  0.00  0.00    +0.305 C 
ATOM     20  O   UNL     1      -2.478  -2.615   2.295  0.00  0.00    -0.252 OA
ATOM     21  N   UNL     1      -0.613  -3.411   3.202  0.00  0.00    -0.267 N 
ATOM     22  H   UNL     1       0.263  -2.869   0.893  0.00  0.00    +0.151 HD
ATOM     23  H   UNL     1       0.309  -3.686   3.082  0.00  0.00    +0.156 HD
BRANCH  21  24
ATOM     24  C   UNL     1      -1.233  -3.563   4.449  0.00  0.00    +0.070 A 
ATOM     25  C   UNL     1      -2.582  -3.879   4.521  0.00  0.00    +0.026 A 
ATOM     26  C   UNL     1      -3.191  -4.028   5.753  0.00  0.00    +0.002 A 
ATOM     27  C   UNL     1      -2.458  -3.863   6.913  0.00  0.00    +0.003 A 
ATOM     28  C   UNL     1      -1.113  -3.549   6.846  0.00  0.00    +0.040 A 
ATOM     29  C   UNL     1      -0.496  -3.404   5.617  0.00  0.00    +0.145 A 
ATOM     30  F   UNL     1       0.820  -3.102   5.552  0.00  0.00    -0.204 F 
ENDBRANCH  21  24
ENDBRANCH   1  18
BRANCH   1  31
ATOM     31  C   UNL     1      -1.438  -0.556  -0.006  0.00  0.00    +0.015 C 
ATOM     32  C   UNL     1      -2.110  -0.157   1.309  0.00  0.00    +0.010 C 
BRANCH  31  34
ATOM     33  C   UNL     1      -0.020   1.500  -0.029  0.00  0.00    +0.004 C 
ATOM     34  C   UNL     1      -0.002  -0.029  -0.026  0.00  0.00    +0.002 C 
ENDBRANCH  31  34
ENDBRANCH   1  31
TORSDOF 6
