REMARK  Name = ZINC01080270
REMARK  9 active torsions:
REMARK  status: ('A' for Active; 'I' for Inactive)
REMARK    1  A    between atoms: C_1  and  C_2
REMARK    2  A    between atoms: C_2  and  N_3
REMARK    3  A    between atoms: N_3  and  C_4
REMARK    4  A    between atoms: C_4  and  C_5
REMARK    5  A    between atoms: C_11  and  C_13
REMARK    6  A    between atoms: C_14  and  N_25
REMARK    7  A    between atoms: C_16  and  C_24
REMARK    8  A    between atoms: C_17  and  C_23
REMARK    9  A    between atoms: C_18  and  C_22
REMARK                            x       y       z     vdW  Elec       q    Type
REMARK                         _______ _______ _______ _____ _____    ______ ____
ROOT
ATOM      1  C   UNL     1       4.985  -0.212  -4.666  0.00  0.00    +0.097 A 
ATOM      2  C   UNL     1       6.106   0.153  -5.377  0.00  0.00    +0.054 A 
ATOM      3  C   UNL     1       6.590  -0.746  -6.414  0.00  0.00    +0.032 A 
ATOM      4  C   UNL     1       7.712  -0.592  -7.265  0.00  0.00    -0.034 A 
ATOM      5  C   UNL     1       7.987  -1.572  -8.190  0.00  0.00    -0.026 A 
ATOM      6  C   UNL     1       7.176  -2.693  -8.285  0.00  0.00    +0.043 A 
ATOM      7  N   UNL     1       6.133  -2.833  -7.491  0.00  0.00    -0.244 NA
ATOM      8  C   UNL     1       5.829  -1.923  -6.591  0.00  0.00    +0.111 A 
ATOM      9  S   UNL     1       4.534  -1.780  -5.383  0.00  0.00    -0.062 S 
ATOM     10  C   UNL     1       7.489  -3.759  -9.303  0.00  0.00    +0.066 C 
ATOM     11  C   UNL     1       9.175  -1.427  -9.105  0.00  0.00    +0.046 C 
ATOM     12  C   UNL     1       8.592   0.627  -7.159  0.00  0.00    +0.045 C 
ENDROOT
BRANCH   1  14
ATOM     13  N   UNL     1       3.346  -0.095  -2.923  0.00  0.00    -0.293 N 
ATOM     14  C   UNL     1       4.340   0.493  -3.619  0.00  0.00    +0.255 C 
ATOM     15  O   UNL     1       4.683   1.629  -3.349  0.00  0.00    -0.269 OA
BRANCH  13  17
ATOM     16  C   UNL     1       1.873  -1.319  -4.443  0.00  0.00    +0.024 C 
ATOM     17  C   UNL     1       2.881  -1.432  -3.298  0.00  0.00    +0.105 C 
ENDBRANCH  13  17
BRANCH  13  18
ATOM     18  C   UNL     1       2.732   0.604  -1.792  0.00  0.00    +0.143 C 
BRANCH  18  19
ATOM     19  C   UNL     1       1.565   1.422  -2.280  0.00  0.00    -0.030 A 
ATOM     20  C   UNL     1       0.300   0.865  -2.324  0.00  0.00    +0.005 A 
ATOM     21  C   UNL     1      -0.770   1.616  -2.772  0.00  0.00    +0.000 A 
ATOM     22  C   UNL     1      -0.577   2.924  -3.176  0.00  0.00    +0.000 A 
ATOM     23  C   UNL     1       0.688   3.481  -3.132  0.00  0.00    +0.000 A 
ATOM     24  C   UNL     1       1.759   2.730  -2.685  0.00  0.00    +0.005 A 
ENDBRANCH  18  19
ENDBRANCH  13  18
ENDBRANCH   1  14
BRANCH   2  25
ATOM     25  N   UNL     1       6.761   1.347  -5.109  0.00  0.00    -0.356 N 
ATOM     26  H   UNL     1       6.559   1.839  -4.297  0.00  0.00    +0.142 HD
ATOM     27  H   UNL     1       7.420   1.690  -5.732  0.00  0.00    +0.142 HD
ENDBRANCH   2  25
TORSDOF 5
