REMARK  Name = ZINC15087243
REMARK  3 active torsions:
REMARK  status: ('A' for Active; 'I' for Inactive)
REMARK    1  A    between atoms: C_12  and  C_20
REMARK    2  A    between atoms: C_14  and  C_18
REMARK    3  A    between atoms: C_15  and  N_17
REMARK                            x       y       z     vdW  Elec       q    Type
REMARK                         _______ _______ _______ _____ _____    ______ ____
ROOT
ATOM      1  C   UNL     1      -4.565   7.680   3.626  0.00  0.00    +0.001 A 
ATOM      2  C   UNL     1      -3.848   7.609   4.812  0.00  0.00    +0.004 A 
ATOM      3  C   UNL     1      -2.558   7.121   4.825  0.00  0.00    +0.047 A 
ATOM      4  C   UNL     1      -1.966   6.694   3.644  0.00  0.00    +0.143 A 
ATOM      5  C   UNL     1      -2.692   6.765   2.443  0.00  0.00    +0.060 A 
ATOM      6  C   UNL     1      -3.997   7.261   2.444  0.00  0.00    +0.015 A 
ATOM      7  C   UNL     1      -2.052   6.308   1.200  0.00  0.00    +0.152 A 
ATOM      8  C   UNL     1      -0.776   5.833   1.268  0.00  0.00    +0.092 A 
ATOM      9  C   UNL     1      -0.114   5.795   2.507  0.00  0.00    +0.345 A 
ATOM     10  O   UNL     1       1.027   5.370   2.557  0.00  0.00    -0.245 OA
ATOM     11  O   UNL     1      -0.704   6.214   3.638  0.00  0.00    -0.422 OA
ATOM     12  C   UNL     1      -0.071   5.350   0.029  0.00  0.00    +0.105 C 
ATOM     13  C   UNL     1      -0.782   5.845  -1.200  0.00  0.00    +0.098 C 
ATOM     14  C   UNL     1      -2.050   6.317  -1.131  0.00  0.00    +0.199 C 
ATOM     15  O   UNL     1      -2.722   6.363   0.033  0.00  0.00    -0.440 OA
ENDROOT
BRANCH  12  16
ATOM     16  C   UNL     1      -0.050   3.843   0.022  0.00  0.00    -0.029 A 
ATOM     17  C   UNL     1       1.156   3.169   0.008  0.00  0.00    +0.043 A 
ATOM     18  C   UNL     1       1.176   1.785   0.000  0.00  0.00    +0.126 A 
ATOM     19  C   UNL     1      -0.013   1.076   0.008  0.00  0.00    +0.076 A 
ATOM     20  C   UNL     1      -1.220   1.752   0.017  0.00  0.00    +0.126 A 
ATOM     21  C   UNL     1      -1.238   3.137   0.029  0.00  0.00    +0.043 A 
ATOM     22  F   UNL     1      -2.381   1.062   0.019  0.00  0.00    -0.205 F 
ATOM     23  F   UNL     1       2.356   1.126  -0.014  0.00  0.00    -0.205 F 
ENDBRANCH  12  16
BRANCH  14  24
ATOM     24  N   UNL     1      -2.663   6.758  -2.277  0.00  0.00    -0.328 N 
ATOM     25  H   UNL     1      -3.571   7.098  -2.241  0.00  0.00    +0.145 HD
ATOM     26  H   UNL     1      -2.189   6.730  -3.123  0.00  0.00    +0.145 HD
ENDBRANCH  14  24
BRANCH  13  27
ATOM     27  C   UNL     1      -0.108   5.817  -2.463  0.00  0.00    +0.101 C 
ATOM     28  N   UNL     1       0.427   5.795  -3.465  0.00  0.00    -0.191 NA
ENDBRANCH  13  27
TORSDOF 3
