REMARK  Name = ZINC03433694
REMARK  9 active torsions:
REMARK  status: ('A' for Active; 'I' for Inactive)
REMARK    1  A    between atoms: C_1  and  C_2
REMARK    2  A    between atoms: C_2  and  N_3
REMARK    3  A    between atoms: N_3  and  C_4
REMARK    4  A    between atoms: N_3  and  C_16
REMARK    5  A    between atoms: C_4  and  C_5
REMARK    6  A    between atoms: N_7  and  C_8
REMARK    7  A    between atoms: C_8  and  C_9
REMARK    8  A    between atoms: C_19  and  S_21
REMARK    9  A    between atoms: S_21  and  N_24
REMARK                            x       y       z     vdW  Elec       q    Type
REMARK                         _______ _______ _______ _____ _____    ______ ____
ROOT
ATOM      1  N   UNL     1       2.708  -1.542  -5.769  0.00  0.00    -0.308 N 
ENDROOT
BRANCH   1   2
ATOM      2  C   UNL     1       1.876  -1.401  -4.664  0.00  0.00    +0.099 A 
ATOM      3  C   UNL     1       1.879  -2.375  -3.670  0.00  0.00    +0.043 A 
ATOM      4  C   UNL     1       1.046  -2.222  -2.577  0.00  0.00    +0.033 A 
ATOM      5  C   UNL     1       0.236  -1.096  -2.513  0.00  0.00    +0.121 A 
ATOM      6  C   UNL     1       0.280  -0.173  -3.538  0.00  0.00    +0.112 A 
ATOM      7  N   UNL     1       1.089  -0.288  -4.624  0.00  0.00    -0.348 N 
ATOM      8  H   UNL     1       1.107   0.420  -5.368  0.00  0.00    +0.167 HD
BRANCH   5   9
ATOM      9  S   UNL     1      -0.843  -0.853  -1.141  0.00  0.00    +0.062 S 
ATOM     10  O   UNL     1      -1.095  -2.138  -0.589  0.00  0.00    -0.153 OA
ATOM     11  O   UNL     1      -1.887   0.000  -1.592  0.00  0.00    -0.153 OA
BRANCH   9  12
ATOM     12  N   UNL     1       0.002  -0.004   0.002  0.00  0.00    -0.177 NA
ATOM     13  C   UNL     1      -0.018   1.465   0.010  0.00  0.00    +0.109 C 
ATOM     14  C   UNL     1       1.426   1.978  -0.001  0.00  0.00    +0.017 C 
ATOM     15  C   UNL     1       2.194   1.353   1.166  0.00  0.00    +0.003 C 
ATOM     16  C   UNL     1       2.220  -0.169   1.005  0.00  0.00    +0.017 C 
ATOM     17  C   UNL     1       0.786  -0.706   1.028  0.00  0.00    +0.109 C 
ENDBRANCH   9  12
ENDBRANCH   5   9
ENDBRANCH   1   2
BRANCH   1  19
ATOM     18  C   UNL     1       3.904   0.504  -6.372  0.00  0.00    +0.024 C 
ATOM     19  C   UNL     1       2.792  -0.471  -6.764  0.00  0.00    +0.103 C 
ENDBRANCH   1  19
BRANCH   1  20
ATOM     20  C   UNL     1       3.500  -2.763  -5.938  0.00  0.00    +0.202 C 
BRANCH  20  21
ATOM     21  C   UNL     1       2.705  -3.773  -6.724  0.00  0.00    +0.231 C 
ATOM     22  O   UNL     1       1.586  -3.501  -7.105  0.00  0.00    -0.274 OA
ATOM     23  N   UNL     1       3.237  -4.980  -7.003  0.00  0.00    -0.310 N 
ATOM     24  H   UNL     1       4.132  -5.198  -6.698  0.00  0.00    +0.149 HD
BRANCH  23  25
ATOM     25  C   UNL     1       2.464  -5.962  -7.767  0.00  0.00    +0.139 C 
BRANCH  25  26
ATOM     26  C   UNL     1       3.279  -7.218  -7.941  0.00  0.00    -0.030 A 
ATOM     27  C   UNL     1       4.102  -7.360  -9.043  0.00  0.00    +0.006 A 
ATOM     28  C   UNL     1       4.854  -8.509  -9.200  0.00  0.00    +0.020 A 
ATOM     29  C   UNL     1       4.775  -9.521  -8.260  0.00  0.00    +0.041 A 
ATOM     30  C   UNL     1       3.948  -9.380  -7.161  0.00  0.00    +0.020 A 
ATOM     31  C   UNL     1       3.200  -8.229  -7.002  0.00  0.00    +0.006 A 
ATOM     32 CL   UNL     1       5.715 -10.967  -8.461  0.00  0.00    -0.084 Cl
ENDBRANCH  25  26
ENDBRANCH  23  25
ENDBRANCH  20  21
ENDBRANCH   1  20
TORSDOF 8
