REMARK  Name = ZINC39686457
REMARK  10 active torsions:
REMARK  status: ('A' for Active; 'I' for Inactive)
REMARK    1  A    between atoms: C_1  and  C_2
REMARK    2  A    between atoms: C_2  and  C_4
REMARK    3  A    between atoms: C_2  and  N_13
REMARK    4  A    between atoms: C_4  and  C_5
REMARK    5  A    between atoms: C_10  and  O_11
REMARK    6  A    between atoms: O_11  and  C_12
REMARK    7  A    between atoms: C_14  and  C_16
REMARK    8  A    between atoms: C_27  and  C_29
REMARK    9  A    between atoms: C_29  and  C_30
REMARK   10  A    between atoms: C_30  and  C_31
REMARK                            x       y       z     vdW  Elec       q    Type
REMARK                         _______ _______ _______ _____ _____    ______ ____
ROOT
ATOM      1  C   UNL     1      -3.256  -1.085   1.228  0.00  0.00    +0.100 C 
ATOM      2  C   UNL     1      -3.300  -2.573   0.815  0.00  0.00    +0.121 C 
ATOM      3  N   UNL     1      -3.470  -3.311   2.089  0.00  0.00    -0.300 N 
ATOM      4  C   UNL     1      -4.415  -2.480   2.873  0.00  0.00    +0.115 C 
ATOM      5  C   UNL     1      -3.991  -1.027   2.578  0.00  0.00    -0.004 C 
ATOM      6  C   UNL     1      -5.221  -0.130   2.471  0.00  0.00    -0.010 C 
ATOM      7  C   UNL     1      -5.902  -0.042   3.840  0.00  0.00    -0.082 C 
ATOM      8  N   UNL     1      -4.959   0.501   4.825  0.00  0.00    +0.379 N 
ATOM      9  C   UNL     1      -3.824  -0.416   4.989  0.00  0.00    -0.082 C 
ATOM     10  C   UNL     1      -3.054  -0.520   3.669  0.00  0.00    -0.010 C 
ATOM     11  C   UNL     1      -2.895  -4.474   2.452  0.00  0.00    +0.216 C 
ATOM     12  O   UNL     1      -3.204  -5.002   3.499  0.00  0.00    -0.276 OA
ATOM     13  H   UNL     1      -4.622   1.397   4.508  0.00  0.00    -0.086 HD
ATOM     14  H   UNL     1      -5.428   0.615   5.711  0.00  0.00    -0.086 HD
ENDROOT
BRANCH   1  16
ATOM     15  N   UNL     1      -1.514   0.671   1.216  0.00  0.00    -0.312 N 
ATOM     16  C   UNL     1      -1.829  -0.628   1.389  0.00  0.00    +0.218 C 
ATOM     17  O   UNL     1      -0.964  -1.429   1.674  0.00  0.00    -0.275 OA
ATOM     18  H   UNL     1      -2.191   1.300   0.921  0.00  0.00    +0.149 HD
BRANCH  15  20
ATOM     19  C   UNL     1      -0.025   1.571   2.936  0.00  0.00    +0.028 C 
ATOM     20  C   UNL     1      -0.148   1.135   1.474  0.00  0.00    +0.074 C 
BRANCH  20  21
ATOM     21  C   UNL     1       0.170   2.319   0.560  0.00  0.00    +0.060 C 
BRANCH  21  22
ATOM     22  C   UNL     1       0.163   1.862  -0.876  0.00  0.00    -0.004 A 
ATOM     23  C   UNL     1       1.337   1.451  -1.477  0.00  0.00    +0.007 A 
ATOM     24  C   UNL     1       1.330   1.032  -2.794  0.00  0.00    +0.000 A 
ATOM     25  C   UNL     1       0.149   1.022  -3.514  0.00  0.00    +0.004 A 
ATOM     26  C   UNL     1      -1.027   1.432  -2.917  0.00  0.00    +0.046 A 
ATOM     27  C   UNL     1      -1.024   1.848  -1.593  0.00  0.00    +0.123 A 
BRANCH  27  28
ATOM     28  O   UNL     1      -2.182   2.247  -1.003  0.00  0.00    -0.495 OA
ATOM     29  C   UNL     1      -3.365   2.206  -1.802  0.00  0.00    +0.277 C 
ENDBRANCH  27  28
ENDBRANCH  21  22
ENDBRANCH  20  21
ENDBRANCH  15  20
ENDBRANCH   1  16
BRANCH  11  30
ATOM     30  C   UNL     1      -1.867  -5.118   1.558  0.00  0.00    +0.096 C 
BRANCH  30  31
ATOM     31  C   UNL     1      -1.474  -6.481   2.132  0.00  0.00    +0.013 C 
BRANCH  31  32
ATOM     32  C   UNL     1      -0.348  -7.084   1.290  0.00  0.00    -0.011 C 
ATOM     33  C   UNL     1      -0.876  -7.449  -0.113  0.00  0.00    +0.003 C 
ATOM     34  C   UNL     1      -0.139  -8.765  -0.466  0.00  0.00    +0.000 C 
ATOM     35  C   UNL     1      -0.101  -9.510   0.891  0.00  0.00    +0.000 C 
ATOM     36  C   UNL     1       0.144  -8.394   1.928  0.00  0.00    +0.003 C 
ENDBRANCH  31  32
ENDBRANCH  30  31
ENDBRANCH  11  30
TORSDOF 8
