REMARK  Name = ZINC22920400
REMARK  5 active torsions:
REMARK  status: ('A' for Active; 'I' for Inactive)
REMARK    1  A    between atoms: C_1  and  C_2
REMARK    2  A    between atoms: C_5  and  C_16
REMARK    3  A    between atoms: C_7  and  N_8
REMARK    4  A    between atoms: C_9  and  C_11
REMARK    5  A    between atoms: N_18  and  C_19
REMARK                            x       y       z     vdW  Elec       q    Type
REMARK                         _______ _______ _______ _____ _____    ______ ____
ROOT
ATOM      1  C   UNL     1      -0.146   1.292  -0.214  0.00  0.00    +0.045 C 
ATOM      2  C   UNL     1      -0.121  -0.213  -0.152  0.00  0.00    -0.029 A 
ATOM      3  C   UNL     1      -0.157  -0.952  -1.320  0.00  0.00    +0.006 A 
ATOM      4  C   UNL     1      -0.134  -2.331  -1.272  0.00  0.00    +0.013 A 
ATOM      5  C   UNL     1      -0.075  -2.985  -0.039  0.00  0.00    +0.039 A 
ATOM      6  C   UNL     1      -0.038  -2.240   1.139  0.00  0.00    +0.036 A 
ATOM      7  C   UNL     1      -0.057  -0.855   1.079  0.00  0.00    +0.037 A 
ENDROOT
BRANCH   7   8
ATOM      8  N   UNL     1      -0.016  -0.103   2.258  0.00  0.00    -0.279 N 
ATOM      9  C   UNL     1      -0.632  -0.555   3.368  0.00  0.00    +0.284 C 
ATOM     10  O   UNL     1      -1.150  -1.657   3.370  0.00  0.00    -0.266 OA
ATOM     11  H   UNL     1       0.456   0.745   2.276  0.00  0.00    +0.155 HD
BRANCH   9  12
ATOM     12  C   UNL     1      -0.679   0.279   4.572  0.00  0.00    +0.189 A 
ATOM     13  C   UNL     1      -1.262  -0.058   5.760  0.00  0.00    +0.054 A 
ATOM     14  C   UNL     1      -1.070   1.029   6.627  0.00  0.00    +0.042 A 
ATOM     15  C   UNL     1      -0.386   1.970   5.939  0.00  0.00    +0.196 A 
ATOM     16  O   UNL     1      -0.147   1.512   4.704  0.00  0.00    -0.458 OA
ENDBRANCH   9  12
ENDBRANCH   7   8
BRANCH   5  17
ATOM     17  C   UNL     1      -0.051  -4.462   0.016  0.00  0.00    +0.248 C 
ATOM     18  O   UNL     1       0.001  -5.029   1.090  0.00  0.00    -0.270 OA
ATOM     19  N   UNL     1      -0.086  -5.179  -1.124  0.00  0.00    -0.280 N 
ATOM     20  H   UNL     1      -0.046  -4.729  -1.982  0.00  0.00    +0.155 HD
BRANCH  19  21
ATOM     21  C   UNL     1      -0.181  -6.576  -1.070  0.00  0.00    +0.051 A 
ATOM     22  C   UNL     1      -0.742  -7.191   0.041  0.00  0.00    +0.073 A 
ATOM     23  C   UNL     1      -0.837  -8.573   0.094  0.00  0.00    +0.164 A 
ATOM     24  C   UNL     1      -0.371  -9.341  -0.967  0.00  0.00    +0.163 A 
ATOM     25  C   UNL     1       0.190  -8.724  -2.075  0.00  0.00    +0.066 A 
ATOM     26  C   UNL     1       0.280  -7.345  -2.130  0.00  0.00    +0.043 A 
ATOM     27 BR   UNL     1       1.038  -6.508  -3.647  0.00  0.00    -0.048 Br
ATOM     28  O   UNL     1      -0.463 -10.700  -0.936  0.00  0.00    -0.485 OA
ATOM     29  C   UNL     1      -0.688 -11.300   0.344  0.00  0.00    +0.270 C 
ATOM     30  C   UNL     1      -1.807 -10.523   1.050  0.00  0.00    +0.270 C 
ATOM     31  O   UNL     1      -1.385  -9.162   1.192  0.00  0.00    -0.485 OA
ENDBRANCH  19  21
ENDBRANCH   5  17
TORSDOF 4
