REMARK  Name = ZINC44960614
REMARK  7 active torsions:
REMARK  status: ('A' for Active; 'I' for Inactive)
REMARK    1  A    between atoms: C_7  and  C_11
REMARK    2  A    between atoms: C_11  and  C_12
REMARK    3  A    between atoms: C_12  and  N_13
REMARK    4  A    between atoms: C_14  and  C_16
REMARK    5  A    between atoms: C_19  and  N_22
REMARK    6  A    between atoms: C_23  and  N_34
REMARK    7  A    between atoms: C_25  and  C_27
REMARK                            x       y       z     vdW  Elec       q    Type
REMARK                         _______ _______ _______ _____ _____    ______ ____
ROOT
ATOM      1  C   UNL     1      -2.104  -6.351  -2.609  0.00  0.00    +0.037 A 
ATOM      2  C   UNL     1      -2.449  -6.968  -1.403  0.00  0.00    +0.015 A 
ATOM      3  C   UNL     1      -3.305  -8.046  -1.404  0.00  0.00    +0.028 A 
ATOM      4  C   UNL     1      -3.827  -8.521  -2.602  0.00  0.00    +0.067 A 
ATOM      5  C   UNL     1      -3.485  -7.910  -3.804  0.00  0.00    +0.028 A 
ATOM      6  C   UNL     1      -2.634  -6.827  -3.810  0.00  0.00    +0.015 A 
ENDROOT
BRANCH   4   7
ATOM      7  N   UNL     1      -4.694  -9.616  -2.599  0.00  0.00    -0.218 N 
ATOM      8  C   UNL     1      -5.750  -9.804  -3.441  0.00  0.00    +0.120 A 
ATOM      9  C   UNL     1      -6.334 -10.986  -3.111  0.00  0.00    +0.073 A 
ATOM     10  C   UNL     1      -5.614 -11.537  -2.034  0.00  0.00    +0.096 A 
ATOM     11  N   UNL     1      -4.630 -10.716  -1.735  0.00  0.00    -0.165 NA
BRANCH  10  12
ATOM     12  C   UNL     1      -5.910 -12.824  -1.358  0.00  0.00    +0.020 A 
ATOM     13  C   UNL     1      -6.981 -13.607  -1.782  0.00  0.00    +0.011 A 
ATOM     14  C   UNL     1      -7.252 -14.803  -1.150  0.00  0.00    +0.001 A 
ATOM     15  C   UNL     1      -6.462 -15.226  -0.095  0.00  0.00    +0.001 A 
ATOM     16  C   UNL     1      -5.397 -14.453   0.332  0.00  0.00    +0.020 A 
ATOM     17  C   UNL     1      -5.113 -13.257  -0.298  0.00  0.00    +0.050 A 
ATOM     18 CL   UNL     1      -3.772 -12.291   0.234  0.00  0.00    -0.083 Cl
ENDBRANCH  10  12
BRANCH   8  19
ATOM     19  N   UNL     1      -6.155  -8.942  -4.455  0.00  0.00    -0.343 N 
ATOM     20  H   UNL     1      -5.670  -8.117  -4.613  0.00  0.00    +0.144 HD
ATOM     21  H   UNL     1      -6.923  -9.165  -5.003  0.00  0.00    +0.144 HD
ENDBRANCH   8  19
ENDBRANCH   4   7
BRANCH   1  23
ATOM     22  N   UNL     1      -0.675  -4.736  -1.452  0.00  0.00    -0.311 N 
ATOM     23  C   UNL     1      -1.186  -5.195  -2.612  0.00  0.00    +0.244 C 
ATOM     24  O   UNL     1      -0.890  -4.656  -3.661  0.00  0.00    -0.270 OA
ATOM     25  H   UNL     1      -0.911  -5.166  -0.615  0.00  0.00    +0.149 HD
BRANCH  22  26
ATOM     26  C   UNL     1       0.236  -3.589  -1.455  0.00  0.00    +0.109 C 
BRANCH  26  27
ATOM     27  C   UNL     1       0.666  -3.275  -0.021  0.00  0.00    +0.056 C 
BRANCH  27  34
ATOM     28  C   UNL     1      -0.017   1.362   0.009  0.00  0.00    +0.001 A 
ATOM     29  C   UNL     1       1.170   2.083   0.002  0.00  0.00    +0.002 A 
ATOM     30  C   UNL     1       2.386   1.436  -0.013  0.00  0.00    +0.026 A 
ATOM     31  C   UNL     1       2.428   0.046  -0.021  0.00  0.00    +0.047 A 
ATOM     32  C   UNL     1       1.223  -0.681  -0.013  0.00  0.00    +0.003 A 
ATOM     33  C   UNL     1       0.002  -0.004   0.002  0.00  0.00    +0.010 A 
ATOM     34  C   UNL     1       1.604  -2.095  -0.025  0.00  0.00    -0.021 A 
ATOM     35  C   UNL     1       2.945  -2.141  -0.038  0.00  0.00    +0.087 A 
ATOM     36  N   UNL     1       3.455  -0.871  -0.036  0.00  0.00    -0.360 N 
ATOM     37  H   UNL     1       4.399  -0.650  -0.044  0.00  0.00    +0.165 HD
ENDBRANCH  27  34
ENDBRANCH  26  27
ENDBRANCH  22  26
ENDBRANCH   1  23
TORSDOF 7
