REMARK  Name = ZINC01873583
REMARK  10 active torsions:
REMARK  status: ('A' for Active; 'I' for Inactive)
REMARK    1  A    between atoms: C_1  and  O_2
REMARK    2  A    between atoms: O_2  and  C_3
REMARK    3  A    between atoms: C_6  and  C_9
REMARK    4  A    between atoms: C_9  and  N_11
REMARK    5  A    between atoms: N_11  and  O_12
REMARK    6  A    between atoms: O_12  and  C_13
REMARK    7  A    between atoms: C_13  and  C_14
REMARK    8  A    between atoms: N_16  and  N_17
REMARK    9  A    between atoms: N_25  and  C_28
REMARK   10  A    between atoms: C_28  and  N_29
REMARK                            x       y       z     vdW  Elec       q    Type
REMARK                         _______ _______ _______ _____ _____    ______ ____
ROOT
ATOM      1  N   UNL     1      -9.004  -8.585   0.062  0.00  0.00    -0.174 NA
ATOM      2  C   UNL     1      -9.158  -9.886   0.062  0.00  0.00    +0.153 C 
ATOM      3  C   UNL     1     -10.431 -10.645   0.066  0.00  0.00    +0.029 A 
ATOM      4  C   UNL     1     -11.767 -10.261   0.070  0.00  0.00    +0.027 A 
ATOM      5  C   UNL     1     -12.757 -11.224   0.072  0.00  0.00    +0.019 A 
ATOM      6  C   UNL     1     -12.417 -12.568   0.070  0.00  0.00    +0.017 A 
ATOM      7  C   UNL     1     -11.093 -12.958   0.067  0.00  0.00    +0.025 A 
ATOM      8  C   UNL     1     -10.083 -12.001   0.064  0.00  0.00    +0.047 A 
ATOM      9  N   UNL     1      -8.698 -12.121   0.059  0.00  0.00    -0.252 N 
ATOM     10  C   UNL     1      -8.100 -10.918   0.052  0.00  0.00    +0.272 C 
ATOM     11  O   UNL     1      -6.901 -10.713   0.042  0.00  0.00    -0.268 OA
ATOM     12 BR   UNL     1     -14.576 -10.710   0.079  0.00  0.00    -0.050 Br
ENDROOT
BRANCH   1  15
ATOM     13  C   UNL     1      -7.558  -6.694   0.053  0.00  0.00    +0.261 C 
ATOM     14  O   UNL     1      -8.530  -5.968   0.062  0.00  0.00    -0.271 OA
ATOM     15  N   UNL     1      -7.717  -8.032   0.053  0.00  0.00    -0.204 N 
ATOM     16  H   UNL     1      -6.939  -8.612   0.046  0.00  0.00    +0.177 HD
BRANCH  13  17
ATOM     17  C   UNL     1      -6.174  -6.099   0.043  0.00  0.00    +0.290 C 
BRANCH  17  18
ATOM     18  O   UNL     1      -6.268  -4.673   0.045  0.00  0.00    -0.265 OA
BRANCH  18  19
ATOM     19  N   UNL     1      -5.015  -4.013   0.036  0.00  0.00    -0.265 N 
ATOM     20  H   UNL     1      -4.194  -4.530   0.028  0.00  0.00    +0.194 HD
BRANCH  19  21
ATOM     21  C   UNL     1      -4.961  -2.619   0.037  0.00  0.00    +0.061 C 
ATOM     22  C   UNL     1      -6.089  -1.907   0.047  0.00  0.00    +0.038 C 
BRANCH  21  26
ATOM     23  C   UNL     1      -1.200  -0.637   0.010  0.00  0.00    +0.120 A 
ATOM     24  C   UNL     1      -2.374   0.105   0.020  0.00  0.00    +0.046 A 
ATOM     25  C   UNL     1      -3.595  -0.535   0.028  0.00  0.00    +0.013 A 
ATOM     26  C   UNL     1      -3.651  -1.929   0.027  0.00  0.00    -0.000 A 
ATOM     27  C   UNL     1      -2.470  -2.671   0.017  0.00  0.00    +0.013 A 
ATOM     28  C   UNL     1      -1.252  -2.025   0.003  0.00  0.00    +0.046 A 
BRANCH  23  30
ATOM     29  C   UNL     1      -0.017   1.425   0.010  0.00  0.00    +0.277 C 
ATOM     30  O   UNL     1       0.002  -0.004   0.002  0.00  0.00    -0.495 OA
ENDBRANCH  23  30
ENDBRANCH  21  26
ENDBRANCH  19  21
ENDBRANCH  18  19
ENDBRANCH  17  18
ENDBRANCH  13  17
ENDBRANCH   1  15
BRANCH   9  31
ATOM     31  C   UNL     1      -7.980 -13.399   0.057  0.00  0.00    +0.201 C 
BRANCH  31  32
ATOM     32  N   UNL     1      -7.745 -13.825  -1.329  0.00  0.00    -0.287 NA
ATOM     33  C   UNL     1      -8.979 -14.362  -1.934  0.00  0.00    +0.086 C 
ATOM     34  C   UNL     1      -8.926 -14.096  -3.418  0.00  0.00    +0.015 C 
ATOM     35  C   UNL     1      -8.374 -15.305  -4.192  0.00  0.00    +0.001 C 
ATOM     36  C   UNL     1      -7.186 -15.962  -3.463  0.00  0.00    +0.001 C 
ATOM     37  C   UNL     1      -6.234 -14.951  -2.876  0.00  0.00    +0.015 C 
ATOM     38  C   UNL     1      -6.636 -14.673  -1.411  0.00  0.00    +0.086 C 
ENDBRANCH  31  32
ENDBRANCH   9  31
TORSDOF 9
