REMARK  Name = ZINC08687335
REMARK  13 active torsions:
REMARK  status: ('A' for Active; 'I' for Inactive)
REMARK    1  A    between atoms: C_1  and  C_2
REMARK    2  A    between atoms: C_2  and  C_3
REMARK    3  A    between atoms: C_7  and  C_35
REMARK    4  A    between atoms: C_8  and  N_9
REMARK    5  A    between atoms: C_10  and  C_29
REMARK    6  A    between atoms: C_13  and  S_14
REMARK    7  A    between atoms: S_14  and  C_15
REMARK    8  A    between atoms: C_15  and  C_16
REMARK    9  A    between atoms: C_16  and  C_18
REMARK   10  A    between atoms: C_19  and  N_28
REMARK   11  A    between atoms: N_20  and  C_27
REMARK   12  A    between atoms: N_23  and  C_26
REMARK   13  A    between atoms: C_35  and  C_36
REMARK                            x       y       z     vdW  Elec       q    Type
REMARK                         _______ _______ _______ _____ _____    ______ ____
ROOT
ATOM      1  N   UNL     1      -1.315  -0.312   2.414  0.00  0.00    -0.270 N 
ATOM      2  C   UNL     1      -1.873   0.914   2.702  0.00  0.00    +0.171 A 
ATOM      3  N   UNL     1      -3.176   0.763   2.661  0.00  0.00    -0.128 NA
ATOM      4  N   UNL     1      -3.469  -0.455   2.371  0.00  0.00    -0.122 NA
ATOM      5  C   UNL     1      -2.371  -1.157   2.204  0.00  0.00    +0.197 A 
ENDROOT
BRANCH   1  11
ATOM      6  C   UNL     1       0.732  -0.501   1.141  0.00  0.00    -0.023 A 
ATOM      7  C   UNL     1       2.077  -0.808   1.077  0.00  0.00    +0.005 A 
ATOM      8  C   UNL     1       2.743  -1.245   2.207  0.00  0.00    +0.001 A 
ATOM      9  C   UNL     1       2.065  -1.377   3.405  0.00  0.00    +0.005 A 
ATOM     10  C   UNL     1       0.720  -1.073   3.475  0.00  0.00    -0.023 A 
ATOM     11  C   UNL     1       0.049  -0.628   2.344  0.00  0.00    +0.057 A 
BRANCH   6  13
ATOM     12  C   UNL     1      -0.014   1.505  -0.111  0.00  0.00    +0.009 C 
ATOM     13  C   UNL     1       0.007  -0.025  -0.091  0.00  0.00    +0.034 C 
ENDBRANCH   6  13
BRANCH  10  14
ATOM     14  C   UNL     1      -0.019  -1.217   4.781  0.00  0.00    +0.034 C 
ATOM     15  C   UNL     1      -0.700  -2.587   4.833  0.00  0.00    +0.009 C 
ENDBRANCH  10  14
ENDBRANCH   1  11
BRANCH   2  16
ATOM     16  C   UNL     1      -1.142   2.163   3.002  0.00  0.00    +0.038 A 
ATOM     17  C   UNL     1      -1.802   3.252   3.584  0.00  0.00    +0.014 A 
ATOM     18  C   UNL     1      -1.073   4.398   3.845  0.00  0.00    +0.020 A 
ATOM     19  C   UNL     1       0.273   4.432   3.526  0.00  0.00    +0.111 A 
ATOM     20  N   UNL     1       0.869   3.390   2.977  0.00  0.00    -0.263 NA
ATOM     21  C   UNL     1       0.219   2.275   2.715  0.00  0.00    +0.122 A 
ENDBRANCH   2  16
BRANCH   5  22
ATOM     22  S   UNL     1      -2.276  -2.867   1.790  0.00  0.00    -0.078 S 
BRANCH  22  23
ATOM     23  C   UNL     1      -4.010  -3.383   1.657  0.00  0.00    +0.157 C 
BRANCH  23  24
ATOM     24  C   UNL     1      -4.072  -4.846   1.302  0.00  0.00    +0.182 C 
ATOM     25  O   UNL     1      -3.047  -5.480   1.153  0.00  0.00    -0.291 OA
BRANCH  24  26
ATOM     26  C   UNL     1      -5.323  -5.481   1.142  0.00  0.00    +0.120 A 
ATOM     27  C   UNL     1      -5.410  -6.810   0.694  0.00  0.00    +0.116 A 
ATOM     28  N   UNL     1      -6.643  -7.381   0.555  0.00  0.00    -0.284 N 
ATOM     29  C   UNL     1      -7.763  -6.699   0.838  0.00  0.00    +0.333 A 
ATOM     30  O   UNL     1      -8.837  -7.252   0.698  0.00  0.00    -0.246 OA
ATOM     31  N   UNL     1      -7.743  -5.427   1.269  0.00  0.00    -0.263 N 
ATOM     32  C   UNL     1      -6.575  -4.775   1.445  0.00  0.00    +0.269 A 
ATOM     33  O   UNL     1      -6.559  -3.624   1.841  0.00  0.00    -0.267 OA
ATOM     34  C   UNL     1      -9.004  -4.741   1.559  0.00  0.00    +0.157 C 
ATOM     35  C   UNL     1      -6.744  -8.766   0.088  0.00  0.00    +0.155 C 
BRANCH  27  36
ATOM     36  N   UNL     1      -4.284  -7.516   0.402  0.00  0.00    -0.344 N 
ATOM     37  H   UNL     1      -3.411  -7.131   0.577  0.00  0.00    +0.144 HD
ATOM     38  H   UNL     1      -4.355  -8.405   0.019  0.00  0.00    +0.144 HD
ENDBRANCH  27  36
ENDBRANCH  24  26
ENDBRANCH  23  24
ENDBRANCH  22  23
ENDBRANCH   5  22
TORSDOF 9
