REMARK  Name = ZINC21671185
REMARK  12 active torsions:
REMARK  status: ('A' for Active; 'I' for Inactive)
REMARK    1  A    between atoms: C_1  and  C_2
REMARK    2  A    between atoms: C_3  and  C_30
REMARK    3  A    between atoms: C_5  and  N_26
REMARK    4  A    between atoms: C_6  and  C_7
REMARK    5  A    between atoms: C_7  and  C_9
REMARK    6  A    between atoms: C_7  and  N_19
REMARK    7  A    between atoms: C_11  and  O_17
REMARK    8  A    between atoms: C_13  and  O_15
REMARK    9  A    between atoms: O_15  and  C_16
REMARK   10  A    between atoms: O_17  and  C_18
REMARK   11  A    between atoms: N_22  and  C_25
REMARK   12  A    between atoms: C_27  and  C_29
REMARK                            x       y       z     vdW  Elec       q    Type
REMARK                         _______ _______ _______ _____ _____    ______ ____
ROOT
ATOM      1  C   UNL     1      -3.591  -2.459   0.239  0.00  0.00    +0.120 C 
ENDROOT
BRANCH   1   2
ATOM      2  N   UNL     1      -3.372  -1.261   1.059  0.00  0.00    -0.295 NA
ATOM      3  C   UNL     1      -2.775  -1.611   2.355  0.00  0.00    +0.067 C 
ATOM      4  C   UNL     1      -2.489  -0.332   3.145  0.00  0.00    -0.064 C 
ATOM      5  N   UNL     1      -3.740   0.416   3.330  0.00  0.00    +0.379 N 
ATOM      6  C   UNL     1      -4.337   0.767   2.034  0.00  0.00    -0.064 C 
ATOM      7  C   UNL     1      -4.623  -0.512   1.244  0.00  0.00    +0.067 C 
ATOM      8  C   UNL     1      -3.520   1.615   4.150  0.00  0.00    -0.096 C 
ATOM      9  H   UNL     1      -4.448  -0.233   3.866  0.00  0.00    -0.082 HD
ENDBRANCH   1   2
BRANCH   1  15
ATOM     10  C   UNL     1      -3.501  -5.364   0.446  0.00  0.00    +0.045 C 
ATOM     11  C   UNL     1      -2.245  -4.578   0.170  0.00  0.00    -0.034 A 
ATOM     12  C   UNL     1      -1.058  -5.211   0.015  0.00  0.00    -0.008 A 
ATOM     13  S   UNL     1       0.055  -3.849  -0.290  0.00  0.00    -0.078 S 
ATOM     14  C   UNL     1      -1.134  -2.522  -0.179  0.00  0.00    +0.077 A 
ATOM     15  C   UNL     1      -2.289  -3.199   0.071  0.00  0.00    +0.006 A 
ATOM     16  C   UNL     1      -0.755  -6.686   0.077  0.00  0.00    +0.052 C 
BRANCH  14  17
ATOM     17  N   UNL     1      -0.933  -1.146  -0.320  0.00  0.00    -0.280 N 
ATOM     18  C   UNL     1       0.274  -0.676  -0.691  0.00  0.00    +0.214 C 
ATOM     19  O   UNL     1       1.186  -1.447  -0.904  0.00  0.00    -0.276 OA
ATOM     20  C   UNL     1       0.491   0.808  -0.843  0.00  0.00    +0.109 C 
ATOM     21  H   UNL     1      -1.760  -0.447  -0.127  0.00  0.00    +0.155 HD
ENDBRANCH  14  17
ENDBRANCH   1  15
BRANCH   1  22
ATOM     22  C   UNL     1      -4.116  -2.053  -1.114  0.00  0.00    -0.019 A 
ATOM     23  C   UNL     1      -3.691  -0.873  -1.692  0.00  0.00    +0.051 A 
ATOM     24  C   UNL     1      -4.168  -0.499  -2.941  0.00  0.00    +0.124 A 
ATOM     25  C   UNL     1      -5.081  -1.306  -3.603  0.00  0.00    +0.091 A 
ATOM     26  C   UNL     1      -5.510  -2.487  -3.018  0.00  0.00    +0.124 A 
ATOM     27  C   UNL     1      -5.025  -2.859  -1.772  0.00  0.00    +0.051 A 
BRANCH  26  28
ATOM     28  O   UNL     1      -6.405  -3.280  -3.664  0.00  0.00    -0.495 OA
ATOM     29  C   UNL     1      -6.861  -2.835  -4.943  0.00  0.00    +0.277 C 
ENDBRANCH  26  28
BRANCH  24  30
ATOM     30  O   UNL     1      -3.745   0.659  -3.512  0.00  0.00    -0.495 OA
ATOM     31  C   UNL     1      -4.283   0.984  -4.796  0.00  0.00    +0.277 C 
ENDBRANCH  24  30
ENDBRANCH   1  22
TORSDOF 6
