REMARK  Name = ZINC33266852
REMARK  9 active torsions:
REMARK  status: ('A' for Active; 'I' for Inactive)
REMARK    1  A    between atoms: C_1  and  C_2
REMARK    2  A    between atoms: C_5  and  C_8
REMARK    3  A    between atoms: C_8  and  N_9
REMARK    4  A    between atoms: C_15  and  C_41
REMARK    5  A    between atoms: N_17  and  C_35
REMARK    6  A    between atoms: C_24  and  C_26
REMARK    7  A    between atoms: C_29  and  N_32
REMARK    8  A    between atoms: N_32  and  C_33
REMARK    9  A    between atoms: N_32  and  C_34
REMARK                            x       y       z     vdW  Elec       q    Type
REMARK                         _______ _______ _______ _____ _____    ______ ____
ROOT
ATOM      1  N   UNL     1      -1.030  11.192  -2.745  0.00  0.00    -0.295 N 
ATOM      2  C   UNL     1      -0.980   9.979  -3.330  0.00  0.00    +0.304 C 
ATOM      3  O   UNL     1      -0.849   9.890  -4.536  0.00  0.00    -0.253 OA
ATOM      4  N   UNL     1      -1.075   8.864  -2.579  0.00  0.00    -0.269 N 
ATOM      5  C   UNL     1      -1.235   8.922  -1.107  0.00  0.00    +0.151 C 
ATOM      6  C   UNL     1      -0.431   7.856  -0.422  0.00  0.00    +0.035 A 
ATOM      7  C   UNL     1       0.713   7.985   0.359  0.00  0.00    +0.067 A 
ATOM      8  N   UNL     1       1.049   6.795   0.801  0.00  0.00    -0.169 NA
ATOM      9  N   UNL     1       0.128   5.859   0.301  0.00  0.00    -0.215 N 
ATOM     10  C   UNL     1      -0.755   6.530  -0.461  0.00  0.00    +0.146 A 
ATOM     11  N   UNL     1      -1.821   6.080  -1.250  0.00  0.00    -0.303 N 
ATOM     12  C   UNL     1      -2.807   5.195  -0.977  0.00  0.00    +0.093 A 
ATOM     13  C   UNL     1      -3.641   5.162  -2.041  0.00  0.00    +0.020 A 
ATOM     14  C   UNL     1      -3.127   6.049  -3.012  0.00  0.00    +0.025 A 
ATOM     15  C   UNL     1      -1.998   6.579  -2.516  0.00  0.00    +0.050 A 
ATOM     16  C   UNL     1      -1.024   7.510  -3.178  0.00  0.00    +0.155 C 
ATOM     17  C   UNL     1       1.439   9.272   0.654  0.00  0.00    +0.068 C 
ATOM     18  H   UNL     1      -1.149  11.272  -1.654  0.00  0.00    +0.151 HD
ENDROOT
BRANCH  16  19
ATOM     19  C   UNL     1       0.369   6.955  -3.025  0.00  0.00    -0.021 A 
ATOM     20  C   UNL     1       1.421   7.804  -2.736  0.00  0.00    +0.007 A 
ATOM     21  C   UNL     1       2.698   7.299  -2.589  0.00  0.00    +0.023 A 
ATOM     22  C   UNL     1       2.926   5.937  -2.744  0.00  0.00    +0.029 A 
ATOM     23  C   UNL     1       1.868   5.088  -3.040  0.00  0.00    +0.023 A 
ATOM     24  C   UNL     1       0.592   5.599  -3.180  0.00  0.00    +0.007 A 
BRANCH  22  25
ATOM     25  N   UNL     1       4.217   5.423  -2.602  0.00  0.00    -0.336 N 
ATOM     26  C   UNL     1       4.477   4.008  -2.879  0.00  0.00    +0.129 C 
ATOM     27  C   UNL     1       5.312   6.299  -2.176  0.00  0.00    +0.129 C 
ENDBRANCH  22  25
ENDBRANCH  16  19
BRANCH   9  28
ATOM     28  C   UNL     1       0.125   4.481   0.556  0.00  0.00    +0.068 A 
ATOM     29  C   UNL     1      -0.183   3.586  -0.461  0.00  0.00    +0.028 A 
ATOM     30  C   UNL     1      -0.184   2.229  -0.207  0.00  0.00    +0.002 A 
ATOM     31  C   UNL     1       0.122   1.760   1.057  0.00  0.00    +0.000 A 
ATOM     32  C   UNL     1       0.424   2.648   2.073  0.00  0.00    +0.002 A 
ATOM     33  C   UNL     1       0.432   4.007   1.824  0.00  0.00    +0.028 A 
ENDBRANCH   9  28
BRANCH   1  34
ATOM     34  C   UNL     1      -0.928  12.404  -3.562  0.00  0.00    +0.141 C 
BRANCH  34  39
ATOM     35  C   UNL     1      -1.248  17.057  -0.150  0.00  0.00    +0.044 C 
ATOM     36  C   UNL     1      -1.165  15.844  -1.040  0.00  0.00    -0.050 A 
ATOM     37  C   UNL     1       0.064  15.274  -1.318  0.00  0.00    +0.003 A 
ATOM     38  C   UNL     1       0.140  14.160  -2.134  0.00  0.00    +0.005 A 
ATOM     39  C   UNL     1      -1.011  13.617  -2.672  0.00  0.00    -0.030 A 
ATOM     40  C   UNL     1      -2.239  14.190  -2.399  0.00  0.00    +0.005 A 
ATOM     41  C   UNL     1      -2.316  15.301  -1.579  0.00  0.00    +0.003 A 
ENDBRANCH  34  39
ENDBRANCH   1  34
TORSDOF 5
