REMARK  Name = ZINC63472801
REMARK  8 active torsions:
REMARK  status: ('A' for Active; 'I' for Inactive)
REMARK    1  A    between atoms: C_1  and  C_2
REMARK    2  A    between atoms: C_5  and  N_9
REMARK    3  A    between atoms: C_7  and  C_8
REMARK    4  A    between atoms: C_14  and  C_35
REMARK    5  A    between atoms: C_17  and  C_22
REMARK    6  A    between atoms: C_17  and  C_32
REMARK    7  A    between atoms: C_22  and  C_23
REMARK    8  A    between atoms: C_40  and  O_41
REMARK                            x       y       z     vdW  Elec       q    Type
REMARK                         _______ _______ _______ _____ _____    ______ ____
ROOT
ATOM      1  N   UNL     1       0.232  -4.219  -0.180  0.00  0.00    -0.210 N 
ATOM      2  C   UNL     1       0.218  -4.932   0.994  0.00  0.00    +0.229 C 
ATOM      3  O   UNL     1       0.033  -4.509   2.114  0.00  0.00    -0.275 OA
ATOM      4  C   UNL     1       0.474  -6.295   0.599  0.00  0.00    +0.077 C 
ATOM      5  C   UNL     1       0.300  -7.673   1.090  0.00  0.00    -0.023 C 
ATOM      6  N   UNL     1       0.641  -8.487  -0.128  0.00  0.00    +0.396 N 
ATOM      7  C   UNL     1       0.432  -7.623  -1.328  0.00  0.00    +0.052 C 
ATOM      8  C   UNL     1      -0.273  -6.367  -0.793  0.00  0.00    +0.086 C 
ATOM      9  C   UNL     1       0.178  -5.020  -1.285  0.00  0.00    +0.229 C 
ATOM     10  O   UNL     1       0.440  -4.710  -2.427  0.00  0.00    -0.275 OA
ATOM     11  H   UNL     1       1.605  -8.781  -0.083  0.00  0.00    -0.083 HD
ATOM     12  H   UNL     1       0.038  -9.294  -0.179  0.00  0.00    -0.083 HD
ENDROOT
BRANCH   1  17
ATOM     13  C   UNL     1       0.464   1.447  -0.412  0.00  0.00    +0.044 C 
ATOM     14  C   UNL     1       0.402  -0.057  -0.350  0.00  0.00    -0.047 A 
ATOM     15  C   UNL     1       0.350  -0.794  -1.519  0.00  0.00    +0.005 A 
ATOM     16  C   UNL     1       0.294  -2.173  -1.466  0.00  0.00    +0.024 A 
ATOM     17  C   UNL     1       0.290  -2.819  -0.237  0.00  0.00    +0.044 A 
ATOM     18  C   UNL     1       0.343  -2.077   0.934  0.00  0.00    +0.027 A 
ATOM     19  C   UNL     1       0.404  -0.698   0.875  0.00  0.00    -0.046 A 
ATOM     20  C   UNL     1       0.466   0.108   2.146  0.00  0.00    +0.044 C 
ENDBRANCH   1  17
BRANCH   5  21
ATOM     21  C   UNL     1       1.254  -7.966   2.218  0.00  0.00    -0.019 A 
ATOM     22  C   UNL     1       2.338  -7.138   2.440  0.00  0.00    +0.005 A 
ATOM     23  C   UNL     1       3.214  -7.407   3.475  0.00  0.00    +0.000 A 
ATOM     24  C   UNL     1       3.008  -8.504   4.291  0.00  0.00    +0.004 A 
ATOM     25  C   UNL     1       1.926  -9.335   4.074  0.00  0.00    +0.045 A 
ATOM     26  C   UNL     1       1.042  -9.064   3.039  0.00  0.00    +0.118 A 
BRANCH  26  27
ATOM     27  O   UNL     1      -0.026  -9.876   2.827  0.00  0.00    -0.507 OA
ATOM     28  H   UNL     1       0.151 -10.611   2.224  0.00  0.00    +0.292 HD
ENDBRANCH  26  27
ENDBRANCH   5  21
BRANCH   7  29
ATOM     29  C   UNL     1      -0.457  -8.321  -2.325  0.00  0.00    +0.347 C 
ATOM     30  O   UNL     1      -0.867  -9.445  -2.093  0.00  0.00    -0.248 OA
ATOM     31  O   UNL     1      -0.766  -7.761  -3.363  0.00  0.00    -0.248 OA
ENDBRANCH   7  29
BRANCH   7  32
ATOM     32  C   UNL     1       1.776  -7.273  -1.970  0.00  0.00    +0.033 C 
BRANCH  32  33
ATOM     33  C   UNL     1       2.461  -8.537  -2.422  0.00  0.00    -0.042 C 
ATOM     34  C   UNL     1       2.427  -9.082  -3.660  0.00  0.00    -0.001 A 
ATOM     35  C   UNL     1       1.768  -8.676  -4.907  0.00  0.00    +0.010 A 
ATOM     36  C   UNL     1       1.922  -9.443  -6.010  0.00  0.00    +0.001 A 
ATOM     37  C   UNL     1       2.693 -10.613  -5.992  0.00  0.00    +0.002 A 
ATOM     38  C   UNL     1       3.329 -11.050  -4.885  0.00  0.00    +0.026 A 
ATOM     39  C   UNL     1       3.237 -10.321  -3.667  0.00  0.00    +0.043 A 
ATOM     40  N   UNL     1       3.751 -10.534  -2.480  0.00  0.00    -0.380 N 
ATOM     41  C   UNL     1       3.330  -9.450  -1.586  0.00  0.00    +0.144 C 
ATOM     42  H   UNL     1       4.318 -11.282  -2.235  0.00  0.00    +0.160 HD
ENDBRANCH  32  33
ENDBRANCH   7  32
TORSDOF 6
