REMARK  Name = ZINC01822361
REMARK  6 active torsions:
REMARK  status: ('A' for Active; 'I' for Inactive)
REMARK    1  A    between atoms: C_1  and  C_2
REMARK    2  A    between atoms: C_5  and  N_27
REMARK    3  A    between atoms: C_14  and  C_16
REMARK    4  A    between atoms: C_17  and  C_18
REMARK    5  A    between atoms: C_21  and  N_24
REMARK    6  A    between atoms: N_27  and  C_28
REMARK                            x       y       z     vdW  Elec       q    Type
REMARK                         _______ _______ _______ _____ _____    ______ ____
ROOT
ATOM      1  C   UNL     1      -0.050   0.731   0.661  0.00  0.00    +0.028 C 
ATOM      2  C   UNL     1      -0.822   2.007   1.004  0.00  0.00    +0.081 C 
ATOM      3  C   UNL     1      -0.604   2.365   2.480  0.00  0.00    +0.049 C 
ATOM      4  C   UNL     1      -1.326   3.678   2.782  0.00  0.00    +0.104 C 
ATOM      5  C   UNL     1      -2.758   3.611   2.321  0.00  0.00    -0.006 A 
ATOM      6  C   UNL     1      -3.680   4.488   2.866  0.00  0.00    +0.007 A 
ATOM      7  C   UNL     1      -5.000   4.453   2.461  0.00  0.00    +0.000 A 
ATOM      8  C   UNL     1      -5.410   3.540   1.506  0.00  0.00    +0.002 A 
ATOM      9  C   UNL     1      -4.498   2.661   0.959  0.00  0.00    +0.024 A 
ATOM     10  C   UNL     1      -3.169   2.693   1.366  0.00  0.00    +0.042 A 
ATOM     11  N   UNL     1      -2.260   1.788   0.802  0.00  0.00    -0.265 N 
ATOM     12  C   UNL     1      -2.699   0.733   0.087  0.00  0.00    +0.244 C 
ATOM     13  O   UNL     1      -1.906   0.039  -0.522  0.00  0.00    -0.270 OA
ENDROOT
BRANCH  12  14
ATOM     14  C   UNL     1      -4.128   0.421   0.044  0.00  0.00    +0.068 C 
ATOM     15  C   UNL     1      -4.671  -0.101  -1.074  0.00  0.00    +0.013 C 
BRANCH  15  16
ATOM     16  C   UNL     1      -6.109  -0.414  -1.117  0.00  0.00    -0.025 A 
ATOM     17  C   UNL     1      -6.914  -0.178   0.001  0.00  0.00    +0.010 A 
ATOM     18  C   UNL     1      -8.261  -0.469  -0.049  0.00  0.00    +0.033 A 
ATOM     19  C   UNL     1      -8.814  -1.004  -1.199  0.00  0.00    +0.126 A 
ATOM     20  C   UNL     1      -8.023  -1.246  -2.308  0.00  0.00    +0.033 A 
ATOM     21  C   UNL     1      -6.676  -0.956  -2.276  0.00  0.00    +0.010 A 
BRANCH  19  22
ATOM     22  N   UNL     1     -10.260  -1.320  -1.242  0.00  0.00    +0.056 N 
ATOM     23  O   UNL     1     -10.750  -1.792  -2.253  0.00  0.00    -0.126 OA
ATOM     24  O   UNL     1     -10.959  -1.108  -0.268  0.00  0.00    -0.126 OA
ENDBRANCH  19  22
ENDBRANCH  15  16
ENDBRANCH  12  14
BRANCH   4  25
ATOM     25  N   UNL     1      -1.294   3.927   4.225  0.00  0.00    -0.337 N 
ATOM     26  H   UNL     1      -1.203   3.185   4.843  0.00  0.00    +0.147 HD
BRANCH  25  27
ATOM     27  C   UNL     1      -1.396   5.232   4.712  0.00  0.00    +0.028 A 
ATOM     28  C   UNL     1      -1.522   6.296   3.828  0.00  0.00    +0.023 A 
ATOM     29  C   UNL     1      -1.627   7.585   4.312  0.00  0.00    +0.002 A 
ATOM     30  C   UNL     1      -1.597   7.819   5.675  0.00  0.00    +0.000 A 
ATOM     31  C   UNL     1      -1.467   6.762   6.557  0.00  0.00    +0.002 A 
ATOM     32  C   UNL     1      -1.366   5.470   6.080  0.00  0.00    +0.023 A 
ENDBRANCH  25  27
ENDBRANCH   4  25
TORSDOF 5
