REMARK  Name = ZINC09469260
REMARK  12 active torsions:
REMARK  status: ('A' for Active; 'I' for Inactive)
REMARK    1  A    between atoms: C_1  and  N_50
REMARK    2  A    between atoms: C_2  and  N_50
REMARK    3  A    between atoms: C_3  and  C_5
REMARK    4  A    between atoms: C_3  and  C_23
REMARK    5  A    between atoms: C_3  and  N_50
REMARK    6  A    between atoms: C_5  and  N_6
REMARK    7  A    between atoms: N_6  and  C_7
REMARK    8  A    between atoms: C_10  and  S_16
REMARK    9  A    between atoms: C_12  and  N_13
REMARK   10  A    between atoms: S_16  and  C_19
REMARK   11  A    between atoms: C_26  and  O_29
REMARK   12  A    between atoms: O_29  and  C_30
REMARK                            x       y       z     vdW  Elec       q    Type
REMARK                         _______ _______ _______ _____ _____    ______ ____
ROOT
ATOM      1  N   UNL     1       3.364   1.060  -0.324  0.00  0.00    -0.343 N 
ATOM      2  H   UNL     1       4.134   1.538   0.021  0.00  0.00    +0.146 HD
ENDROOT
BRANCH   1   3
ATOM      3  C   UNL     1       2.292   1.767  -0.875  0.00  0.00    +0.058 A 
ATOM      4  C   UNL     1       1.203   1.083  -1.399  0.00  0.00    +0.027 A 
ATOM      5  C   UNL     1       0.147   1.785  -1.947  0.00  0.00    +0.029 A 
ATOM      6  C   UNL     1       0.169   3.168  -1.964  0.00  0.00    +0.100 A 
ATOM      7  C   UNL     1       1.252   3.852  -1.443  0.00  0.00    +0.062 A 
ATOM      8  C   UNL     1       2.313   3.156  -0.898  0.00  0.00    +0.149 A 
BRANCH   8   9
ATOM      9  N   UNL     1       3.471   3.889  -0.340  0.00  0.00    +0.058 N 
ATOM     10  O   UNL     1       3.295   4.912   0.296  0.00  0.00    -0.126 OA
ATOM     11  O   UNL     1       4.601   3.468  -0.517  0.00  0.00    -0.126 OA
ENDBRANCH   8   9
BRANCH   6  12
ATOM     12  S   UNL     1      -1.183   4.060  -2.658  0.00  0.00    +0.091 S 
ATOM     13  O   UNL     1      -2.300   3.192  -2.518  0.00  0.00    -0.161 OA
ATOM     14  O   UNL     1      -1.159   5.321  -2.003  0.00  0.00    -0.161 OA
BRANCH  12  15
ATOM     15  C   UNL     1      -0.760   4.258  -4.411  0.00  0.00    +0.526 C 
ATOM     16  F   UNL     1      -0.615   2.997  -5.000  0.00  0.00    -0.150 F 
ATOM     17  F   UNL     1      -1.781   4.961  -5.060  0.00  0.00    -0.150 F 
ATOM     18  F   UNL     1       0.440   4.967  -4.524  0.00  0.00    -0.150 F 
ENDBRANCH  12  15
ENDBRANCH   6  12
ENDBRANCH   1   3
BRANCH   1  19
ATOM     19  C   UNL     1       3.324  -0.403  -0.269  0.00  0.00    +0.091 C 
BRANCH  19  20
ATOM     20  C   UNL     1       4.611  -0.924   0.375  0.00  0.00    -0.021 C 
BRANCH  20  21
ATOM     21  C   UNL     1       4.518  -2.419   0.544  0.00  0.00    -0.059 A 
ATOM     22  C   UNL     1       3.361  -2.987   1.044  0.00  0.00    +0.005 A 
ATOM     23  C   UNL     1       3.272  -4.357   1.194  0.00  0.00    +0.046 A 
ATOM     24  C   UNL     1       4.349  -5.162   0.856  0.00  0.00    +0.120 A 
ATOM     25  C   UNL     1       5.511  -4.590   0.360  0.00  0.00    +0.046 A 
ATOM     26  C   UNL     1       5.593  -3.220   0.205  0.00  0.00    +0.005 A 
BRANCH  24  27
ATOM     27  O   UNL     1       4.266  -6.510   1.009  0.00  0.00    -0.495 OA
ATOM     28  C   UNL     1       3.039  -7.030   1.524  0.00  0.00    +0.277 C 
ENDBRANCH  24  27
ENDBRANCH  20  21
BRANCH  20  31
ATOM     29  C   UNL     1       3.863  -0.859   2.677  0.00  0.00    -0.096 C 
ATOM     30  C   UNL     1       6.182  -0.413   2.145  0.00  0.00    -0.096 C 
ATOM     31  N   UNL     1       4.785  -0.265   1.687  0.00  0.00    +0.382 N 
ATOM     32  H   UNL     1       4.570   0.734   1.589  0.00  0.00    -0.082 HD
ENDBRANCH  20  31
ENDBRANCH  19  20
ENDBRANCH   1  19
TORSDOF 9
