REMARK  Name = ZINC36048113
REMARK  10 active torsions:
REMARK  status: ('A' for Active; 'I' for Inactive)
REMARK    1  A    between atoms: C_1  and  C_2
REMARK    2  A    between atoms: C_2  and  C_3
REMARK    3  A    between atoms: C_2  and  C_4
REMARK    4  A    between atoms: C_7  and  N_10
REMARK    5  A    between atoms: C_12  and  C_35
REMARK    6  A    between atoms: C_16  and  C_18
REMARK    7  A    between atoms: C_18  and  N_19
REMARK    8  A    between atoms: N_19  and  C_20
REMARK    9  A    between atoms: C_20  and  C_21
REMARK   10  A    between atoms: C_27  and  C_29
REMARK                            x       y       z     vdW  Elec       q    Type
REMARK                         _______ _______ _______ _____ _____    ______ ____
ROOT
ATOM      1  N   UNL     1      -3.681   0.124  -1.212  0.00  0.00    -0.287 N 
ATOM      2  C   UNL     1      -3.951   0.012   0.130  0.00  0.00    +0.122 A 
ATOM      3  C   UNL     1      -5.266  -0.309   0.240  0.00  0.00    +0.091 A 
ATOM      4  N   UNL     1      -5.782  -0.389  -1.006  0.00  0.00    -0.214 NA
ATOM      5  C   UNL     1      -4.843  -0.126  -1.880  0.00  0.00    +0.207 A 
ATOM      6  N   UNL     1      -5.003  -0.108  -3.259  0.00  0.00    -0.254 N 
ATOM      7  C   UNL     1      -6.209  -0.374  -3.801  0.00  0.00    +0.237 C 
ATOM      8  O   UNL     1      -7.153  -0.628  -3.084  0.00  0.00    -0.274 OA
ATOM      9  H   UNL     1      -4.248   0.095  -3.833  0.00  0.00    +0.158 HD
ENDROOT
BRANCH   1  13
ATOM     10  C   UNL     1       0.002   1.071  -2.921  0.00  0.00    -0.045 A 
ATOM     11  C   UNL     1      -0.507   1.853  -1.901  0.00  0.00    +0.006 A 
ATOM     12  C   UNL     1      -1.727   1.542  -1.333  0.00  0.00    +0.026 A 
ATOM     13  C   UNL     1      -2.442   0.443  -1.787  0.00  0.00    +0.049 A 
ATOM     14  C   UNL     1      -1.929  -0.341  -2.812  0.00  0.00    +0.026 A 
ATOM     15  C   UNL     1      -0.712  -0.022  -3.380  0.00  0.00    +0.006 A 
BRANCH  10  17
ATOM     16  C   UNL     1       1.271   2.819  -4.139  0.00  0.00    +0.012 C 
ATOM     17  C   UNL     1       1.333   1.413  -3.539  0.00  0.00    +0.013 C 
ATOM     18  C   UNL     1       2.421   1.364  -2.465  0.00  0.00    +0.012 C 
ENDBRANCH  10  17
ENDBRANCH   1  13
BRANCH   3  19
ATOM     19  C   UNL     1      -6.005  -0.532   1.506  0.00  0.00    +0.002 A 
ATOM     20  C   UNL     1      -5.349  -0.412   2.730  0.00  0.00    +0.010 A 
ATOM     21  C   UNL     1      -6.043  -0.621   3.905  0.00  0.00    +0.001 A 
ATOM     22  C   UNL     1      -7.386  -0.949   3.869  0.00  0.00    +0.000 A 
ATOM     23  C   UNL     1      -8.042  -1.070   2.657  0.00  0.00    +0.001 A 
ATOM     24  C   UNL     1      -7.360  -0.857   1.476  0.00  0.00    +0.010 A 
ENDBRANCH   3  19
BRANCH   7  25
ATOM     25  C   UNL     1      -6.383  -0.355  -5.298  0.00  0.00    +0.204 C 
BRANCH  25  26
ATOM     26  N   UNL     1      -7.773  -0.673  -5.632  0.00  0.00    -0.286 N 
ATOM     27  C   UNL     1      -8.107  -1.924  -6.007  0.00  0.00    +0.247 C 
ATOM     28  O   UNL     1      -9.251  -2.176  -6.330  0.00  0.00    -0.270 OA
BRANCH  27  29
ATOM     29  C   UNL     1      -7.081  -2.988  -6.027  0.00  0.00    +0.037 A 
ATOM     30  C   UNL     1      -6.168  -3.100  -4.978  0.00  0.00    +0.013 A 
ATOM     31  C   UNL     1      -5.213  -4.096  -5.002  0.00  0.00    +0.001 A 
ATOM     32  C   UNL     1      -5.160  -4.983  -6.063  0.00  0.00    +0.000 A 
ATOM     33  C   UNL     1      -6.063  -4.877  -7.106  0.00  0.00    +0.001 A 
ATOM     34  C   UNL     1      -7.026  -3.889  -7.092  0.00  0.00    +0.013 A 
ENDBRANCH  27  29
BRANCH  26  35
ATOM     35  C   UNL     1      -8.801   0.368  -5.557  0.00  0.00    +0.140 C 
BRANCH  35  36
ATOM     36  C   UNL     1      -8.815   1.166  -6.862  0.00  0.00    +0.136 C 
ATOM     37  C   UNL     1      -9.810   2.341  -6.748  0.00  0.00    +0.035 C 
ATOM     38  C   UNL     1     -10.460   2.360  -8.158  0.00  0.00    +0.031 C 
ATOM     39  C   UNL     1     -10.472   0.849  -8.498  0.00  0.00    +0.160 C 
ATOM     40  O   UNL     1      -9.253   0.329  -7.939  0.00  0.00    -0.375 OA
ENDBRANCH  35  36
ENDBRANCH  26  35
ENDBRANCH  25  26
ENDBRANCH   7  25
TORSDOF 8
