REMARK  Name = ZINC05554694
REMARK  12 active torsions:
REMARK  status: ('A' for Active; 'I' for Inactive)
REMARK    1  A    between atoms: C_1  and  C_2
REMARK    2  A    between atoms: C_3  and  C_24
REMARK    3  A    between atoms: C_4  and  N_18
REMARK    4  A    between atoms: C_8  and  C_12
REMARK    5  A    between atoms: C_9  and  C_11
REMARK    6  A    between atoms: N_18  and  C_19
REMARK    7  A    between atoms: C_19  and  C_20
REMARK    8  A    between atoms: C_20  and  C_21
REMARK    9  A    between atoms: C_21  and  N_62
REMARK   10  A    between atoms: C_22  and  N_62
REMARK   11  A    between atoms: C_23  and  N_62
REMARK   12  A    between atoms: C_24  and  C_25
REMARK                            x       y       z     vdW  Elec       q    Type
REMARK                         _______ _______ _______ _____ _____    ______ ____
ROOT
ATOM      1  C   UNL     1       3.226   4.783   4.344  0.00  0.00    +0.066 C 
ATOM      2  C   UNL     1       2.590   5.110   3.018  0.00  0.00    +0.047 A 
ATOM      3  C   UNL     1       2.400   6.441   2.650  0.00  0.00    +0.018 A 
ATOM      4  C   UNL     1       1.816   6.726   1.433  0.00  0.00    +0.128 A 
ATOM      5  N   UNL     1       1.440   5.688   0.622  0.00  0.00    -0.200 N 
ATOM      6  C   UNL     1       1.649   4.397   1.031  0.00  0.00    +0.166 A 
ATOM      7  N   UNL     1       2.217   4.138   2.213  0.00  0.00    -0.232 NA
ATOM      8  C   UNL     1       1.171   3.567   0.010  0.00  0.00    +0.049 A 
ATOM      9  C   UNL     1       0.683   4.399  -1.006  0.00  0.00    +0.070 A 
ATOM     10  N   UNL     1       0.838   5.648  -0.641  0.00  0.00    -0.168 NA
ATOM     11  C   UNL     1       0.076   3.934  -2.304  0.00  0.00    +0.068 C 
ENDROOT
BRANCH   8  12
ATOM     12  C   UNL     1       1.183   2.087   0.002  0.00  0.00    -0.013 A 
ATOM     13  C   UNL     1      -0.017   1.375   0.010  0.00  0.00    +0.009 A 
ATOM     14  C   UNL     1       0.002  -0.004   0.002  0.00  0.00    +0.001 A 
ATOM     15  C   UNL     1       1.208  -0.682  -0.014  0.00  0.00    +0.000 A 
ATOM     16  C   UNL     1       2.401   0.017  -0.021  0.00  0.00    +0.001 A 
ATOM     17  C   UNL     1       2.396   1.397  -0.013  0.00  0.00    +0.009 A 
ENDBRANCH   8  12
BRANCH   4  18
ATOM     18  N   UNL     1       1.615   8.031   1.040  0.00  0.00    -0.329 N 
ATOM     19  H   UNL     1       2.481   8.550   1.051  0.00  0.00    +0.147 HD
BRANCH  18  20
ATOM     20  C   UNL     1       0.983   8.091  -0.285  0.00  0.00    +0.101 C 
BRANCH  20  21
ATOM     21  C   UNL     1       0.776   9.553  -0.686  0.00  0.00    +0.000 C 
BRANCH  21  22
ATOM     22  C   UNL     1       0.118   9.615  -2.066  0.00  0.00    -0.078 C 
BRANCH  22  25
ATOM     23  C   UNL     1      -0.489  11.126  -3.858  0.00  0.00    -0.097 C 
ATOM     24  C   UNL     1      -1.055  11.674  -1.569  0.00  0.00    -0.097 C 
ATOM     25  N   UNL     1      -0.056  11.032  -2.448  0.00  0.00    +0.376 N 
ATOM     26  H   UNL     1       0.843  11.518  -2.342  0.00  0.00    -0.083 HD
ENDBRANCH  22  25
ENDBRANCH  21  22
ENDBRANCH  20  21
ENDBRANCH  18  20
ENDBRANCH   4  18
BRANCH   3  27
ATOM     27  C   UNL     1       2.826   7.556   3.570  0.00  0.00    +0.075 C 
BRANCH  27  28
ATOM     28  C   UNL     1       1.687   7.913   4.489  0.00  0.00    -0.043 A 
ATOM     29  C   UNL     1       0.778   8.887   4.117  0.00  0.00    +0.004 A 
ATOM     30  C   UNL     1      -0.270   9.211   4.957  0.00  0.00    +0.000 A 
ATOM     31  C   UNL     1      -0.405   8.569   6.174  0.00  0.00    +0.000 A 
ATOM     32  C   UNL     1       0.507   7.599   6.548  0.00  0.00    +0.000 A 
ATOM     33  C   UNL     1       1.552   7.271   5.705  0.00  0.00    +0.004 A 
ENDBRANCH  27  28
ENDBRANCH   3  27
TORSDOF 8
