REMARK  Name = ZINC57882601
REMARK  7 active torsions:
REMARK  status: ('A' for Active; 'I' for Inactive)
REMARK    1  A    between atoms: C_1  and  C_2
REMARK    2  A    between atoms: C_2  and  C_3
REMARK    3  A    between atoms: C_2  and  O_4
REMARK    4  A    between atoms: O_4  and  C_5
REMARK    5  A    between atoms: C_8  and  C_12
REMARK    6  A    between atoms: C_10  and  N_11
REMARK    7  A    between atoms: C_12  and  C_14
REMARK                            x       y       z     vdW  Elec       q    Type
REMARK                         _______ _______ _______ _____ _____    ______ ____
ROOT
ATOM      1  C   UNL     1      -1.981  -0.525  -1.188  0.00  0.00    +0.141 A 
ATOM      2  C   UNL     1      -1.285  -0.265  -2.361  0.00  0.00    +0.048 A 
ATOM      3  C   UNL     1      -1.910  -0.399  -3.582  0.00  0.00    +0.015 A 
ATOM      4  C   UNL     1      -3.248  -0.798  -3.642  0.00  0.00    +0.027 A 
ATOM      5  C   UNL     1      -3.950  -1.060  -2.462  0.00  0.00    +0.038 A 
ATOM      6  C   UNL     1      -3.316  -0.929  -1.241  0.00  0.00    +0.068 A 
ENDROOT
BRANCH   6   7
ATOM      7  N   UNL     1      -4.013  -1.196  -0.057  0.00  0.00    -0.355 N 
ATOM      8  H   UNL     1      -3.569  -1.100   0.800  0.00  0.00    +0.142 HD
ATOM      9  H   UNL     1      -4.941  -1.477  -0.094  0.00  0.00    +0.142 HD
ENDBRANCH   6   7
BRANCH   4  10
ATOM     10  C   UNL     1      -3.919  -0.942  -4.950  0.00  0.00    +0.228 C 
ATOM     11  O   UNL     1      -3.278  -0.827  -5.979  0.00  0.00    -0.283 OA
BRANCH  10  12
ATOM     12  C   UNL     1      -5.354  -1.222  -5.009  0.00  0.00    +0.176 A 
ATOM     13  C   UNL     1      -6.127  -1.266  -6.150  0.00  0.00    +0.054 A 
ATOM     14  C   UNL     1      -7.432  -1.566  -5.738  0.00  0.00    +0.057 A 
ATOM     15  C   UNL     1      -7.407  -1.692  -4.390  0.00  0.00    +0.171 A 
ATOM     16  O   UNL     1      -6.156  -1.491  -3.957  0.00  0.00    -0.445 OA
ATOM     17 BR   UNL     1      -8.897  -2.095  -3.297  0.00  0.00    -0.008 Br
ENDBRANCH  10  12
ENDBRANCH   4  10
BRANCH   1  18
ATOM     18  O   UNL     1      -1.360  -0.391   0.012  0.00  0.00    -0.488 OA
BRANCH  18  20
ATOM     19  C   UNL     1       0.244   1.409  -0.162  0.00  0.00    +0.051 C 
ATOM     20  C   UNL     1       0.039  -0.100  -0.010  0.00  0.00    +0.167 C 
ATOM     21  C   UNL     1       0.679  -0.572   1.297  0.00  0.00    +0.051 C 
ENDBRANCH  18  20
ENDBRANCH   1  18
TORSDOF 5
