REMARK  Name = ZINC57491397
REMARK  13 active torsions:
REMARK  status: ('A' for Active; 'I' for Inactive)
REMARK    1  A    between atoms: C_1  and  C_2
REMARK    2  A    between atoms: C_2  and  C_3
REMARK    3  A    between atoms: C_5  and  C_8
REMARK    4  A    between atoms: C_8  and  C_10
REMARK    5  A    between atoms: C_8  and  S_11
REMARK    6  A    between atoms: S_11  and  C_12
REMARK    7  A    between atoms: C_15  and  C_18
REMARK    8  A    between atoms: N_16  and  C_17
REMARK    9  A    between atoms: C_21  and  N_24
REMARK   10  A    between atoms: N_24  and  C_25
REMARK   11  A    between atoms: N_24  and  C_27
REMARK   12  A    between atoms: C_25  and  C_26
REMARK   13  A    between atoms: C_27  and  C_28
REMARK                            x       y       z     vdW  Elec       q    Type
REMARK                         _______ _______ _______ _____ _____    ______ ____
ROOT
ATOM      1  C   UNL     1       1.434  -1.103  -7.426  0.00  0.00    +0.192 A 
ATOM      2  N   UNL     1       0.467  -1.946  -7.710  0.00  0.00    -0.122 NA
ATOM      3  N   UNL     1       0.399  -2.129  -8.980  0.00  0.00    -0.128 NA
ATOM      4  C   UNL     1       1.319  -1.414  -9.585  0.00  0.00    +0.165 A 
ATOM      5  N   UNL     1       2.006  -0.730  -8.609  0.00  0.00    -0.305 N 
ATOM      6  C   UNL     1       3.121   0.201  -8.799  0.00  0.00    +0.153 C 
ENDROOT
BRANCH   4   7
ATOM      7  C   UNL     1       1.565  -1.351 -11.041  0.00  0.00    +0.019 A 
ATOM      8  C   UNL     1       2.783  -0.868 -11.525  0.00  0.00    +0.013 A 
ATOM      9  C   UNL     1       3.010  -0.810 -12.883  0.00  0.00    +0.024 A 
ATOM     10  C   UNL     1       2.027  -1.232 -13.771  0.00  0.00    +0.030 A 
ATOM     11  C   UNL     1       0.813  -1.713 -13.293  0.00  0.00    +0.024 A 
ATOM     12  C   UNL     1       0.583  -1.779 -11.937  0.00  0.00    +0.013 A 
BRANCH  10  13
ATOM     13  N   UNL     1       2.260  -1.172 -15.146  0.00  0.00    -0.330 N 
BRANCH  13  14
ATOM     14  C   UNL     1       1.226  -1.615 -16.084  0.00  0.00    +0.102 C 
ATOM     15  C   UNL     1       0.322  -0.434 -16.444  0.00  0.00    +0.024 C 
ENDBRANCH  13  14
BRANCH  13  16
ATOM     16  C   UNL     1       3.538  -0.665 -15.652  0.00  0.00    +0.102 C 
ATOM     17  C   UNL     1       4.526  -1.824 -15.794  0.00  0.00    +0.024 C 
ENDBRANCH  13  16
ENDBRANCH  10  13
ENDBRANCH   4   7
BRANCH   1  18
ATOM     18  S   UNL     1       1.900  -0.551  -5.819  0.00  0.00    -0.073 S 
BRANCH  18  19
ATOM     19  C   UNL     1       0.757  -1.416  -4.708  0.00  0.00    +0.140 C 
ATOM     20  C   UNL     1       1.019  -2.922  -4.780  0.00  0.00    +0.029 C 
BRANCH  19  23
ATOM     21  C   UNL     1       0.573  -0.234  -1.286  0.00  0.00    +0.172 A 
ATOM     22  N   UNL     1       0.031  -0.619  -2.447  0.00  0.00    -0.195 NA
ATOM     23  C   UNL     1       0.969  -0.936  -3.296  0.00  0.00    +0.240 A 
ATOM     24  O   UNL     1       2.154  -0.762  -2.695  0.00  0.00    -0.337 OA
ATOM     25  N   UNL     1       1.869  -0.297  -1.384  0.00  0.00    -0.061 NA
BRANCH  21  27
ATOM     26  C   UNL     1      -0.421   1.719  -0.125  0.00  0.00    +0.012 C 
ATOM     27  C   UNL     1      -0.193   0.207  -0.066  0.00  0.00    +0.076 C 
ENDBRANCH  21  27
ENDBRANCH  19  23
ENDBRANCH  18  19
ENDBRANCH   1  18
TORSDOF 8
