REMARK  Name = ZINC37404777
REMARK  7 active torsions:
REMARK  status: ('A' for Active; 'I' for Inactive)
REMARK    1  A    between atoms: C_1  and  C_2
REMARK    2  A    between atoms: C_4  and  N_10
REMARK    3  A    between atoms: C_6  and  C_7
REMARK    4  A    between atoms: C_11  and  C_13
REMARK    5  A    between atoms: C_14  and  C_20
REMARK    6  A    between atoms: C_15  and  C_19
REMARK    7  A    between atoms: C_17  and  C_18
REMARK                            x       y       z     vdW  Elec       q    Type
REMARK                         _______ _______ _______ _____ _____    ______ ____
ROOT
ATOM      1  N   UNL     1       0.033  -3.009  -2.134  0.00  0.00    -0.276 N 
ATOM      2  C   UNL     1       0.052  -4.332  -1.877  0.00  0.00    +0.252 C 
ATOM      3  O   UNL     1       0.063  -4.728  -0.727  0.00  0.00    -0.270 OA
ATOM      4  H   UNL     1       0.024  -2.694  -3.052  0.00  0.00    +0.156 HD
ENDROOT
BRANCH   2   5
ATOM      5  C   UNL     1       0.060  -5.299  -2.989  0.00  0.00    +0.081 A 
ATOM      6  C   UNL     1       1.236  -5.871  -3.661  0.00  0.00    +0.003 A 
ATOM      7  C   UNL     1       0.756  -6.696  -4.604  0.00  0.00    +0.106 A 
ATOM      8  O   UNL     1      -0.586  -6.677  -4.565  0.00  0.00    -0.464 OA
ATOM      9  C   UNL     1      -1.023  -5.855  -3.606  0.00  0.00    +0.115 A 
ATOM     10  C   UNL     1      -2.466  -5.586  -3.266  0.00  0.00    +0.087 C 
ATOM     11  C   UNL     1       1.591  -7.514  -5.556  0.00  0.00    +0.086 C 
ATOM     12  C   UNL     1       2.683  -5.587  -3.355  0.00  0.00    +0.048 C 
ENDBRANCH   2   5
BRANCH   1  16
ATOM     13  C   UNL     1      -0.018   1.503   0.010  0.00  0.00    +0.045 C 
ATOM     14  C   UNL     1       0.002  -0.004   0.002  0.00  0.00    -0.027 A 
ATOM     15  C   UNL     1       0.007  -0.723  -1.161  0.00  0.00    +0.035 A 
ATOM     16  C   UNL     1       0.026  -2.099  -1.088  0.00  0.00    +0.073 A 
ATOM     17  S   UNL     1       0.037  -2.421   0.561  0.00  0.00    -0.067 S 
ATOM     18  C   UNL     1       0.023  -0.749   1.178  0.00  0.00    +0.105 A 
BRANCH  18  19
ATOM     19  C   UNL     1       0.030  -0.296   2.515  0.00  0.00    +0.393 C 
ATOM     20  O   UNL     1       0.016   0.906   2.755  0.00  0.00    -0.240 OA
ATOM     21  O   UNL     1       0.050  -1.105   3.436  0.00  0.00    -0.240 OA
ENDBRANCH  18  19
ENDBRANCH   1  16
TORSDOF 3
