REMARK  Name = ZINC06443854
REMARK  10 active torsions:
REMARK  status: ('A' for Active; 'I' for Inactive)
REMARK    1  A    between atoms: C_1  and  C_2
REMARK    2  A    between atoms: C_12  and  C_14
REMARK    3  A    between atoms: C_14  and  C_16
REMARK    4  A    between atoms: C_14  and  N_64
REMARK    5  A    between atoms: N_20  and  C_21
REMARK    6  A    between atoms: C_21  and  C_22
REMARK    7  A    between atoms: C_28  and  C_29
REMARK    8  A    between atoms: C_28  and  N_64
REMARK    9  A    between atoms: C_34  and  C_35
REMARK   10  A    between atoms: C_34  and  N_64
REMARK                            x       y       z     vdW  Elec       q    Type
REMARK                         _______ _______ _______ _____ _____    ______ ____
ROOT
ATOM      1  C   UNL     1       2.356   6.466  -2.361  0.00  0.00    +0.040 C 
ENDROOT
BRANCH   1  13
ATOM      2  C   UNL     1      -3.708   5.614  -4.750  0.00  0.00    +0.046 C 
ATOM      3  C   UNL     1      -3.187   5.619  -3.336  0.00  0.00    -0.026 A 
ATOM      4  C   UNL     1      -4.051   5.421  -2.280  0.00  0.00    +0.005 A 
ATOM      5  C   UNL     1      -3.584   5.424  -0.973  0.00  0.00    +0.001 A 
ATOM      6  C   UNL     1      -2.258   5.624  -0.709  0.00  0.00    +0.010 A 
ATOM      7  C   UNL     1      -1.364   5.828  -1.764  0.00  0.00    -0.001 A 
ATOM      8  C   UNL     1      -1.834   5.825  -3.091  0.00  0.00    +0.052 A 
ATOM      9  N   UNL     1      -0.948   6.027  -4.128  0.00  0.00    -0.322 N 
ATOM     10  H   UNL     1      -1.274   6.025  -5.042  0.00  0.00    +0.169 HD
ATOM     11  C   UNL     1       0.359   6.232  -3.891  0.00  0.00    +0.251 A 
ATOM     12  O   UNL     1       1.113   6.412  -4.832  0.00  0.00    -0.268 OA
ATOM     13  C   UNL     1       0.882   6.238  -2.580  0.00  0.00    +0.011 A 
ATOM     14  C   UNL     1       0.063   6.046  -1.517  0.00  0.00    +0.017 A 
ENDBRANCH   1  13
BRANCH   1  15
ATOM     15  C   UNL     1       3.143   5.429  -3.120  0.00  0.00    +0.143 A 
ATOM     16  N   UNL     1       3.305   5.367  -4.419  0.00  0.00    -0.115 NA
ATOM     17  N   UNL     1       4.040   4.341  -4.680  0.00  0.00    -0.023 NA
ATOM     18  N   UNL     1       4.354   3.750  -3.580  0.00  0.00    -0.044 NA
ATOM     19  N   UNL     1       3.815   4.388  -2.596  0.00  0.00    -0.226 N 
BRANCH  19  20
ATOM     20  C   UNL     1       3.921   4.046  -1.176  0.00  0.00    +0.182 C 
BRANCH  20  21
ATOM     21  C   UNL     1       2.861   3.035  -0.822  0.00  0.00    -0.026 A 
ATOM     22  C   UNL     1       3.091   1.689  -1.037  0.00  0.00    +0.005 A 
ATOM     23  C   UNL     1       2.119   0.761  -0.712  0.00  0.00    +0.000 A 
ATOM     24  C   UNL     1       0.914   1.180  -0.178  0.00  0.00    +0.000 A 
ATOM     25  C   UNL     1       0.687   2.526   0.042  0.00  0.00    +0.000 A 
ATOM     26  C   UNL     1       1.659   3.453  -0.282  0.00  0.00    +0.005 A 
ENDBRANCH  20  21
ENDBRANCH  19  20
ENDBRANCH   1  15
BRANCH   1  27
ATOM     27  N   UNL     1       2.718   7.806  -2.868  0.00  0.00    +0.397 N 
ATOM     28  H   UNL     1       2.602   7.819  -3.888  0.00  0.00    -0.079 HD
BRANCH  27  29
ATOM     29  C   UNL     1       1.832   8.828  -2.272  0.00  0.00    -0.001 C 
BRANCH  29  30
ATOM     30  C   UNL     1       0.600   8.956  -3.131  0.00  0.00    +0.089 A 
ATOM     31  C   UNL     1      -0.652   8.629  -2.764  0.00  0.00    +0.042 A 
ATOM     32  C   UNL     1      -1.488   8.908  -3.869  0.00  0.00    +0.041 A 
ATOM     33  C   UNL     1      -0.697   9.388  -4.845  0.00  0.00    +0.195 A 
ATOM     34  O   UNL     1       0.566   9.420  -4.391  0.00  0.00    -0.470 OA
ENDBRANCH  29  30
ENDBRANCH  27  29
BRANCH  27  35
ATOM     35  C   UNL     1       4.127   8.106  -2.541  0.00  0.00    -0.034 C 
BRANCH  35  36
ATOM     36  C   UNL     1       5.013   7.424  -3.551  0.00  0.00    -0.027 A 
ATOM     37  C   UNL     1       5.327   7.813  -4.811  0.00  0.00    +0.009 A 
ATOM     38  C   UNL     1       6.170   7.019  -5.567  0.00  0.00    +0.008 A 
ATOM     39  C   UNL     1       6.658   5.876  -5.026  0.00  0.00    +0.045 A 
ATOM     40  S   UNL     1       5.926   5.897  -3.397  0.00  0.00    -0.103 S 
ENDBRANCH  35  36
ENDBRANCH  27  35
ENDBRANCH   1  27
TORSDOF 9
