REMARK  Name = ZINC58913176
REMARK  8 active torsions:
REMARK  status: ('A' for Active; 'I' for Inactive)
REMARK    1  A    between atoms: C_1  and  C_2
REMARK    2  A    between atoms: C_7  and  N_8
REMARK    3  A    between atoms: C_9  and  C_11
REMARK    4  A    between atoms: N_13  and  N_14
REMARK    5  A    between atoms: C_15  and  C_16
REMARK    6  A    between atoms: C_18  and  C_30
REMARK    7  A    between atoms: N_19  and  C_22
REMARK    8  A    between atoms: C_20  and  C_21
REMARK                            x       y       z     vdW  Elec       q    Type
REMARK                         _______ _______ _______ _____ _____    ______ ____
ROOT
ATOM      1  N   UNL     1      -0.350   0.059   7.240  0.00  0.00    -0.187 NA
ATOM      2  C   UNL     1      -0.429  -0.596   8.360  0.00  0.00    +0.140 C 
ENDROOT
BRANCH   2   3
ATOM      3  C   UNL     1      -0.537   0.134   9.634  0.00  0.00    +0.016 A 
ATOM      4  C   UNL     1      -0.627  -0.448  10.977  0.00  0.00    +0.032 A 
ATOM      5  C   UNL     1      -0.709   0.582  11.838  0.00  0.00    +0.022 A 
ATOM      6  N   UNL     1      -0.677   1.752  11.133  0.00  0.00    -0.316 N 
ATOM      7  C   UNL     1      -0.567   1.490   9.803  0.00  0.00    +0.030 A 
ATOM      8  C   UNL     1      -0.495   2.518   8.703  0.00  0.00    +0.064 C 
ATOM      9  C   UNL     1      -0.819   0.466  13.336  0.00  0.00    +0.064 C 
BRANCH   6  10
ATOM     10  C   UNL     1      -0.741   3.033  11.697  0.00  0.00    +0.066 A 
ATOM     11  C   UNL     1       0.425   3.692  12.061  0.00  0.00    +0.028 A 
ATOM     12  C   UNL     1       0.359   4.955  12.617  0.00  0.00    +0.004 A 
ATOM     13  C   UNL     1      -0.867   5.564  12.811  0.00  0.00    +0.021 A 
ATOM     14  C   UNL     1      -2.032   4.911  12.450  0.00  0.00    +0.061 A 
ATOM     15  C   UNL     1      -1.972   3.648  11.888  0.00  0.00    +0.083 A 
ATOM     16 CL   UNL     1      -3.433   2.831  11.427  0.00  0.00    -0.080 Cl
ATOM     17 CL   UNL     1      -3.570   5.679  12.697  0.00  0.00    -0.082 Cl
ENDBRANCH   6  10
ENDBRANCH   2   3
BRANCH   1  20
ATOM     18  C   UNL     1      -0.166   0.044   4.867  0.00  0.00    +0.318 C 
ATOM     19  O   UNL     1      -0.181   1.259   4.872  0.00  0.00    -0.263 OA
ATOM     20  N   UNL     1      -0.247  -0.635   6.028  0.00  0.00    -0.199 N 
ATOM     21  H   UNL     1      -0.234  -1.605   6.024  0.00  0.00    +0.178 HD
BRANCH  18  23
ATOM     22  N   UNL     1       0.026  -0.015   2.416  0.00  0.00    -0.277 N 
ATOM     23  C   UNL     1      -0.056  -0.695   3.577  0.00  0.00    +0.305 C 
ATOM     24  O   UNL     1      -0.040  -1.909   3.572  0.00  0.00    -0.265 OA
ATOM     25  H   UNL     1       0.079   0.953   2.424  0.00  0.00    +0.155 HD
BRANCH  22  32
ATOM     26  C   UNL     1      -1.267   1.182   0.183  0.00  0.00    +0.046 C 
ATOM     27  C   UNL     1      -0.586  -0.158   0.085  0.00  0.00    -0.028 A 
ATOM     28  C   UNL     1      -0.571  -0.840  -1.116  0.00  0.00    +0.025 A 
ATOM     29  C   UNL     1       0.054  -2.071  -1.206  0.00  0.00    +0.041 A 
ATOM     30  C   UNL     1       0.666  -2.623  -0.094  0.00  0.00    +0.022 A 
ATOM     31  C   UNL     1       0.655  -1.946   1.109  0.00  0.00    +0.025 A 
ATOM     32  C   UNL     1       0.033  -0.706   1.201  0.00  0.00    +0.037 A 
ATOM     33 CL   UNL     1       0.070  -2.926  -2.717  0.00  0.00    -0.084 Cl
ENDBRANCH  22  32
ENDBRANCH  18  23
ENDBRANCH   1  20
TORSDOF 5
