REMARK  Name = ZINC49497562
REMARK  6 active torsions:
REMARK  status: ('A' for Active; 'I' for Inactive)
REMARK    1  A    between atoms: C_4  and  N_20
REMARK    2  A    between atoms: C_5  and  C_7
REMARK    3  A    between atoms: N_9  and  C_10
REMARK    4  A    between atoms: C_10  and  C_11
REMARK    5  A    between atoms: N_13  and  C_14
REMARK    6  A    between atoms: C_14  and  C_15
REMARK                            x       y       z     vdW  Elec       q    Type
REMARK                         _______ _______ _______ _____ _____    ______ ____
ROOT
ATOM      1  C   UNL     1       1.489  -2.110  -0.041  0.00  0.00    +0.266 C 
ATOM      2  O   UNL     1       2.605  -2.587   0.031  0.00  0.00    -0.268 OA
ATOM      3  N   UNL     1       0.415  -2.919  -0.139  0.00  0.00    -0.301 N 
ATOM      4  H   UNL     1      -0.475  -2.538  -0.197  0.00  0.00    +0.150 HD
ENDROOT
BRANCH   1   9
ATOM      5  C   UNL     1      -0.069   1.188   0.026  0.00  0.00    +0.131 A 
ATOM      6  C   UNL     1       1.037   2.027   0.010  0.00  0.00    +0.132 A 
ATOM      7  N   UNL     1       2.256   1.522  -0.022  0.00  0.00    -0.237 NA
ATOM      8  C   UNL     1       2.429   0.205  -0.039  0.00  0.00    +0.147 A 
ATOM      9  C   UNL     1       1.310  -0.643  -0.022  0.00  0.00    +0.165 A 
ATOM     10  N   UNL     1       0.087  -0.120   0.010  0.00  0.00    -0.246 NA
BRANCH   8  11
ATOM     11  N   UNL     1       3.704  -0.329  -0.073  0.00  0.00    -0.341 N 
ATOM     12  H   UNL     1       4.472   0.257  -0.164  0.00  0.00    +0.144 HD
ATOM     13  H   UNL     1       3.831  -1.288  -0.006  0.00  0.00    +0.144 HD
ENDBRANCH   8  11
ENDBRANCH   1   9
BRANCH   3  14
ATOM     14  C   UNL     1       0.593  -4.373  -0.158  0.00  0.00    +0.200 C 
BRANCH  14  15
ATOM     15  C   UNL     1      -0.752  -5.042  -0.273  0.00  0.00    +0.230 C 
ATOM     16  O   UNL     1      -1.760  -4.370  -0.333  0.00  0.00    -0.274 OA
ATOM     17  N   UNL     1      -0.835  -6.386  -0.309  0.00  0.00    -0.314 N 
ATOM     18  H   UNL     1      -0.029  -6.924  -0.261  0.00  0.00    +0.149 HD
BRANCH  17  19
ATOM     19  C   UNL     1      -2.143  -7.037  -0.421  0.00  0.00    +0.107 C 
BRANCH  19  20
ATOM     20  C   UNL     1      -1.957  -8.556  -0.440  0.00  0.00    +0.006 C 
ATOM     21  C   UNL     1      -1.252  -8.985  -1.744  0.00  0.00    +0.005 C 
ATOM     22  C   UNL     1      -1.928 -10.327  -2.117  0.00  0.00    +0.000 C 
ATOM     23  C   UNL     1      -3.408 -10.084  -1.730  0.00  0.00    +0.000 C 
ATOM     24  C   UNL     1      -3.328  -9.254  -0.432  0.00  0.00    +0.005 C 
ENDBRANCH  19  20
ENDBRANCH  17  19
ENDBRANCH  14  15
ENDBRANCH   3  14
TORSDOF 6
