REMARK  Name = ZINC36153521
REMARK  5 active torsions:
REMARK  status: ('A' for Active; 'I' for Inactive)
REMARK    1  A    between atoms: C_1  and  C_2
REMARK    2  A    between atoms: C_2  and  C_3
REMARK    3  A    between atoms: C_2  and  N_4
REMARK    4  A    between atoms: C_9  and  C_22
REMARK    5  A    between atoms: C_9  and  C_23
REMARK                            x       y       z     vdW  Elec       q    Type
REMARK                         _______ _______ _______ _____ _____    ______ ____
ROOT
ATOM      1  N   UNL     1       0.688  -0.476  -1.203  0.00  0.00    -0.297 N 
ATOM      2  C   UNL     1       2.031  -0.587  -1.215  0.00  0.00    +0.304 C 
ATOM      3  O   UNL     1       2.674  -0.294  -0.225  0.00  0.00    -0.253 OA
ATOM      4  N   UNL     1       2.662  -1.022  -2.324  0.00  0.00    -0.258 N 
ATOM      5  C   UNL     1       1.935  -1.381  -3.544  0.00  0.00    +0.128 C 
ATOM      6  C   UNL     1       2.798  -1.091  -4.809  0.00  0.00    +0.030 C 
ATOM      7  S   UNL     1       4.446  -1.601  -4.137  0.00  0.00    -0.113 S 
ATOM      8  C   UNL     1       4.115  -1.159  -2.388  0.00  0.00    +0.190 C 
ATOM      9  C   UNL     1       4.645  -2.216  -1.466  0.00  0.00    +0.018 A 
ATOM     10  C   UNL     1       4.385  -3.558  -1.307  0.00  0.00    +0.029 A 
ATOM     11  C   UNL     1       5.059  -4.285  -0.340  0.00  0.00    +0.041 A 
ATOM     12  C   UNL     1       5.993  -3.658   0.466  0.00  0.00    +0.022 A 
ATOM     13  C   UNL     1       6.255  -2.313   0.310  0.00  0.00    +0.025 A 
ATOM     14  C   UNL     1       5.582  -1.574  -0.660  0.00  0.00    +0.040 A 
ATOM     15  N   UNL     1       5.671  -0.223  -1.004  0.00  0.00    -0.282 N 
ATOM     16  C   UNL     1       4.838   0.101  -2.013  0.00  0.00    +0.256 C 
ATOM     17  O   UNL     1       4.699   1.195  -2.517  0.00  0.00    -0.272 OA
ATOM     18 CL   UNL     1       4.731  -5.978  -0.138  0.00  0.00    -0.084 Cl
ATOM     19  C   UNL     1       2.376  -1.967  -5.990  0.00  0.00    +0.024 C 
ATOM     20  C   UNL     1       2.775   0.394  -5.178  0.00  0.00    +0.024 C 
ATOM     21  H   UNL     1       0.175  -0.710  -1.993  0.00  0.00    +0.150 HD
ATOM     22  H   UNL     1       6.264   0.409  -0.567  0.00  0.00    +0.155 HD
ENDROOT
BRANCH   1  24
ATOM     23  C   UNL     1      -0.019   1.526   0.010  0.00  0.00    +0.027 C 
ATOM     24  C   UNL     1       0.002  -0.004   0.002  0.00  0.00    +0.068 C 
ATOM     25  C   UNL     1      -1.433  -0.534   0.013  0.00  0.00    +0.027 C 
ENDBRANCH   1  24
TORSDOF 1
