REMARK  Name = ZINC12123587
REMARK  9 active torsions:
REMARK  status: ('A' for Active; 'I' for Inactive)
REMARK    1  A    between atoms: C_1  and  C_2
REMARK    2  A    between atoms: C_4  and  C_7
REMARK    3  A    between atoms: C_10  and  C_27
REMARK    4  A    between atoms: N_15  and  C_18
REMARK    5  A    between atoms: C_21  and  C_24
REMARK    6  A    between atoms: C_24  and  C_26
REMARK    7  A    between atoms: N_29  and  C_30
REMARK    8  A    between atoms: C_30  and  C_31
REMARK    9  A    between atoms: C_33  and  C_36
REMARK                            x       y       z     vdW  Elec       q    Type
REMARK                         _______ _______ _______ _____ _____    ______ ____
ROOT
ATOM      1  C   UNL     1       2.010   9.422   0.183  0.00  0.00    +0.054 A 
ATOM      2  C   UNL     1       1.280  10.151  -0.761  0.00  0.00    +0.027 A 
ATOM      3  C   UNL     1       0.566   9.486  -1.721  0.00  0.00    +0.018 A 
ATOM      4  C   UNL     1       0.591   8.084  -1.726  0.00  0.00    +0.075 A 
ATOM      5  C   UNL     1       1.345   7.410  -0.748  0.00  0.00    +0.112 A 
ATOM      6  N   UNL     1       1.381   6.028  -0.738  0.00  0.00    -0.313 N 
ATOM      7  C   UNL     1       2.720   5.538  -0.385  0.00  0.00    +0.125 C 
ATOM      8  C   UNL     1       2.738   4.010  -0.462  0.00  0.00    +0.124 C 
ATOM      9  N   UNL     1       1.723   3.464   0.450  0.00  0.00    -0.327 N 
ATOM     10  C   UNL     1       0.384   3.954   0.097  0.00  0.00    +0.124 C 
ATOM     11  C   UNL     1       0.366   5.482   0.174  0.00  0.00    +0.125 C 
ATOM     12  N   UNL     1       2.058   8.053   0.219  0.00  0.00    -0.342 N 
ATOM     13  H   UNL     1       2.596   7.544   0.930  0.00  0.00    +0.167 HD
ENDROOT
BRANCH   1  17
ATOM     14  C   UNL     1       5.045   9.979   4.205  0.00  0.00    +0.044 C 
ATOM     15  C   UNL     1       4.184  10.499   3.083  0.00  0.00    -0.043 A 
ATOM     16  C   UNL     1       3.554   9.627   2.227  0.00  0.00    +0.021 A 
ATOM     17  C   UNL     1       2.778  10.138   1.217  0.00  0.00    +0.036 A 
ATOM     18  S   UNL     1       2.949  11.896   1.477  0.00  0.00    -0.095 S 
ATOM     19  C   UNL     1       4.021  11.838   2.903  0.00  0.00    +0.049 A 
ENDBRANCH   1  17
BRANCH   9  20
ATOM     20  C   UNL     1       1.759   2.075   0.460  0.00  0.00    +0.030 A 
ATOM     21  C   UNL     1       0.872   1.364   1.264  0.00  0.00    +0.024 A 
ATOM     22  C   UNL     1       0.903  -0.001   1.278  0.00  0.00    +0.013 A 
ATOM     23  C   UNL     1       1.829  -0.686   0.480  0.00  0.00    +0.017 A 
ATOM     24  C   UNL     1       2.720   0.033  -0.327  0.00  0.00    +0.013 A 
ATOM     25  C   UNL     1       2.682   1.398  -0.334  0.00  0.00    +0.024 A 
BRANCH  23  26
ATOM     26  C   UNL     1       1.867  -2.153   0.491  0.00  0.00    +0.160 C 
ATOM     27  O   UNL     1       1.172  -2.772   1.269  0.00  0.00    -0.292 OA
ATOM     28  C   UNL     1       2.770  -2.891  -0.464  0.00  0.00    +0.091 C 
ENDBRANCH  23  26
ENDBRANCH   9  20
BRANCH   4  29
ATOM     29  C   UNL     1      -0.161   7.328  -2.740  0.00  0.00    +0.248 C 
ATOM     30  O   UNL     1      -0.168   6.112  -2.711  0.00  0.00    -0.270 OA
ATOM     31  N   UNL     1      -0.843   7.982  -3.701  0.00  0.00    -0.304 N 
ATOM     32  H   UNL     1      -0.837   8.952  -3.724  0.00  0.00    +0.149 HD
BRANCH  31  33
ATOM     33  C   UNL     1      -1.591   7.230  -4.711  0.00  0.00    +0.181 C 
BRANCH  33  34
ATOM     34  C   UNL     1      -2.258   8.190  -5.661  0.00  0.00    +0.154 A 
ATOM     35  C   UNL     1      -1.739   8.687  -6.809  0.00  0.00    +0.072 A 
ATOM     36  C   UNL     1      -2.759   9.528  -7.310  0.00  0.00    +0.081 A 
ATOM     37  N   UNL     1      -3.742   9.459  -6.460  0.00  0.00    -0.083 NA
ATOM     38  O   UNL     1      -3.485   8.717  -5.541  0.00  0.00    -0.358 OA
ATOM     39  C   UNL     1      -2.717  10.341  -8.578  0.00  0.00    +0.069 C 
ENDBRANCH  33  34
ENDBRANCH  31  33
ENDBRANCH   4  29
TORSDOF 6
