REMARK  Name = ZINC42957757
REMARK  6 active torsions:
REMARK  status: ('A' for Active; 'I' for Inactive)
REMARK    1  A    between atoms: C_7  and  C_11
REMARK    2  A    between atoms: C_11  and  C_12
REMARK    3  A    between atoms: C_12  and  N_13
REMARK    4  A    between atoms: N_16  and  N_17
REMARK    5  A    between atoms: C_18  and  C_20
REMARK    6  A    between atoms: C_20  and  C_21
REMARK                            x       y       z     vdW  Elec       q    Type
REMARK                         _______ _______ _______ _____ _____    ______ ____
ROOT
ATOM      1  N   UNL     1      -0.675  -4.736  -1.452  0.00  0.00    -0.298 N 
ATOM      2  C   UNL     1      -1.186  -5.195  -2.612  0.00  0.00    +0.316 C 
ATOM      3  O   UNL     1      -0.890  -4.656  -3.661  0.00  0.00    -0.251 OA
ATOM      4  N   UNL     1      -2.024  -6.250  -2.609  0.00  0.00    -0.218 N 
ATOM      5  H   UNL     1      -0.911  -5.166  -0.615  0.00  0.00    +0.150 HD
ATOM      6  H   UNL     1      -2.391  -6.580  -3.444  0.00  0.00    +0.174 HD
ENDROOT
BRANCH   4   7
ATOM      7  N   UNL     1      -2.364  -6.871  -1.400  0.00  0.00    -0.233 N 
ATOM      8  C   UNL     1      -3.202  -7.926  -1.397  0.00  0.00    +0.230 C 
ATOM      9  O   UNL     1      -3.662  -8.339  -2.441  0.00  0.00    -0.274 OA
ATOM     10  H   UNL     1      -1.997  -6.541  -0.565  0.00  0.00    +0.173 HD
BRANCH   8  11
ATOM     11  C   UNL     1      -3.568  -8.594  -0.096  0.00  0.00    +0.104 C 
BRANCH  11  12
ATOM     12  C   UNL     1      -4.526  -9.755  -0.371  0.00  0.00    -0.020 C 
ATOM     13  C   UNL     1      -5.792  -9.224  -1.046  0.00  0.00    +0.011 C 
ATOM     14  C   UNL     1      -6.750 -10.385  -1.321  0.00  0.00    -0.010 C 
ATOM     15  C   UNL     1      -7.121 -11.063  -0.000  0.00  0.00    +0.007 C 
ATOM     16  C   UNL     1      -5.855 -11.595   0.674  0.00  0.00    -0.010 C 
ATOM     17  C   UNL     1      -4.898 -10.433   0.949  0.00  0.00    +0.011 C 
ATOM     18  C   UNL     1      -5.175 -12.610  -0.246  0.00  0.00    +0.007 C 
ATOM     19  C   UNL     1      -4.803 -11.932  -1.567  0.00  0.00    -0.010 C 
ATOM     20  C   UNL     1      -6.069 -11.400  -2.241  0.00  0.00    +0.007 C 
ATOM     21  C   UNL     1      -3.845 -10.770  -1.292  0.00  0.00    +0.011 C 
ENDBRANCH  11  12
ENDBRANCH   8  11
ENDBRANCH   4   7
BRANCH   1  22
ATOM     22  C   UNL     1       0.236  -3.589  -1.455  0.00  0.00    +0.110 C 
BRANCH  22  23
ATOM     23  C   UNL     1       0.666  -3.275  -0.021  0.00  0.00    +0.056 C 
BRANCH  23  30
ATOM     24  C   UNL     1      -0.017   1.362   0.009  0.00  0.00    +0.001 A 
ATOM     25  C   UNL     1       1.170   2.083   0.002  0.00  0.00    +0.002 A 
ATOM     26  C   UNL     1       2.386   1.436  -0.013  0.00  0.00    +0.026 A 
ATOM     27  C   UNL     1       2.428   0.046  -0.021  0.00  0.00    +0.047 A 
ATOM     28  C   UNL     1       1.223  -0.681  -0.013  0.00  0.00    +0.003 A 
ATOM     29  C   UNL     1       0.002  -0.004   0.002  0.00  0.00    +0.010 A 
ATOM     30  C   UNL     1       1.604  -2.095  -0.025  0.00  0.00    -0.021 A 
ATOM     31  C   UNL     1       2.945  -2.141  -0.038  0.00  0.00    +0.087 A 
ATOM     32  N   UNL     1       3.455  -0.871  -0.036  0.00  0.00    -0.360 N 
ATOM     33  H   UNL     1       4.399  -0.650  -0.044  0.00  0.00    +0.165 HD
ENDBRANCH  23  30
ENDBRANCH  22  23
ENDBRANCH   1  22
TORSDOF 6
