REMARK  Name = ZINC10011357
REMARK  12 active torsions:
REMARK  status: ('A' for Active; 'I' for Inactive)
REMARK    1  A    between atoms: C_1  and  C_2
REMARK    2  A    between atoms: C_2  and  C_3
REMARK    3  A    between atoms: C_2  and  C_4
REMARK    4  A    between atoms: C_4  and  O_5
REMARK    5  A    between atoms: O_5  and  C_6
REMARK    6  A    between atoms: C_11  and  C_12
REMARK    7  A    between atoms: N_14  and  C_15
REMARK    8  A    between atoms: C_15  and  N_17
REMARK    9  A    between atoms: N_17  and  C_18
REMARK   10  A    between atoms: C_23  and  O_24
REMARK   11  A    between atoms: O_24  and  C_25
REMARK   12  A    between atoms: C_25  and  C_26
REMARK                            x       y       z     vdW  Elec       q    Type
REMARK                         _______ _______ _______ _____ _____    ______ ____
ROOT
ATOM      1  C   UNL     1      -3.614  -1.047   0.258  0.00  0.00    +0.141 C 
ATOM      2  S   UNL     1      -5.070  -0.215   0.602  0.00  0.00    -0.018 S 
ENDROOT
BRANCH   1   5
ATOM      3  C   UNL     1      -2.420   0.946   0.493  0.00  0.00    +0.253 C 
ATOM      4  O   UNL     1      -3.454   1.536   0.738  0.00  0.00    -0.270 OA
ATOM      5  N   UNL     1      -2.444  -0.378   0.240  0.00  0.00    -0.263 N 
ATOM      6  H   UNL     1      -1.619  -0.849   0.045  0.00  0.00    +0.157 HD
BRANCH   3  12
ATOM      7  C   UNL     1      -1.110   3.053   0.741  0.00  0.00    +0.133 A 
ATOM      8  C   UNL     1       0.099   3.732   0.715  0.00  0.00    +0.047 A 
ATOM      9  C   UNL     1       1.268   3.055   0.430  0.00  0.00    +0.019 A 
ATOM     10  C   UNL     1       1.244   1.694   0.170  0.00  0.00    +0.019 A 
ATOM     11  C   UNL     1       0.051   1.002   0.193  0.00  0.00    +0.032 A 
ATOM     12  C   UNL     1      -1.140   1.677   0.474  0.00  0.00    +0.080 A 
ATOM     13 BR   UNL     1       2.854   0.781  -0.217  0.00  0.00    -0.050 Br
BRANCH   7  14
ATOM     14  O   UNL     1      -2.259   3.718   1.020  0.00  0.00    -0.491 OA
BRANCH  14  15
ATOM     15  C   UNL     1      -2.152   5.120   1.277  0.00  0.00    +0.232 C 
BRANCH  15  17
ATOM     16  C   UNL     1      -3.412   7.164   1.966  0.00  0.00    +0.010 C 
ATOM     17  C   UNL     1      -3.540   5.692   1.569  0.00  0.00    +0.020 C 
ATOM     18  C   UNL     1      -4.414   5.576   0.319  0.00  0.00    +0.010 C 
ENDBRANCH  15  17
ENDBRANCH  14  15
ENDBRANCH   7  14
ENDBRANCH   3  12
ENDBRANCH   1   5
BRANCH   1  19
ATOM     19  N   UNL     1      -3.637  -2.370   0.005  0.00  0.00    -0.294 N 
ATOM     20  H   UNL     1      -2.822  -2.829  -0.252  0.00  0.00    +0.154 HD
BRANCH  19  21
ATOM     21  C   UNL     1      -4.839  -3.082   0.112  0.00  0.00    +0.075 A 
ATOM     22  C   UNL     1      -5.996  -2.586  -0.471  0.00  0.00    +0.027 A 
ATOM     23  C   UNL     1      -7.180  -3.291  -0.364  0.00  0.00    +0.002 A 
ATOM     24  C   UNL     1      -7.215  -4.491   0.322  0.00  0.00    +0.004 A 
ATOM     25  C   UNL     1      -6.066  -4.992   0.905  0.00  0.00    +0.047 A 
ATOM     26  C   UNL     1      -4.874  -4.294   0.798  0.00  0.00    +0.142 A 
BRANCH  26  27
ATOM     27  O   UNL     1      -3.742  -4.788   1.367  0.00  0.00    -0.488 OA
BRANCH  27  28
ATOM     28  C   UNL     1      -3.852  -6.035   2.055  0.00  0.00    +0.260 C 
BRANCH  28  29
ATOM     29  C   UNL     1      -2.487  -6.427   2.624  0.00  0.00    +0.156 C 
ATOM     30  C   UNL     1      -2.619  -7.710   3.467  0.00  0.00    +0.037 C 
ATOM     31  C   UNL     1      -1.654  -8.712   2.787  0.00  0.00    +0.031 C 
ATOM     32  C   UNL     1      -0.702  -7.768   2.009  0.00  0.00    +0.160 C 
ATOM     33  O   UNL     1      -1.573  -6.710   1.550  0.00  0.00    -0.373 OA
ENDBRANCH  28  29
ENDBRANCH  27  28
ENDBRANCH  26  27
ENDBRANCH  19  21
ENDBRANCH   1  19
TORSDOF 10
