REMARK  Name = ZINC14966423
REMARK  4 active torsions:
REMARK  status: ('A' for Active; 'I' for Inactive)
REMARK    1  A    between atoms: C_1  and  C_2
REMARK    2  A    between atoms: C_7  and  C_8
REMARK    3  A    between atoms: N_14  and  C_15
REMARK    4  A    between atoms: C_15  and  C_16
REMARK                            x       y       z     vdW  Elec       q    Type
REMARK                         _______ _______ _______ _____ _____    ______ ____
ROOT
ATOM      1  C   UNL     1      -0.476   1.898  -7.037  0.00  0.00    +0.095 A 
ATOM      2  C   UNL     1       0.722   1.179  -6.972  0.00  0.00    +0.163 A 
ATOM      3  N   UNL     1       1.224   0.871  -5.791  0.00  0.00    -0.152 NA
ATOM      4  N   UNL     1       0.621   1.226  -4.711  0.00  0.00    -0.113 NA
ATOM      5  C   UNL     1      -0.516   1.908  -4.743  0.00  0.00    +0.236 A 
ATOM      6  N   UNL     1      -1.075   2.244  -5.898  0.00  0.00    -0.212 NA
ATOM      7  N   UNL     1      -1.131   2.269  -3.556  0.00  0.00    -0.310 N 
ATOM      8  H   UNL     1      -1.962   2.768  -3.573  0.00  0.00    +0.149 HD
ENDROOT
BRANCH   1  15
ATOM      9  C   UNL     1      -3.287   1.414  -7.519  0.00  0.00    +0.044 C 
ATOM     10  C   UNL     1      -2.424   2.034  -8.587  0.00  0.00    -0.041 A 
ATOM     11  C   UNL     1      -2.973   2.380  -9.805  0.00  0.00    +0.004 A 
ATOM     12  C   UNL     1      -2.181   2.944 -10.789  0.00  0.00    +0.000 A 
ATOM     13  C   UNL     1      -0.836   3.169 -10.556  0.00  0.00    +0.001 A 
ATOM     14  C   UNL     1      -0.277   2.832  -9.341  0.00  0.00    +0.010 A 
ATOM     15  C   UNL     1      -1.071   2.263  -8.345  0.00  0.00    +0.005 A 
ENDBRANCH   1  15
BRANCH   7  16
ATOM     16  C   UNL     1      -0.525   1.898  -2.275  0.00  0.00    +0.136 C 
BRANCH  16  17
ATOM     17  C   UNL     1      -1.398   2.414  -1.129  0.00  0.00    +0.135 C 
ATOM     18  C   UNL     1      -0.704   2.136   0.207  0.00  0.00    +0.033 C 
ATOM     19  C   UNL     1      -1.609   2.602   1.351  0.00  0.00    +0.005 C 
ATOM     20  C   UNL     1      -2.961   1.889   1.238  0.00  0.00    +0.028 C 
ATOM     21  C   UNL     1      -3.568   2.177  -0.137  0.00  0.00    +0.160 C 
ATOM     22  O   UNL     1      -2.662   1.748  -1.155  0.00  0.00    -0.375 OA
ENDBRANCH  16  17
ENDBRANCH   7  16
TORSDOF 3
