REMARK  Name = ZINC06843952
REMARK  7 active torsions:
REMARK  status: ('A' for Active; 'I' for Inactive)
REMARK    1  A    between atoms: C_1  and  C_2
REMARK    2  A    between atoms: C_2  and  C_4
REMARK    3  A    between atoms: C_2  and  S_14
REMARK    4  A    between atoms: C_7  and  C_9
REMARK    5  A    between atoms: S_14  and  C_15
REMARK    6  A    between atoms: C_17  and  C_26
REMARK    7  A    between atoms: N_18  and  C_20
REMARK                            x       y       z     vdW  Elec       q    Type
REMARK                         _______ _______ _______ _____ _____    ______ ____
ROOT
ATOM      1  C   UNL     1      -0.016   1.309   0.009  0.00  0.00    +0.210 A 
ATOM      2  N   UNL     1       1.244   1.757  -0.000  0.00  0.00    -0.205 NA
ATOM      3  C   UNL     1       2.074   0.746  -0.014  0.00  0.00    +0.137 A 
ATOM      4  N   UNL     1       1.352  -0.391  -0.013  0.00  0.00    -0.216 N 
ATOM      5  N   UNL     1       0.002  -0.004   0.002  0.00  0.00    -0.138 NA
ENDROOT
BRANCH   4   6
ATOM      6  C   UNL     1       1.849  -1.701  -0.025  0.00  0.00    +0.067 A 
ATOM      7  C   UNL     1       3.006  -1.999  -0.732  0.00  0.00    +0.028 A 
ATOM      8  C   UNL     1       3.497  -3.291  -0.738  0.00  0.00    +0.002 A 
ATOM      9  C   UNL     1       2.831  -4.288  -0.049  0.00  0.00    +0.000 A 
ATOM     10  C   UNL     1       1.675  -3.994   0.652  0.00  0.00    +0.002 A 
ATOM     11  C   UNL     1       1.183  -2.704   0.666  0.00  0.00    +0.028 A 
ENDBRANCH   4   6
BRANCH   3  12
ATOM     12  C   UNL     1       3.579   0.837  -0.028  0.00  0.00    +0.057 C 
ATOM     13  C   UNL     1       4.204   2.218   0.180  0.00  0.00    +0.012 C 
ATOM     14  C   UNL     1       4.231   1.565  -1.204  0.00  0.00    +0.012 C 
ENDBRANCH   3  12
BRANCH   1  15
ATOM     15  S   UNL     1      -1.462   2.315   0.022  0.00  0.00    -0.072 S 
BRANCH  15  17
ATOM     16  C   UNL     1      -2.803   0.319   1.326  0.00  0.00    +0.029 C 
ATOM     17  C   UNL     1      -2.828   1.120   0.023  0.00  0.00    +0.139 C 
BRANCH  17  18
ATOM     18  C   UNL     1      -4.138   1.855  -0.090  0.00  0.00    +0.231 A 
ATOM     19  N   UNL     1      -4.481   2.923   0.573  0.00  0.00    -0.111 NA
ATOM     20  N   UNL     1      -5.667   3.283   0.229  0.00  0.00    -0.107 NA
ATOM     21  C   UNL     1      -6.128   2.447  -0.676  0.00  0.00    +0.255 A 
ATOM     22  O   UNL     1      -5.163   1.530  -0.899  0.00  0.00    -0.419 OA
BRANCH  21  23
ATOM     23  C   UNL     1      -7.444   2.505  -1.328  0.00  0.00    +0.076 A 
ATOM     24  C   UNL     1      -8.469   3.414  -1.144  0.00  0.00    +0.021 A 
ATOM     25  C   UNL     1      -9.620   3.262  -1.881  0.00  0.00    +0.008 A 
ATOM     26  C   UNL     1      -9.719   2.225  -2.753  0.00  0.00    +0.046 A 
ATOM     27  S   UNL     1      -8.140   1.414  -2.559  0.00  0.00    -0.092 S 
ENDBRANCH  21  23
ENDBRANCH  17  18
ENDBRANCH  15  17
ENDBRANCH   1  15
TORSDOF 6
