REMARK  Name = ZINC22522800
REMARK  11 active torsions:
REMARK  status: ('A' for Active; 'I' for Inactive)
REMARK    1  A    between atoms: C_1  and  C_2
REMARK    2  A    between atoms: C_2  and  C_4
REMARK    3  A    between atoms: C_2  and  N_29
REMARK    4  A    between atoms: C_7  and  S_16
REMARK    5  A    between atoms: N_8  and  C_9
REMARK    6  A    between atoms: S_16  and  C_17
REMARK    7  A    between atoms: C_17  and  C_19
REMARK    8  A    between atoms: C_17  and  C_20
REMARK    9  A    between atoms: N_22  and  C_23
REMARK   10  A    between atoms: N_29  and  C_30
REMARK   11  A    between atoms: N_29  and  C_31
REMARK                            x       y       z     vdW  Elec       q    Type
REMARK                         _______ _______ _______ _____ _____    ______ ____
ROOT
ATOM      1  C   UNL     1      -0.581  -2.106  -0.003  0.00  0.00    +0.125 A 
ATOM      2  N   UNL     1       0.718  -2.007  -0.015  0.00  0.00    -0.135 NA
ATOM      3  N   UNL     1       1.068  -0.771  -0.012  0.00  0.00    -0.122 NA
ATOM      4  C   UNL     1       0.002  -0.004   0.002  0.00  0.00    +0.197 A 
ATOM      5  N   UNL     1      -1.086  -0.833   0.013  0.00  0.00    -0.275 N 
ENDROOT
BRANCH   5   6
ATOM      6  C   UNL     1      -2.438  -0.457   0.035  0.00  0.00    +0.050 A 
ATOM      7  C   UNL     1      -3.229  -0.769   1.131  0.00  0.00    +0.028 A 
ATOM      8  C   UNL     1      -4.558  -0.394   1.151  0.00  0.00    +0.022 A 
ATOM      9  C   UNL     1      -5.104   0.284   0.075  0.00  0.00    +0.041 A 
ATOM     10  C   UNL     1      -4.318   0.592  -1.021  0.00  0.00    +0.022 A 
ATOM     11  C   UNL     1      -2.987   0.223  -1.044  0.00  0.00    +0.028 A 
ATOM     12 CL   UNL     1      -6.776   0.749   0.101  0.00  0.00    -0.084 Cl
ENDBRANCH   5   6
BRANCH   1  14
ATOM     13  C   UNL     1      -1.320  -4.021   1.389  0.00  0.00    -0.005 C 
ATOM     14  C   UNL     1      -1.380  -3.384  -0.001  0.00  0.00    -0.003 C 
BRANCH  14  15
ATOM     15  N   UNL     1      -0.819  -4.313  -0.990  0.00  0.00    +0.382 N 
ATOM     16  C   UNL     1       0.530  -4.744  -0.601  0.00  0.00    -0.096 C 
ATOM     17  C   UNL     1      -1.704  -5.469  -1.188  0.00  0.00    -0.096 C 
ATOM     18  H   UNL     1      -0.741  -3.780  -1.949  0.00  0.00    -0.082 HD
ENDBRANCH  14  15
ENDBRANCH   1  14
BRANCH   4  19
ATOM     19  S   UNL     1      -0.022   1.758   0.012  0.00  0.00    -0.073 S 
BRANCH  19  20
ATOM     20  C   UNL     1       1.756   2.096  -0.004  0.00  0.00    +0.137 C 
ATOM     21  C   UNL     1       2.359   1.600  -1.319  0.00  0.00    +0.029 C 
BRANCH  20  22
ATOM     22  C   UNL     1       1.986   3.580   0.126  0.00  0.00    +0.226 C 
ATOM     23  O   UNL     1       1.094   4.357  -0.141  0.00  0.00    -0.275 OA
ATOM     24  N   UNL     1       3.183   4.043   0.538  0.00  0.00    -0.312 N 
ATOM     25  H   UNL     1       3.992   3.338   0.780  0.00  0.00    +0.149 HD
BRANCH  24  26
ATOM     26  C   UNL     1       3.406   5.485   0.664  0.00  0.00    +0.073 C 
ATOM     27  C   UNL     1       3.817   6.058  -0.694  0.00  0.00    +0.022 C 
ATOM     28  C   UNL     1       4.051   7.565  -0.562  0.00  0.00    +0.002 C 
ATOM     29  C   UNL     1       5.162   7.821   0.457  0.00  0.00    +0.000 C 
ATOM     30  C   UNL     1       4.752   7.248   1.815  0.00  0.00    +0.002 C 
ATOM     31  C   UNL     1       4.518   5.742   1.684  0.00  0.00    +0.022 C 
ENDBRANCH  24  26
ENDBRANCH  20  22
ENDBRANCH  19  20
ENDBRANCH   4  19
TORSDOF 7
