REMARK  Name = ZINC66672833
REMARK  4 active torsions:
REMARK  status: ('A' for Active; 'I' for Inactive)
REMARK    1  A    between atoms: C_10  and  N_12
REMARK    2  A    between atoms: C_13  and  N_17
REMARK    3  A    between atoms: C_18  and  C_20
REMARK    4  A    between atoms: C_25  and  N_26
REMARK                            x       y       z     vdW  Elec       q    Type
REMARK                         _______ _______ _______ _____ _____    ______ ____
ROOT
ATOM      1  N   UNL     1       4.872   1.438  -1.354  0.00  0.00    -0.243 N 
ATOM      2  C   UNL     1       6.139   1.623  -0.902  0.00  0.00    +0.124 A 
ATOM      3  C   UNL     1       6.904   1.988  -1.968  0.00  0.00    +0.065 A 
ATOM      4  C   UNL     1       6.079   2.024  -3.095  0.00  0.00    +0.136 A 
ATOM      5  N   UNL     1       4.867   1.690  -2.732  0.00  0.00    -0.177 NA
ENDROOT
BRANCH   1  15
ATOM      6  C   UNL     1       0.799   4.157  -0.767  0.00  0.00    +0.000 A 
ATOM      7  C   UNL     1       2.144   4.453  -0.638  0.00  0.00    +0.000 A 
ATOM      8  C   UNL     1       3.067   3.430  -0.570  0.00  0.00    +0.006 A 
ATOM      9  C   UNL     1       2.657   2.104  -0.633  0.00  0.00    -0.020 A 
ATOM     10  C   UNL     1       1.319   1.810  -0.766  0.00  0.00    -0.042 A 
ATOM     11  C   UNL     1       0.391   2.841  -0.830  0.00  0.00    +0.004 A 
ATOM     12  C   UNL     1       0.805   0.397  -0.857  0.00  0.00    +0.035 C 
ATOM     13  C   UNL     1       1.854  -0.590  -0.348  0.00  0.00    +0.007 C 
ATOM     14  C   UNL     1       3.180  -0.296  -1.060  0.00  0.00    +0.032 C 
ATOM     15  C   UNL     1       3.717   1.038  -0.546  0.00  0.00    +0.139 C 
ENDBRANCH   1  15
BRANCH   2  16
ATOM     16  N   UNL     1       6.577   1.470   0.412  0.00  0.00    -0.266 N 
ATOM     17  C   UNL     1       7.870   1.688   0.722  0.00  0.00    +0.252 C 
ATOM     18  O   UNL     1       8.655   2.019  -0.145  0.00  0.00    -0.270 OA
ATOM     19  H   UNL     1       5.950   1.205   1.104  0.00  0.00    +0.157 HD
BRANCH  17  20
ATOM     20  C   UNL     1       8.334   1.525   2.115  0.00  0.00    +0.067 A 
ATOM     21  C   UNL     1       7.706   2.222   3.149  0.00  0.00    +0.017 A 
ATOM     22  C   UNL     1       8.143   2.065   4.447  0.00  0.00    +0.021 A 
ATOM     23  C   UNL     1       9.202   1.218   4.727  0.00  0.00    +0.043 A 
ATOM     24  C   UNL     1       9.829   0.524   3.706  0.00  0.00    +0.053 A 
ATOM     25  C   UNL     1       9.398   0.668   2.404  0.00  0.00    +0.140 A 
ATOM     26 CL   UNL     1       9.747   1.026   6.364  0.00  0.00    -0.083 Cl
BRANCH  25  27
ATOM     27  N   UNL     1      10.065  -0.079   1.314  0.00  0.00    +0.057 N 
ATOM     28  O   UNL     1      11.062  -0.723   1.545  0.00  0.00    -0.126 OA
ATOM     29  O   UNL     1       9.614  -0.044   0.193  0.00  0.00    -0.126 OA
ENDBRANCH  25  27
ENDBRANCH  17  20
ENDBRANCH   2  16
TORSDOF 4
