REMARK  Name = ZINC14643148
REMARK  9 active torsions:
REMARK  status: ('A' for Active; 'I' for Inactive)
REMARK    1  A    between atoms: C_1  and  C_2
REMARK    2  A    between atoms: C_6  and  C_27
REMARK    3  A    between atoms: C_7  and  O_8
REMARK    4  A    between atoms: O_8  and  C_9
REMARK    5  A    between atoms: C_9  and  C_11
REMARK    6  A    between atoms: C_9  and  C_12
REMARK    7  A    between atoms: N_14  and  N_15
REMARK    8  A    between atoms: C_16  and  C_18
REMARK    9  A    between atoms: C_21  and  N_24
REMARK                            x       y       z     vdW  Elec       q    Type
REMARK                         _______ _______ _______ _____ _____    ______ ____
ROOT
ATOM      1  C   UNL     1       2.829  -5.915  -0.814  0.00  0.00    +0.270 C 
ATOM      2  O   UNL     1       3.458  -4.935  -0.475  0.00  0.00    -0.270 OA
ATOM      3  N   UNL     1       1.564  -5.784  -1.260  0.00  0.00    -0.231 N 
ATOM      4  H   UNL     1       1.061  -6.568  -1.530  0.00  0.00    +0.173 HD
ENDROOT
BRANCH   3   5
ATOM      5  N   UNL     1       0.975  -4.514  -1.331  0.00  0.00    -0.230 N 
ATOM      6  C   UNL     1      -0.290  -4.383  -1.776  0.00  0.00    +0.260 C 
ATOM      7  O   UNL     1      -0.920  -5.365  -2.116  0.00  0.00    -0.269 OA
ATOM      8  H   UNL     1       1.478  -3.731  -1.060  0.00  0.00    +0.173 HD
BRANCH   6   9
ATOM      9  C   UNL     1      -0.911  -3.043  -1.852  0.00  0.00    +0.038 A 
ATOM     10  C   UNL     1      -2.221  -2.904  -2.313  0.00  0.00    +0.015 A 
ATOM     11  C   UNL     1      -2.796  -1.651  -2.381  0.00  0.00    +0.033 A 
ATOM     12  C   UNL     1      -2.076  -0.535  -1.993  0.00  0.00    +0.126 A 
ATOM     13  C   UNL     1      -0.777  -0.666  -1.535  0.00  0.00    +0.033 A 
ATOM     14  C   UNL     1      -0.191  -1.913  -1.462  0.00  0.00    +0.015 A 
BRANCH  12  15
ATOM     15  N   UNL     1      -2.698   0.806  -2.068  0.00  0.00    +0.056 N 
ATOM     16  O   UNL     1      -3.841   0.925  -2.471  0.00  0.00    -0.126 OA
ATOM     17  O   UNL     1      -2.067   1.790  -1.728  0.00  0.00    -0.126 OA
ENDBRANCH  12  15
ENDBRANCH   6   9
ENDBRANCH   3   5
BRANCH   1  18
ATOM     18  C   UNL     1       3.463  -7.281  -0.737  0.00  0.00    +0.257 C 
ATOM     19  C   UNL     1       3.609  -7.856  -2.147  0.00  0.00    +0.062 C 
BRANCH  18  20
ATOM     20  O   UNL     1       4.752  -7.174  -0.130  0.00  0.00    -0.479 OA
BRANCH  20  27
ATOM     21  C   UNL     1       3.857  -7.395   2.539  0.00  0.00    +0.047 C 
ATOM     22  C   UNL     1       4.780  -8.404   1.906  0.00  0.00    -0.007 A 
ATOM     23  C   UNL     1       5.217  -9.494   2.634  0.00  0.00    +0.022 A 
ATOM     24  C   UNL     1       6.069 -10.417   2.054  0.00  0.00    +0.019 A 
ATOM     25  C   UNL     1       6.479 -10.255   0.743  0.00  0.00    +0.022 A 
ATOM     26  C   UNL     1       6.040  -9.169   0.010  0.00  0.00    -0.007 A 
ATOM     27  C   UNL     1       5.186  -8.242   0.589  0.00  0.00    +0.127 A 
ATOM     28  C   UNL     1       6.488  -8.992  -1.418  0.00  0.00    +0.047 C 
ATOM     29 BR   UNL     1       6.672 -11.903   3.055  0.00  0.00    -0.050 Br
ENDBRANCH  20  27
ENDBRANCH  18  20
ENDBRANCH   1  18
TORSDOF 6
