REMARK  Name = ZINC35788949
REMARK  19 active torsions:
REMARK  status: ('A' for Active; 'I' for Inactive)
REMARK    1  A    between atoms: C_1  and  C_2
REMARK    2  A    between atoms: C_2  and  C_3
REMARK    3  A    between atoms: C_3  and  C_4
REMARK    4  A    between atoms: C_4  and  C_5
REMARK    5  A    between atoms: C_5  and  C_7
REMARK    6  A    between atoms: C_5  and  O_35
REMARK    7  A    between atoms: C_7  and  N_8
REMARK    8  A    between atoms: N_8  and  C_9
REMARK    9  A    between atoms: N_8  and  C_14
REMARK   10  A    between atoms: C_9  and  C_10
REMARK   11  A    between atoms: C_10  and  N_11
REMARK   12  A    between atoms: N_11  and  C_12
REMARK   13  A    between atoms: N_11  and  C_13
REMARK   14  A    between atoms: C_14  and  C_15
REMARK   15  A    between atoms: C_16  and  C_34
REMARK   16  A    between atoms: N_18  and  C_28
REMARK   17  A    between atoms: C_19  and  O_20
REMARK   18  A    between atoms: O_20  and  C_21
REMARK   19  A    between atoms: C_25  and  C_27
REMARK                            x       y       z     vdW  Elec       q    Type
REMARK                         _______ _______ _______ _____ _____    ______ ____
ROOT
ATOM      1  C   UNL     1       3.389  -6.245   5.086  0.00  0.00    +0.021 A 
ATOM      2  C   UNL     1       4.733  -6.022   4.769  0.00  0.00    +0.065 A 
ATOM      3  N   UNL     1       5.422  -5.996   5.881  0.00  0.00    -0.168 NA
ATOM      4  N   UNL     1       4.542  -6.203   6.951  0.00  0.00    -0.200 N 
ATOM      5  C   UNL     1       3.291  -6.349   6.438  0.00  0.00    +0.225 A 
ATOM      6  C   UNL     1       5.293  -5.841   3.382  0.00  0.00    +0.068 C 
ENDROOT
BRANCH   4   7
ATOM      7  C   UNL     1       4.888  -6.246   8.309  0.00  0.00    +0.069 A 
ATOM      8  C   UNL     1       6.067  -6.862   8.707  0.00  0.00    +0.028 A 
ATOM      9  C   UNL     1       6.405  -6.902  10.046  0.00  0.00    +0.002 A 
ATOM     10  C   UNL     1       5.571  -6.331  10.989  0.00  0.00    +0.000 A 
ATOM     11  C   UNL     1       4.396  -5.717  10.595  0.00  0.00    +0.002 A 
ATOM     12  C   UNL     1       4.055  -5.668   9.258  0.00  0.00    +0.028 A 
ENDBRANCH   4   7
BRANCH   1  13
ATOM     13  C   UNL     1       2.251  -6.346   4.103  0.00  0.00    -0.036 C 
BRANCH  13  14
ATOM     14  N   UNL     1       1.575  -5.046   4.002  0.00  0.00    +0.385 N 
ATOM     15  H   UNL     1       1.291  -4.743   4.922  0.00  0.00    -0.081 HD
BRANCH  14  16
ATOM     16  C   UNL     1       2.495  -4.059   3.423  0.00  0.00    -0.047 C 
BRANCH  16  17
ATOM     17  C   UNL     1       1.865  -2.667   3.501  0.00  0.00    +0.098 C 
BRANCH  17  18
ATOM     18  O   UNL     1       0.739  -2.604   2.623  0.00  0.00    -0.394 OA
ATOM     19  H   UNL     1       0.954  -2.768   1.695  0.00  0.00    +0.210 HD
ENDBRANCH  17  18
BRANCH  17  20
ATOM     20  C   UNL     1       2.895  -1.616   3.084  0.00  0.00    +0.029 C 
BRANCH  20  21
ATOM     21  C   UNL     1       2.306  -0.217   3.280  0.00  0.00    +0.002 C 
BRANCH  21  23
ATOM     22  C   UNL     1       2.748   2.232   3.059  0.00  0.00    +0.004 C 
ATOM     23  C   UNL     1       3.337   0.833   2.863  0.00  0.00    -0.003 C 
ENDBRANCH  21  23
ENDBRANCH  20  21
ENDBRANCH  17  20
ENDBRANCH  16  17
ENDBRANCH  14  16
BRANCH  14  24
ATOM     24  C   UNL     1       0.391  -5.176   3.142  0.00  0.00    -0.063 C 
BRANCH  24  25
ATOM     25  C   UNL     1      -0.613  -6.127   3.796  0.00  0.00    +0.065 C 
BRANCH  25  26
ATOM     26  N   UNL     1      -1.758  -6.324   2.897  0.00  0.00    -0.310 NA
ATOM     27  C   UNL     1      -2.642  -7.387   3.396  0.00  0.00    +0.104 C 
ATOM     28  C   UNL     1      -2.499  -5.070   2.705  0.00  0.00    +0.104 C 
ENDBRANCH  25  26
ENDBRANCH  24  25
ENDBRANCH  14  24
ENDBRANCH  13  14
ENDBRANCH   1  13
BRANCH   5  29
ATOM     29  O   UNL     1       2.153  -6.563   7.146  0.00  0.00    -0.438 OA
BRANCH  29  30
ATOM     30  C   UNL     1       1.836  -7.843   7.473  0.00  0.00    +0.131 A 
ATOM     31  C   UNL     1       2.719  -8.873   7.183  0.00  0.00    +0.046 A 
ATOM     32  C   UNL     1       2.395 -10.174   7.517  0.00  0.00    +0.004 A 
ATOM     33  C   UNL     1       1.191 -10.450   8.139  0.00  0.00    +0.003 A 
ATOM     34  C   UNL     1       0.309  -9.425   8.429  0.00  0.00    -0.047 A 
ATOM     35  C   UNL     1       0.631  -8.122   8.103  0.00  0.00    +0.049 A 
ATOM     36  C   UNL     1      -1.002  -9.729   9.108  0.00  0.00    +0.044 C 
ENDBRANCH  29  30
ENDBRANCH   5  29
TORSDOF 14
