REMARK  Name = ZINC15607793
REMARK  11 active torsions:
REMARK  status: ('A' for Active; 'I' for Inactive)
REMARK    1  A    between atoms: C_1  and  C_2
REMARK    2  A    between atoms: C_2  and  O_3
REMARK    3  A    between atoms: O_3  and  C_4
REMARK    4  A    between atoms: C_7  and  O_10
REMARK    5  A    between atoms: O_10  and  C_11
REMARK    6  A    between atoms: C_11  and  C_13
REMARK    7  A    between atoms: C_11  and  C_14
REMARK    8  A    between atoms: N_16  and  N_17
REMARK    9  A    between atoms: C_18  and  C_20
REMARK   10  A    between atoms: C_24  and  C_34
REMARK   11  A    between atoms: N_25  and  C_27
REMARK                            x       y       z     vdW  Elec       q    Type
REMARK                         _______ _______ _______ _____ _____    ______ ____
ROOT
ATOM      1  N   UNL     1       5.950   1.195   0.282  0.00  0.00    -0.229 N 
ATOM      2  C   UNL     1       5.749   2.483  -0.061  0.00  0.00    +0.284 C 
ATOM      3  O   UNL     1       6.694   3.245  -0.144  0.00  0.00    -0.267 OA
ATOM      4  H   UNL     1       5.197   0.588   0.348  0.00  0.00    +0.173 HD
ENDROOT
BRANCH   2   5
ATOM      5  C   UNL     1       4.383   2.970  -0.335  0.00  0.00    +0.194 A 
ATOM      6  C   UNL     1       4.147   4.373  -0.710  0.00  0.00    +0.213 A 
ATOM      7  O   UNL     1       5.068   5.169  -0.804  0.00  0.00    -0.285 OA
ATOM      8  C   UNL     1       2.805   4.762  -0.956  0.00  0.00    +0.076 A 
ATOM      9  C   UNL     1       1.841   3.818  -0.836  0.00  0.00    +0.044 A 
ATOM     10  N   UNL     1       2.153   2.548  -0.480  0.00  0.00    -0.233 N 
ATOM     11  N   UNL     1       3.351   2.156  -0.248  0.00  0.00    -0.157 NA
ATOM     12  C   UNL     1       0.403   4.187  -1.094  0.00  0.00    +0.066 C 
BRANCH  10  13
ATOM     13  C   UNL     1       1.115   1.617  -0.365  0.00  0.00    +0.101 A 
ATOM     14  C   UNL     1       0.041   1.871   0.478  0.00  0.00    +0.031 A 
ATOM     15  C   UNL     1      -0.982   0.950   0.590  0.00  0.00    +0.002 A 
ATOM     16  C   UNL     1      -0.936  -0.228  -0.134  0.00  0.00    +0.003 A 
ATOM     17  C   UNL     1       0.127  -0.484  -0.979  0.00  0.00    +0.040 A 
ATOM     18  C   UNL     1       1.156   0.433  -1.095  0.00  0.00    +0.149 A 
ATOM     19  F   UNL     1       2.198   0.181  -1.918  0.00  0.00    -0.203 F 
ENDBRANCH  10  13
ENDBRANCH   2   5
BRANCH   1  22
ATOM     20  C   UNL     1       7.448  -0.554   0.885  0.00  0.00    +0.270 C 
ATOM     21  O   UNL     1       6.506  -1.313   0.968  0.00  0.00    -0.270 OA
ATOM     22  N   UNL     1       7.247   0.734   0.542  0.00  0.00    -0.231 N 
ATOM     23  H   UNL     1       8.001   1.341   0.476  0.00  0.00    +0.173 HD
BRANCH  20  24
ATOM     24  C   UNL     1       8.843  -1.050   1.165  0.00  0.00    +0.257 C 
ATOM     25  C   UNL     1       9.678  -0.975  -0.116  0.00  0.00    +0.062 C 
BRANCH  24  26
ATOM     26  O   UNL     1       8.785  -2.405   1.616  0.00  0.00    -0.480 OA
BRANCH  26  30
ATOM     27  C   UNL     1      11.901  -3.727   3.979  0.00  0.00    +0.121 A 
ATOM     28  C   UNL     1      11.944  -2.458   3.422  0.00  0.00    +0.049 A 
ATOM     29  C   UNL     1      10.901  -2.015   2.631  0.00  0.00    +0.049 A 
ATOM     30  C   UNL     1       9.812  -2.841   2.395  0.00  0.00    +0.122 A 
ATOM     31  C   UNL     1       9.767  -4.108   2.957  0.00  0.00    +0.049 A 
ATOM     32  C   UNL     1      10.811  -4.552   3.744  0.00  0.00    +0.049 A 
BRANCH  27  33
ATOM     33  O   UNL     1      12.928  -4.163   4.757  0.00  0.00    -0.492 OA
BRANCH  33  35
ATOM     34  C   UNL     1      14.057  -5.793   6.139  0.00  0.00    +0.048 C 
ATOM     35  C   UNL     1      12.817  -5.481   5.299  0.00  0.00    +0.225 C 
ENDBRANCH  33  35
ENDBRANCH  27  33
ENDBRANCH  26  30
ENDBRANCH  24  26
ENDBRANCH  20  24
ENDBRANCH   1  22
TORSDOF 8
