REMARK  Name = ZINC63557062
REMARK  8 active torsions:
REMARK  status: ('A' for Active; 'I' for Inactive)
REMARK    1  A    between atoms: C_1  and  C_2
REMARK    2  A    between atoms: C_2  and  O_3
REMARK    3  A    between atoms: O_3  and  C_4
REMARK    4  A    between atoms: C_11  and  N_14
REMARK    5  A    between atoms: C_15  and  C_17
REMARK    6  A    between atoms: N_22  and  C_24
REMARK    7  A    between atoms: C_24  and  C_25
REMARK    8  A    between atoms: C_25  and  C_26
REMARK                            x       y       z     vdW  Elec       q    Type
REMARK                         _______ _______ _______ _____ _____    ______ ____
ROOT
ATOM      1  C   UNL     1      -5.306  -8.643   2.547  0.00  0.00    +0.101 C 
ATOM      2  C   UNL     1      -5.372  -7.728   3.792  0.00  0.00    +0.110 C 
ATOM      3  C   UNL     1      -6.499  -8.306   4.619  0.00  0.00    +0.216 C 
ATOM      4  O   UNL     1      -6.697  -8.061   5.790  0.00  0.00    -0.276 OA
ATOM      5  N   UNL     1      -7.249  -9.129   3.866  0.00  0.00    -0.300 N 
ATOM      6  C   UNL     1      -6.746  -9.200   2.489  0.00  0.00    +0.121 C 
ENDROOT
BRANCH   1   8
ATOM      7  N   UNL     1      -3.794  -7.225   1.197  0.00  0.00    -0.288 N 
ATOM      8  C   UNL     1      -4.985  -7.848   1.309  0.00  0.00    +0.220 C 
ATOM      9  O   UNL     1      -5.797  -7.767   0.412  0.00  0.00    -0.275 OA
ATOM     10  H   UNL     1      -3.144  -7.290   1.914  0.00  0.00    +0.151 HD
BRANCH   7  18
ATOM     11  C   UNL     1      -1.498  -1.849   0.006  0.00  0.00    +0.122 A 
ATOM     12  C   UNL     1      -0.395  -2.690  -0.003  0.00  0.00    +0.047 A 
ATOM     13  C   UNL     1      -0.546  -4.057  -0.009  0.00  0.00    +0.027 A 
ATOM     14  C   UNL     1      -1.821  -4.651  -0.006  0.00  0.00    +0.043 A 
ATOM     15  C   UNL     1      -2.913  -3.779   0.004  0.00  0.00    +0.035 A 
ATOM     16  C   UNL     1      -2.769  -2.410   0.016  0.00  0.00    +0.062 A 
ATOM     17  S   UNL     1      -4.348  -4.831   0.005  0.00  0.00    -0.082 S 
ATOM     18  C   UNL     1      -3.482  -6.452  -0.007  0.00  0.00    +0.224 C 
ATOM     19  N   UNL     1      -2.077  -6.024  -0.011  0.00  0.00    -0.316 N 
ATOM     20  H   UNL     1      -1.354  -6.671  -0.018  0.00  0.00    +0.149 HD
BRANCH  11  21
ATOM     21  O   UNL     1      -1.339  -0.499   0.012  0.00  0.00    -0.492 OA
BRANCH  21  23
ATOM     22  C   UNL     1      -0.019   1.526   0.010  0.00  0.00    +0.048 C 
ATOM     23  C   UNL     1       0.002  -0.004   0.002  0.00  0.00    +0.225 C 
ENDBRANCH  21  23
ENDBRANCH  11  21
ENDBRANCH   7  18
ENDBRANCH   1   8
BRANCH   5  24
ATOM     24  C   UNL     1      -8.417  -9.863   4.358  0.00  0.00    +0.112 C 
BRANCH  24  25
ATOM     25  C   UNL     1      -9.673  -9.012   4.163  0.00  0.00    +0.052 C 
BRANCH  25  26
ATOM     26  C   UNL     1     -10.876  -9.767   4.669  0.00  0.00    -0.040 C 
ATOM     27  C   UNL     1     -11.443  -9.667   5.892  0.00  0.00    +0.000 A 
ATOM     28  C   UNL     1     -11.122  -8.857   7.074  0.00  0.00    +0.030 A 
ATOM     29  C   UNL     1     -11.891  -8.978   8.181  0.00  0.00    +0.042 A 
ATOM     30  C   UNL     1     -12.983  -9.856   8.227  0.00  0.00    +0.022 A 
ATOM     31  C   UNL     1     -13.340 -10.632   7.182  0.00  0.00    +0.027 A 
ATOM     32  C   UNL     1     -12.601 -10.586   5.967  0.00  0.00    +0.043 A 
ATOM     33  N   UNL     1     -12.745 -11.228   4.834  0.00  0.00    -0.380 N 
ATOM     34  C   UNL     1     -11.696 -10.785   3.908  0.00  0.00    +0.144 C 
ATOM     35 CL   UNL     1     -11.514  -8.022   9.580  0.00  0.00    -0.084 Cl
ATOM     36  H   UNL     1     -13.432 -11.885   4.638  0.00  0.00    +0.160 HD
ENDBRANCH  25  26
ENDBRANCH  24  25
ENDBRANCH   5  24
TORSDOF 7
