REMARK  Name = ZINC48907438
REMARK  6 active torsions:
REMARK  status: ('A' for Active; 'I' for Inactive)
REMARK    1  A    between atoms: C_1  and  C_2
REMARK    2  A    between atoms: C_2  and  C_3
REMARK    3  A    between atoms: N_6  and  C_9
REMARK    4  A    between atoms: C_9  and  C_11
REMARK    5  A    between atoms: C_9  and  C_13
REMARK    6  A    between atoms: C_11  and  N_12
REMARK                            x       y       z     vdW  Elec       q    Type
REMARK                         _______ _______ _______ _____ _____    ______ ____
ROOT
ATOM      1  C   UNL     1       3.577  -2.621  -3.570  0.00  0.00    -0.055 C 
ENDROOT
BRANCH   1   2
ATOM      2  C   UNL     1       3.557  -4.124  -3.684  0.00  0.00    -0.058 A 
ATOM      3  C   UNL     1       3.378  -4.720  -4.919  0.00  0.00    +0.051 A 
ATOM      4  C   UNL     1       3.360  -6.101  -5.026  0.00  0.00    +0.168 A 
ATOM      5  C   UNL     1       3.521  -6.887  -3.888  0.00  0.00    +0.180 A 
ATOM      6  C   UNL     1       3.699  -6.283  -2.653  0.00  0.00    +0.063 A 
ATOM      7  C   UNL     1       3.722  -4.903  -2.554  0.00  0.00    +0.021 A 
ATOM      8 BR   UNL     1       3.918  -7.345  -1.104  0.00  0.00    -0.046 Br
ATOM      9  O   UNL     1       3.465  -8.201  -4.253  0.00  0.00    -0.451 OA
ATOM     10  C   UNL     1       2.862  -8.211  -5.561  0.00  0.00    +0.466 C 
ATOM     11  O   UNL     1       3.204  -6.923  -6.105  0.00  0.00    -0.453 OA
ENDBRANCH   1   2
BRANCH   1  15
ATOM     12  C   UNL     1       0.722  -0.856  -0.945  0.00  0.00    -0.015 C 
ATOM     13  C   UNL     1       2.155  -0.317  -0.972  0.00  0.00    -0.015 C 
ATOM     14  C   UNL     1       2.832  -0.747  -2.275  0.00  0.00    -0.078 C 
ATOM     15  N   UNL     1       2.857  -2.212  -2.356  0.00  0.00    +0.383 N 
ATOM     16  C   UNL     1       1.486  -2.733  -2.404  0.00  0.00    -0.078 C 
ATOM     17  C   UNL     1       0.757  -2.379  -1.106  0.00  0.00    -0.015 C 
ATOM     18  H   UNL     1       3.330  -2.585  -1.546  0.00  0.00    -0.081 HD
BRANCH  12  20
ATOM     19  C   UNL     1      -0.082   1.022   0.493  0.00  0.00    +0.004 C 
ATOM     20  C   UNL     1       0.065  -0.497   0.389  0.00  0.00    -0.000 C 
ENDBRANCH  12  20
ENDBRANCH   1  15
BRANCH   1  21
ATOM     21  C   UNL     1       5.025  -2.135  -3.493  0.00  0.00    -0.098 C 
BRANCH  21  22
ATOM     22  N   UNL     1       5.723  -2.475  -4.740  0.00  0.00    +0.377 N 
ATOM     23  H   UNL     1       6.694  -2.208  -4.666  0.00  0.00    -0.090 HD
ATOM     24  H   UNL     1       5.660  -3.469  -4.901  0.00  0.00    -0.090 HD
ATOM     25  H   UNL     1       5.296  -1.982  -5.510  0.00  0.00    -0.090 HD
ENDBRANCH  21  22
ENDBRANCH   1  21
TORSDOF 5
