REMARK  Name = ZINC08856198
REMARK  6 active torsions:
REMARK  status: ('A' for Active; 'I' for Inactive)
REMARK    1  A    between atoms: C_13  and  C_14
REMARK    2  A    between atoms: N_16  and  N_17
REMARK    3  A    between atoms: C_18  and  C_19
REMARK    4  A    between atoms: C_18  and  C_27
REMARK    5  A    between atoms: C_19  and  C_20
REMARK    6  A    between atoms: C_27  and  C_28
REMARK                            x       y       z     vdW  Elec       q    Type
REMARK                         _______ _______ _______ _____ _____    ______ ____
ROOT
ATOM      1  N   UNL     1      -2.241   6.574  -2.528  0.00  0.00    -0.189 NA
ATOM      2  C   UNL     1      -3.509   6.574  -2.707  0.00  0.00    +0.045 C 
ENDROOT
BRANCH   1   5
ATOM      3  C   UNL     1      -0.360   5.972  -1.199  0.00  0.00    +0.244 C 
ATOM      4  O   UNL     1       0.367   6.494  -2.017  0.00  0.00    -0.273 OA
ATOM      5  N   UNL     1      -1.695   5.971  -1.387  0.00  0.00    -0.206 N 
ATOM      6  H   UNL     1      -2.277   5.554  -0.733  0.00  0.00    +0.177 HD
BRANCH   3  19
ATOM      7  C   UNL     1      -0.013   1.076   0.008  0.00  0.00    +0.001 A 
ATOM      8  C   UNL     1      -1.221   1.748   0.017  0.00  0.00    +0.000 A 
ATOM      9  C   UNL     1      -1.246   3.132   0.030  0.00  0.00    +0.005 A 
ATOM     10  C   UNL     1      -0.064   3.843   0.023  0.00  0.00    -0.023 A 
ATOM     11  C   UNL     1       1.157   3.175   0.008  0.00  0.00    -0.013 A 
ATOM     12  C   UNL     1       1.174   1.779   0.000  0.00  0.00    +0.009 A 
ATOM     13  C   UNL     1       2.262   4.166   0.002  0.00  0.00    -0.013 A 
ATOM     14  C   UNL     1       3.648   3.998  -0.013  0.00  0.00    +0.009 A 
ATOM     15  C   UNL     1       4.476   5.101  -0.015  0.00  0.00    +0.001 A 
ATOM     16  C   UNL     1       3.938   6.376  -0.003  0.00  0.00    +0.000 A 
ATOM     17  C   UNL     1       2.566   6.550   0.011  0.00  0.00    +0.005 A 
ATOM     18  C   UNL     1       1.731   5.452   0.014  0.00  0.00    -0.023 A 
ATOM     19  C   UNL     1       0.227   5.323   0.028  0.00  0.00    +0.138 C 
ENDBRANCH   3  19
ENDBRANCH   1   5
BRANCH   2  20
ATOM     20  C   UNL     1      -4.097   7.222  -3.934  0.00  0.00    +0.088 C 
BRANCH  20  21
ATOM     21  C   UNL     1      -4.754   6.171  -4.791  0.00  0.00    -0.042 A 
ATOM     22  C   UNL     1      -4.025   5.525  -5.772  0.00  0.00    +0.005 A 
ATOM     23  C   UNL     1      -4.626   4.557  -6.555  0.00  0.00    +0.020 A 
ATOM     24  C   UNL     1      -5.960   4.244  -6.364  0.00  0.00    +0.041 A 
ATOM     25  C   UNL     1      -6.691   4.895  -5.387  0.00  0.00    +0.020 A 
ATOM     26  C   UNL     1      -6.087   5.859  -4.601  0.00  0.00    +0.005 A 
ATOM     27 CL   UNL     1      -6.717   3.033  -7.352  0.00  0.00    -0.084 Cl
ENDBRANCH  20  21
ENDBRANCH   2  20
BRANCH   2  28
ATOM     28  C   UNL     1      -4.413   5.925  -1.691  0.00  0.00    +0.088 C 
BRANCH  28  29
ATOM     29  C   UNL     1      -4.814   6.941  -0.653  0.00  0.00    -0.042 A 
ATOM     30  C   UNL     1      -4.047   7.106   0.485  0.00  0.00    +0.005 A 
ATOM     31  C   UNL     1      -4.411   8.042   1.434  0.00  0.00    +0.020 A 
ATOM     32  C   UNL     1      -5.549   8.806   1.251  0.00  0.00    +0.041 A 
ATOM     33  C   UNL     1      -6.320   8.637   0.115  0.00  0.00    +0.020 A 
ATOM     34  C   UNL     1      -5.952   7.704  -0.837  0.00  0.00    +0.005 A 
ATOM     35 CL   UNL     1      -6.011   9.978   2.446  0.00  0.00    -0.084 Cl
ENDBRANCH  28  29
ENDBRANCH   2  28
TORSDOF 6
