REMARK  Name = ZINC63385649
REMARK  8 active torsions:
REMARK  status: ('A' for Active; 'I' for Inactive)
REMARK    1  A    between atoms: C_6  and  C_7
REMARK    2  A    between atoms: C_7  and  N_8
REMARK    3  A    between atoms: C_11  and  C_16
REMARK    4  A    between atoms: C_14  and  O_15
REMARK    5  A    between atoms: C_16  and  C_17
REMARK    6  A    between atoms: N_19  and  C_20
REMARK    7  A    between atoms: C_20  and  C_21
REMARK    8  A    between atoms: C_21  and  C_22
REMARK                            x       y       z     vdW  Elec       q    Type
REMARK                         _______ _______ _______ _____ _____    ______ ____
ROOT
ATOM      1  N   UNL     1      -1.727  -1.016  -1.368  0.00  0.00    -0.220 N 
ATOM      2  C   UNL     1      -2.516  -0.185  -2.082  0.00  0.00    +0.249 C 
ATOM      3  O   UNL     1      -2.991   0.871  -1.724  0.00  0.00    -0.273 OA
ATOM      4  C   UNL     1      -2.680  -0.861  -3.430  0.00  0.00    +0.205 C 
ATOM      5  N   UNL     1      -1.894  -2.098  -3.302  0.00  0.00    -0.223 NA
ATOM      6  C   UNL     1      -1.381  -2.114  -2.113  0.00  0.00    +0.285 C 
ENDROOT
BRANCH   6   7
ATOM      7  O   UNL     1      -0.592  -3.110  -1.654  0.00  0.00    -0.481 OA
ATOM      8  H   UNL     1      -0.437  -3.817  -2.295  0.00  0.00    +0.295 HD
ENDBRANCH   6   7
BRANCH   1   9
ATOM      9  C   UNL     1      -1.294  -0.774   0.010  0.00  0.00    +0.153 C 
BRANCH   9  15
ATOM     10  C   UNL     1      -0.017   1.378   0.010  0.00  0.00    +0.009 A 
ATOM     11  C   UNL     1       1.170   2.088   0.002  0.00  0.00    +0.050 A 
ATOM     12  C   UNL     1       2.380   1.416  -0.013  0.00  0.00    +0.166 A 
ATOM     13  C   UNL     1       2.399   0.023  -0.021  0.00  0.00    +0.167 A 
ATOM     14  C   UNL     1       1.207  -0.682  -0.014  0.00  0.00    +0.054 A 
ATOM     15  C   UNL     1       0.002  -0.004   0.002  0.00  0.00    -0.026 A 
ATOM     16  O   UNL     1       3.698  -0.395  -0.036  0.00  0.00    -0.453 OA
ATOM     17  C   UNL     1       4.466   0.750  -0.450  0.00  0.00    +0.466 C 
ATOM     18  O   UNL     1       3.668   1.870  -0.024  0.00  0.00    -0.453 OA
ENDBRANCH   9  15
ENDBRANCH   1   9
BRANCH   4  19
ATOM     19  C   UNL     1      -2.118   0.023  -4.545  0.00  0.00    +0.132 C 
BRANCH  19  20
ATOM     20  C   UNL     1      -2.402  -0.613  -5.881  0.00  0.00    +0.216 C 
ATOM     21  O   UNL     1      -2.996  -1.669  -5.936  0.00  0.00    -0.276 OA
ATOM     22  N   UNL     1      -1.997  -0.008  -7.015  0.00  0.00    -0.315 N 
ATOM     23  H   UNL     1      -1.522   0.837  -6.971  0.00  0.00    +0.149 HD
BRANCH  22  24
ATOM     24  C   UNL     1      -2.273  -0.626  -8.314  0.00  0.00    +0.108 C 
BRANCH  24  25
ATOM     25  C   UNL     1      -1.711   0.258  -9.430  0.00  0.00    +0.052 C 
BRANCH  25  26
ATOM     26  C   UNL     1      -1.996  -0.378 -10.766  0.00  0.00    -0.040 C 
ATOM     27  C   UNL     1      -3.040  -0.116 -11.585  0.00  0.00    +0.002 A 
ATOM     28  C   UNL     1      -4.179   0.803 -11.481  0.00  0.00    +0.048 A 
ATOM     29  C   UNL     1      -5.085   0.843 -12.486  0.00  0.00    +0.124 A 
ATOM     30  C   UNL     1      -4.961   0.028 -13.623  0.00  0.00    +0.040 A 
ATOM     31  C   UNL     1      -3.942  -0.841 -13.789  0.00  0.00    +0.029 A 
ATOM     32  C   UNL     1      -2.933  -0.964 -12.794  0.00  0.00    +0.043 A 
ATOM     33  N   UNL     1      -1.865  -1.721 -12.725  0.00  0.00    -0.380 N 
ATOM     34  C   UNL     1      -1.169  -1.433 -11.466  0.00  0.00    +0.144 C 
ATOM     35  F   UNL     1      -6.135   1.688 -12.393  0.00  0.00    -0.205 F 
ATOM     36  H   UNL     1      -1.580  -2.361 -13.395  0.00  0.00    +0.160 HD
ENDBRANCH  25  26
ENDBRANCH  24  25
ENDBRANCH  22  24
ENDBRANCH  19  20
ENDBRANCH   4  19
TORSDOF 8
