REMARK  Name = ZINC54617997
REMARK  7 active torsions:
REMARK  status: ('A' for Active; 'I' for Inactive)
REMARK    1  A    between atoms: C_1  and  C_2
REMARK    2  A    between atoms: C_7  and  C_11
REMARK    3  A    between atoms: C_11  and  N_12
REMARK    4  A    between atoms: N_15  and  C_16
REMARK    5  A    between atoms: C_16  and  C_17
REMARK    6  A    between atoms: C_16  and  C_18
REMARK    7  A    between atoms: C_18  and  C_19
REMARK                            x       y       z     vdW  Elec       q    Type
REMARK                         _______ _______ _______ _____ _____    ______ ____
ROOT
ATOM      1  N   UNL     1       1.471  -5.968   2.492  0.00  0.00    -0.294 N 
ATOM      2  C   UNL     1       1.735  -7.130   3.123  0.00  0.00    +0.300 C 
ATOM      3  O   UNL     1       0.825  -7.792   3.584  0.00  0.00    -0.253 OA
ATOM      4  N   UNL     1       3.007  -7.559   3.241  0.00  0.00    -0.297 N 
ATOM      5  H   UNL     1       2.197  -5.441   2.124  0.00  0.00    +0.151 HD
ATOM      6  H   UNL     1       3.733  -7.031   2.873  0.00  0.00    +0.151 HD
ENDROOT
BRANCH   4   7
ATOM      7  C   UNL     1       3.294  -8.822   3.926  0.00  0.00    +0.076 C 
ATOM      8  C   UNL     1       3.392  -8.574   5.433  0.00  0.00    +0.028 C 
BRANCH   7   9
ATOM      9  C   UNL     1       4.620  -9.389   3.415  0.00  0.00    +0.060 C 
BRANCH   9  10
ATOM     10  C   UNL     1       4.485  -9.748   1.958  0.00  0.00    -0.010 A 
ATOM     11  C   UNL     1       4.163 -11.041   1.591  0.00  0.00    +0.006 A 
ATOM     12  C   UNL     1       4.039 -11.370   0.254  0.00  0.00    +0.000 A 
ATOM     13  C   UNL     1       4.236 -10.406  -0.717  0.00  0.00    +0.003 A 
ATOM     14  C   UNL     1       4.557  -9.113  -0.353  0.00  0.00    +0.038 A 
ATOM     15  C   UNL     1       4.677  -8.781   0.986  0.00  0.00    +0.127 A 
ATOM     16  F   UNL     1       4.986  -7.515   1.343  0.00  0.00    -0.205 F 
ENDBRANCH   9  10
ENDBRANCH   7   9
ENDBRANCH   4   7
BRANCH   1  17
ATOM     17  C   UNL     1       0.088  -5.503   2.364  0.00  0.00    +0.160 C 
BRANCH  17  24
ATOM     18  C   UNL     1      -0.018   1.503   0.010  0.00  0.00    +0.045 C 
ATOM     19  C   UNL     1       0.002  -0.004   0.002  0.00  0.00    -0.034 A 
ATOM     20  C   UNL     1       0.006  -0.697  -1.220  0.00  0.00    +0.008 A 
ATOM     21  C   UNL     1       0.025  -2.057  -1.224  0.00  0.00    +0.045 A 
ATOM     22  C   UNL     1       0.040  -2.750   0.003  0.00  0.00    +0.115 A 
ATOM     23  N   UNL     1       0.059  -4.043   0.297  0.00  0.00    -0.342 N 
ATOM     24  C   UNL     1       0.067  -4.189   1.625  0.00  0.00    +0.051 A 
ATOM     25  C   UNL     1       0.053  -2.964   2.194  0.00  0.00    +0.115 A 
ATOM     26  N   UNL     1       0.036  -2.047   1.179  0.00  0.00    -0.308 N 
ATOM     27  C   UNL     1       0.022  -0.682   1.169  0.00  0.00    +0.096 A 
ATOM     28  H   UNL     1       0.066  -4.766  -0.348  0.00  0.00    +0.167 HD
ENDBRANCH  17  24
ENDBRANCH   1  17
TORSDOF 5
