REMARK  Name = ZINC06287140
REMARK  11 active torsions:
REMARK  status: ('A' for Active; 'I' for Inactive)
REMARK    1  A    between atoms: C_1  and  C_2
REMARK    2  A    between atoms: C_2  and  C_3
REMARK    3  A    between atoms: C_2  and  C_4
REMARK    4  A    between atoms: N_11  and  N_12
REMARK    5  A    between atoms: C_13  and  C_15
REMARK    6  A    between atoms: C_15  and  O_16
REMARK    7  A    between atoms: O_16  and  C_17
REMARK    8  A    between atoms: C_20  and  C_23
REMARK    9  A    between atoms: C_23  and  C_24
REMARK   10  A    between atoms: C_23  and  C_25
REMARK   11  A    between atoms: C_23  and  C_26
REMARK                            x       y       z     vdW  Elec       q    Type
REMARK                         _______ _______ _______ _____ _____    ______ ____
ROOT
ATOM      1  N   UNL     1      -2.259  -2.893  -3.554  0.00  0.00    -0.203 N 
ATOM      2  C   UNL     1      -1.877  -3.361  -4.758  0.00  0.00    +0.270 C 
ATOM      3  O   UNL     1      -2.637  -4.045  -5.411  0.00  0.00    -0.270 OA
ATOM      4  H   UNL     1      -1.652  -2.346  -3.031  0.00  0.00    +0.177 HD
ENDROOT
BRANCH   1  12
ATOM      5  C   UNL     1      -1.709   0.050  -0.376  0.00  0.00    -0.044 A 
ATOM      6  C   UNL     1      -2.523   0.307   0.714  0.00  0.00    +0.006 A 
ATOM      7  C   UNL     1      -3.710  -0.377   0.882  0.00  0.00    +0.024 A 
ATOM      8  C   UNL     1      -4.100  -1.336  -0.046  0.00  0.00    +0.043 A 
ATOM      9  C   UNL     1      -3.273  -1.593  -1.147  0.00  0.00    +0.028 A 
ATOM     10  C   UNL     1      -2.082  -0.894  -1.311  0.00  0.00    +0.016 A 
ATOM     11  C   UNL     1      -3.949  -2.646  -1.941  0.00  0.00    +0.153 C 
ATOM     12  N   UNL     1      -3.534  -3.195  -3.056  0.00  0.00    -0.174 NA
ATOM     13  C   UNL     1      -5.192  -2.942  -1.201  0.00  0.00    +0.269 C 
ATOM     14  O   UNL     1      -6.038  -3.757  -1.519  0.00  0.00    -0.268 OA
ATOM     15  N   UNL     1      -5.223  -2.153  -0.114  0.00  0.00    -0.280 N 
ATOM     16  H   UNL     1      -5.939  -2.153   0.541  0.00  0.00    +0.155 HD
BRANCH   5  18
ATOM     17  C   UNL     1      -0.710   2.304  -0.641  0.00  0.00    +0.012 C 
ATOM     18  C   UNL     1      -0.416   0.806  -0.544  0.00  0.00    +0.013 C 
ATOM     19  C   UNL     1       0.491   0.541   0.659  0.00  0.00    +0.012 C 
ENDBRANCH   5  18
ENDBRANCH   1  12
BRANCH   2  20
ATOM     20  C   UNL     1      -0.507  -3.036  -5.293  0.00  0.00    +0.326 C 
BRANCH  20  21
ATOM     21  O   UNL     1      -0.340  -3.643  -6.577  0.00  0.00    -0.483 OA
BRANCH  21  22
ATOM     22  C   UNL     1       0.850  -3.446  -7.202  0.00  0.00    +0.121 A 
ATOM     23  C   UNL     1       1.840  -2.689  -6.591  0.00  0.00    +0.046 A 
ATOM     24  C   UNL     1       3.049  -2.491  -7.229  0.00  0.00    +0.008 A 
ATOM     25  C   UNL     1       3.273  -3.045  -8.476  0.00  0.00    -0.042 A 
ATOM     26  C   UNL     1       2.288  -3.799  -9.087  0.00  0.00    +0.008 A 
ATOM     27  C   UNL     1       1.080  -4.005  -8.451  0.00  0.00    +0.046 A 
BRANCH  25  28
ATOM     28  C   UNL     1       4.593  -2.827  -9.169  0.00  0.00    -0.013 C 
ATOM     29  C   UNL     1       5.723  -3.390  -8.305  0.00  0.00    +0.015 C 
ATOM     30  C   UNL     1       4.582  -3.540 -10.523  0.00  0.00    +0.015 C 
ATOM     31  C   UNL     1       4.814  -1.328  -9.385  0.00  0.00    +0.015 C 
ENDBRANCH  25  28
ENDBRANCH  21  22
ENDBRANCH  20  21
ENDBRANCH   2  20
TORSDOF 6
