REMARK  Name = ZINC25071159
REMARK  10 active torsions:
REMARK  status: ('A' for Active; 'I' for Inactive)
REMARK    1  A    between atoms: C_1  and  C_2
REMARK    2  A    between atoms: C_2  and  O_3
REMARK    3  A    between atoms: O_3  and  C_4
REMARK    4  A    between atoms: C_6  and  C_11
REMARK    5  A    between atoms: C_9  and  O_10
REMARK    6  A    between atoms: C_13  and  C_20
REMARK    7  A    between atoms: C_14  and  C_19
REMARK    8  A    between atoms: N_22  and  C_23
REMARK    9  A    between atoms: C_28  and  O_29
REMARK   10  A    between atoms: O_29  and  C_30
REMARK                            x       y       z     vdW  Elec       q    Type
REMARK                         _______ _______ _______ _____ _____    ______ ____
ROOT
ATOM      1  C   UNL     1      -0.258  -0.181  -0.354  0.00  0.00    +0.139 C 
ATOM      2  C   UNL     1       0.050   1.250   0.039  0.00  0.00    +0.056 C 
ATOM      3  C   UNL     1       1.331   1.560   0.326  0.00  0.00    +0.017 C 
ATOM      4  N   UNL     1       2.317   0.616   0.264  0.00  0.00    -0.300 N 
ATOM      5  C   UNL     1       2.101  -0.661  -0.076  0.00  0.00    +0.135 C 
ATOM      6  S   UNL     1       3.427  -1.743  -0.113  0.00  0.00    -0.019 S 
ATOM      7  N   UNL     1       0.874  -1.122  -0.390  0.00  0.00    -0.315 N 
ATOM      8  C   UNL     1       1.681   2.972   0.721  0.00  0.00    +0.061 C 
ATOM      9  H   UNL     1       3.355   0.889   0.502  0.00  0.00    +0.154 HD
ATOM     10  H   UNL     1       0.707  -2.173  -0.668  0.00  0.00    +0.149 HD
ENDROOT
BRANCH   1  13
ATOM     11  C   UNL     1      -2.830  -0.367  -3.115  0.00  0.00    +0.162 A 
ATOM     12  C   UNL     1      -2.247  -0.389  -1.859  0.00  0.00    +0.055 A 
ATOM     13  C   UNL     1      -0.890  -0.162  -1.722  0.00  0.00    -0.019 A 
ATOM     14  C   UNL     1      -0.110   0.078  -2.838  0.00  0.00    +0.009 A 
ATOM     15  C   UNL     1      -0.684   0.096  -4.096  0.00  0.00    +0.049 A 
ATOM     16  C   UNL     1      -2.045  -0.126  -4.239  0.00  0.00    +0.158 A 
BRANCH  16  17
ATOM     17  O   UNL     1      -2.611  -0.109  -5.475  0.00  0.00    -0.503 OA
ATOM     18  H   UNL     1      -1.990   0.081  -6.363  0.00  0.00    +0.292 HD
ENDBRANCH  16  17
BRANCH  11  19
ATOM     19  O   UNL     1      -4.165  -0.585  -3.251  0.00  0.00    -0.489 OA
BRANCH  19  21
ATOM     20  C   UNL     1      -6.410  -0.852  -2.397  0.00  0.00    +0.048 C 
ATOM     21  C   UNL     1      -4.926  -0.720  -2.049  0.00  0.00    +0.226 C 
ENDBRANCH  19  21
ENDBRANCH  11  19
ENDBRANCH   1  13
BRANCH   2  22
ATOM     22  C   UNL     1      -0.972   2.229   0.097  0.00  0.00    +0.248 C 
ATOM     23  O   UNL     1      -1.700   2.293   1.070  0.00  0.00    -0.270 OA
ATOM     24  N   UNL     1      -1.137   3.091  -0.926  0.00  0.00    -0.279 N 
ATOM     25  H   UNL     1      -0.543   2.976  -1.845  0.00  0.00    +0.155 HD
BRANCH  24  26
ATOM     26  C   UNL     1      -2.067   4.133  -0.820  0.00  0.00    +0.076 A 
ATOM     27  C   UNL     1      -2.516   4.541   0.427  0.00  0.00    +0.027 A 
ATOM     28  C   UNL     1      -3.429   5.573   0.530  0.00  0.00    +0.002 A 
ATOM     29  C   UNL     1      -3.906   6.194  -0.610  0.00  0.00    +0.004 A 
ATOM     30  C   UNL     1      -3.467   5.790  -1.857  0.00  0.00    +0.047 A 
ATOM     31  C   UNL     1      -2.548   4.760  -1.968  0.00  0.00    +0.141 A 
BRANCH  31  32
ATOM     32  O   UNL     1      -2.115   4.361  -3.194  0.00  0.00    -0.493 OA
ATOM     33  C   UNL     1      -2.563   5.121  -4.319  0.00  0.00    +0.277 C 
ENDBRANCH  31  32
ENDBRANCH  24  26
ENDBRANCH   2  22
TORSDOF 7
