REMARK  Name = ZINC21739019
REMARK  6 active torsions:
REMARK  status: ('A' for Active; 'I' for Inactive)
REMARK    1  A    between atoms: C_6  and  C_24
REMARK    2  A    between atoms: C_7  and  N_9
REMARK    3  A    between atoms: C_10  and  C_12
REMARK    4  A    between atoms: C_12  and  S_13
REMARK    5  A    between atoms: S_13  and  C_14
REMARK    6  A    between atoms: N_18  and  C_19
REMARK                            x       y       z     vdW  Elec       q    Type
REMARK                         _______ _______ _______ _____ _____    ______ ____
ROOT
ATOM      1  N   UNL     1       6.114  -2.864  -0.114  0.00  0.00    -0.279 N 
ATOM      2  C   UNL     1       4.818  -2.495  -0.093  0.00  0.00    +0.228 C 
ATOM      3  O   UNL     1       3.947  -3.339  -0.093  0.00  0.00    -0.275 OA
ATOM      4  H   UNL     1       6.904  -2.098  -0.114  0.00  0.00    +0.155 HD
ENDROOT
BRANCH   1  11
ATOM      5  C   UNL     1       8.839  -8.444   0.245  0.00  0.00    +0.005 C 
ATOM      6  C   UNL     1       7.698  -9.039  -0.586  0.00  0.00    +0.005 C 
ATOM      7  C   UNL     1       6.384  -8.353  -0.184  0.00  0.00    +0.043 C 
ATOM      8  C   UNL     1       6.610  -6.873  -0.168  0.00  0.00    -0.004 A 
ATOM      9  C   UNL     1       7.798  -6.230  -0.174  0.00  0.00    -0.023 A 
ATOM     10  C   UNL     1       7.716  -4.779  -0.162  0.00  0.00    +0.068 A 
ATOM     11  C   UNL     1       6.452  -4.208  -0.134  0.00  0.00    +0.084 A 
ATOM     12  S   UNL     1       5.398  -5.583  -0.138  0.00  0.00    -0.077 S 
ATOM     13  C   UNL     1       9.110  -7.005  -0.198  0.00  0.00    +0.037 C 
BRANCH  10  14
ATOM     14  C   UNL     1       8.925  -3.950  -0.174  0.00  0.00    +0.244 C 
ATOM     15  O   UNL     1       9.445  -3.617   0.875  0.00  0.00    -0.270 OA
ATOM     16  N   UNL     1       9.461  -3.556  -1.346  0.00  0.00    -0.325 N 
ATOM     17  H   UNL     1      10.368  -2.933  -1.355  0.00  0.00    +0.145 HD
ATOM     18  H   UNL     1       8.990  -3.857  -2.294  0.00  0.00    +0.145 HD
ENDBRANCH  10  14
ENDBRANCH   1  11
BRANCH   2  19
ATOM     19  C   UNL     1       4.451  -1.033  -0.071  0.00  0.00    +0.173 C 
BRANCH  19  20
ATOM     20  S   UNL     1       2.649  -0.864  -0.048  0.00  0.00    -0.075 S 
BRANCH  20  21
ATOM     21  C   UNL     1       2.507   0.892  -0.025  0.00  0.00    +0.210 A 
ATOM     22  N   UNL     1       3.499   1.757  -0.030  0.00  0.00    -0.101 NA
ATOM     23  N   UNL     1       3.047   2.959  -0.003  0.00  0.00    -0.022 NA
ATOM     24  N   UNL     1       1.758   2.953   0.015  0.00  0.00    -0.043 NA
ATOM     25  N   UNL     1       1.357   1.606  -0.002  0.00  0.00    -0.217 N 
BRANCH  25  26
ATOM     26  C   UNL     1      -0.013   1.086   0.008  0.00  0.00    +0.112 C 
ATOM     27  C   UNL     1      -0.763   1.597   1.255  0.00  0.00    +0.027 C 
ATOM     28  C   UNL     1      -1.531   2.845   0.750  0.00  0.00    +0.002 C 
ATOM     29  C   UNL     1      -1.978   2.421  -0.670  0.00  0.00    +0.002 C 
ATOM     30  C   UNL     1      -0.784   1.609  -1.216  0.00  0.00    +0.027 C 
ENDBRANCH  25  26
ENDBRANCH  20  21
ENDBRANCH  19  20
ENDBRANCH   2  19
TORSDOF 6
