REMARK  Name = ZINC08608507
REMARK  11 active torsions:
REMARK  status: ('A' for Active; 'I' for Inactive)
REMARK    1  A    between atoms: C_1  and  C_2
REMARK    2  A    between atoms: C_7  and  N_8
REMARK    3  A    between atoms: C_9  and  C_11
REMARK    4  A    between atoms: C_11  and  O_12
REMARK    5  A    between atoms: O_12  and  C_13
REMARK    6  A    between atoms: C_13  and  C_15
REMARK    7  A    between atoms: C_15  and  C_16
REMARK    8  A    between atoms: C_16  and  C_17
REMARK    9  A    between atoms: C_16  and  C_18
REMARK   10  A    between atoms: C_16  and  C_19
REMARK   11  A    between atoms: C_19  and  C_20
REMARK                            x       y       z     vdW  Elec       q    Type
REMARK                         _______ _______ _______ _____ _____    ______ ____
ROOT
ATOM      1  C   UNL     1      -0.423  -1.296   8.388  0.00  0.00    +0.127 C 
ENDROOT
BRANCH   1   2
ATOM      2  C   UNL     1      -0.534  -0.469   9.671  0.00  0.00    -0.018 C 
ATOM      3  C   UNL     1       0.697   0.430   9.806  0.00  0.00    +0.012 C 
ATOM      4  C   UNL     1      -1.794   0.397   9.612  0.00  0.00    +0.012 C 
BRANCH   2   5
ATOM      5  C   UNL     1      -0.615  -1.407  10.877  0.00  0.00    +0.080 C 
BRANCH   5   6
ATOM      6  C   UNL     1      -0.725  -0.592  12.140  0.00  0.00    +0.122 C 
ATOM      7  N   UNL     1      -0.737   0.684  12.012  0.00  0.00    -0.118 NA
ATOM      8  S   UNL     1      -0.847   1.674  13.338  0.00  0.00    +0.102 S 
ATOM      9  O   UNL     1      -2.208   2.070  13.444  0.00  0.00    -0.146 OA
ATOM     10  O   UNL     1       0.218   2.610  13.244  0.00  0.00    -0.146 OA
ATOM     11  C   UNL     1      -0.505   0.649  14.733  0.00  0.00    +0.134 A 
ATOM     12  C   UNL     1      -0.232   1.198  15.965  0.00  0.00    +0.031 A 
ATOM     13  C   UNL     1       0.036   0.370  17.042  0.00  0.00    +0.002 A 
ATOM     14  C   UNL     1       0.029  -1.003  16.878  0.00  0.00    +0.002 A 
ATOM     15  C   UNL     1      -0.245  -1.557  15.643  0.00  0.00    +0.025 A 
ATOM     16  C   UNL     1      -0.516  -0.731  14.559  0.00  0.00    +0.059 A 
ATOM     17  N   UNL     1      -0.806  -1.274  13.309  0.00  0.00    -0.300 N 
ATOM     18  H   UNL     1      -1.083  -2.203  13.271  0.00  0.00    +0.153 HD
ENDBRANCH   5   6
ENDBRANCH   2   5
ENDBRANCH   1   2
BRANCH   1  19
ATOM     19  C   UNL     1      -0.343  -0.373   7.200  0.00  0.00    +0.308 C 
ATOM     20  O   UNL     1      -0.371   0.824   7.362  0.00  0.00    -0.251 OA
BRANCH  19  21
ATOM     21  O   UNL     1      -0.240  -0.880   5.962  0.00  0.00    -0.455 OA
BRANCH  21  22
ATOM     22  C   UNL     1      -0.168   0.054   4.882  0.00  0.00    +0.328 C 
BRANCH  22  24
ATOM     23  N   UNL     1       0.025  -0.014   2.417  0.00  0.00    -0.282 N 
ATOM     24  C   UNL     1      -0.056  -0.693   3.578  0.00  0.00    +0.255 C 
ATOM     25  O   UNL     1      -0.040  -1.906   3.574  0.00  0.00    -0.272 OA
ATOM     26  H   UNL     1       0.078   0.955   2.424  0.00  0.00    +0.155 HD
BRANCH  23  33
ATOM     27  C   UNL     1      -1.265   1.183   0.181  0.00  0.00    +0.045 C 
ATOM     28  C   UNL     1      -0.584  -0.158   0.084  0.00  0.00    -0.029 A 
ATOM     29  C   UNL     1      -0.569  -0.840  -1.117  0.00  0.00    +0.006 A 
ATOM     30  C   UNL     1       0.054  -2.070  -1.207  0.00  0.00    +0.020 A 
ATOM     31  C   UNL     1       0.667  -2.622  -0.095  0.00  0.00    +0.043 A 
ATOM     32  C   UNL     1       0.655  -1.944   1.109  0.00  0.00    +0.043 A 
ATOM     33  C   UNL     1       0.034  -0.706   1.201  0.00  0.00    +0.038 A 
ATOM     34 CL   UNL     1       1.449  -4.168  -0.213  0.00  0.00    -0.083 Cl
ENDBRANCH  23  33
ENDBRANCH  22  24
ENDBRANCH  21  22
ENDBRANCH  19  21
ENDBRANCH   1  19
TORSDOF 8
