REMARK  Name = ZINC19973240
REMARK  14 active torsions:
REMARK  status: ('A' for Active; 'I' for Inactive)
REMARK    1  A    between atoms: C_1  and  C_2
REMARK    2  A    between atoms: C_6  and  C_15
REMARK    3  A    between atoms: C_13  and  C_14
REMARK    4  A    between atoms: C_15  and  C_17
REMARK    5  A    between atoms: C_15  and  N_26
REMARK    6  A    between atoms: N_21  and  C_22
REMARK    7  A    between atoms: C_22  and  C_23
REMARK    8  A    between atoms: C_23  and  O_24
REMARK    9  A    between atoms: O_24  and  C_25
REMARK   10  A    between atoms: N_26  and  C_27
REMARK   11  A    between atoms: N_26  and  C_35
REMARK   12  A    between atoms: C_27  and  C_28
REMARK   13  A    between atoms: C_28  and  C_29
REMARK   14  A    between atoms: C_35  and  C_36
REMARK                            x       y       z     vdW  Elec       q    Type
REMARK                         _______ _______ _______ _____ _____    ______ ____
ROOT
ATOM      1  C   UNL     1      -4.899   3.353   0.286  0.00  0.00    +0.163 C 
ENDROOT
BRANCH   1   7
ATOM      2  C   UNL     1       2.265   1.592   1.380  0.00  0.00    +0.044 C 
ATOM      3  C   UNL     1       0.860   1.204   0.996  0.00  0.00    -0.047 A 
ATOM      4  C   UNL     1      -0.129   2.147   1.007  0.00  0.00    +0.013 A 
ATOM      5  C   UNL     1      -1.433   1.788   0.651  0.00  0.00    -0.001 A 
ATOM      6  C   UNL     1      -2.517   2.772   0.651  0.00  0.00    +0.021 A 
ATOM      7  C   UNL     1      -3.761   2.365   0.296  0.00  0.00    +0.042 A 
ATOM      8  C   UNL     1      -3.994   1.021  -0.065  0.00  0.00    +0.254 A 
ATOM      9  O   UNL     1      -5.119   0.677  -0.380  0.00  0.00    -0.268 OA
ATOM     10  N   UNL     1      -3.005   0.110  -0.068  0.00  0.00    -0.322 N 
ATOM     11  H   UNL     1      -3.218  -0.932  -0.349  0.00  0.00    +0.169 HD
ATOM     12  C   UNL     1      -1.717   0.460   0.277  0.00  0.00    +0.049 A 
ATOM     13  C   UNL     1      -0.694  -0.483   0.278  0.00  0.00    +0.030 A 
ATOM     14  C   UNL     1       0.583  -0.106   0.633  0.00  0.00    -0.046 A 
ATOM     15  C   UNL     1       1.690  -1.128   0.628  0.00  0.00    +0.044 C 
ENDBRANCH   1   7
BRANCH   1  16
ATOM     16  C   UNL     1      -5.429   3.495  -1.117  0.00  0.00    +0.173 A 
ATOM     17  N   UNL     1      -6.343   2.748  -1.687  0.00  0.00    -0.111 NA
ATOM     18  N   UNL     1      -6.523   3.185  -2.886  0.00  0.00    -0.023 NA
ATOM     19  N   UNL     1      -5.747   4.191  -3.095  0.00  0.00    -0.044 NA
ATOM     20  N   UNL     1      -5.061   4.416  -2.026  0.00  0.00    -0.225 N 
BRANCH  20  21
ATOM     21  C   UNL     1      -4.065   5.474  -1.838  0.00  0.00    +0.175 C 
BRANCH  21  22
ATOM     22  C   UNL     1      -2.686   4.956  -2.253  0.00  0.00    +0.183 C 
BRANCH  22  23
ATOM     23  O   UNL     1      -1.715   5.988  -2.070  0.00  0.00    -0.381 OA
ATOM     24  C   UNL     1      -0.386   5.606  -2.430  0.00  0.00    +0.194 C 
ENDBRANCH  22  23
ENDBRANCH  21  22
ENDBRANCH  20  21
ENDBRANCH   1  16
BRANCH   1  25
ATOM     25  N   UNL     1      -5.971   2.873   1.169  0.00  0.00    -0.284 NA
BRANCH  25  26
ATOM     26  C   UNL     1      -5.423   2.363   2.433  0.00  0.00    +0.090 C 
BRANCH  26  27
ATOM     27  C   UNL     1      -6.527   1.650   3.216  0.00  0.00    +0.050 C 
BRANCH  27  28
ATOM     28  C   UNL     1      -5.965   1.127   4.513  0.00  0.00    -0.046 A 
ATOM     29  C   UNL     1      -5.429  -0.146   4.570  0.00  0.00    +0.003 A 
ATOM     30  C   UNL     1      -4.909  -0.624   5.759  0.00  0.00    +0.000 A 
ATOM     31  C   UNL     1      -4.935   0.167   6.892  0.00  0.00    +0.000 A 
ATOM     32  C   UNL     1      -5.476   1.437   6.836  0.00  0.00    +0.000 A 
ATOM     33  C   UNL     1      -5.991   1.917   5.647  0.00  0.00    +0.003 A 
ENDBRANCH  27  28
ENDBRANCH  26  27
ENDBRANCH  25  26
BRANCH  25  34
ATOM     34  C   UNL     1      -6.963   3.929   1.413  0.00  0.00    +0.127 C 
BRANCH  34  35
ATOM     35  C   UNL     1      -7.865   4.057   0.213  0.00  0.00    +0.004 A 
ATOM     36  C   UNL     1      -8.941   3.308  -0.131  0.00  0.00    +0.012 A 
ATOM     37  C   UNL     1      -9.627   3.612  -1.292  0.00  0.00    +0.008 A 
ATOM     38  C   UNL     1      -9.203   4.652  -2.052  0.00  0.00    +0.045 A 
ATOM     39  S   UNL     1      -7.798   5.242  -1.122  0.00  0.00    -0.100 S 
ENDBRANCH  34  35
ENDBRANCH  25  34
ENDBRANCH   1  25
TORSDOF 11
