REMARK  Name = ZINC09763203
REMARK  15 active torsions:
REMARK  status: ('A' for Active; 'I' for Inactive)
REMARK    1  A    between atoms: C_1  and  C_2
REMARK    2  A    between atoms: C_2  and  C_32
REMARK    3  A    between atoms: N_3  and  N_4
REMARK    4  A    between atoms: C_5  and  C_7
REMARK    5  A    between atoms: C_7  and  S_8
REMARK    6  A    between atoms: S_8  and  C_9
REMARK    7  A    between atoms: C_12  and  C_22
REMARK    8  A    between atoms: N_13  and  C_14
REMARK    9  A    between atoms: C_17  and  O_20
REMARK   10  A    between atoms: O_20  and  C_21
REMARK   11  A    between atoms: C_25  and  C_28
REMARK   12  A    between atoms: C_28  and  C_29
REMARK   13  A    between atoms: C_28  and  C_30
REMARK   14  A    between atoms: C_28  and  C_31
REMARK   15  A    between atoms: C_35  and  O_38
REMARK                            x       y       z     vdW  Elec       q    Type
REMARK                         _______ _______ _______ _____ _____    ______ ____
ROOT
ATOM      1  C   UNL     1       0.075  -0.070   7.625  0.00  0.00    +0.197 A 
ATOM      2  N   UNL     1       0.052   1.244   7.653  0.00  0.00    -0.122 NA
ATOM      3  N   UNL     1       0.059   1.660   8.869  0.00  0.00    -0.128 NA
ATOM      4  C   UNL     1       0.088   0.639   9.693  0.00  0.00    +0.169 A 
ATOM      5  N   UNL     1       0.093  -0.503   8.922  0.00  0.00    -0.270 N 
ENDROOT
BRANCH   5   6
ATOM      6  C   UNL     1       0.116  -1.831   9.373  0.00  0.00    +0.051 A 
ATOM      7  C   UNL     1      -0.962  -2.342  10.082  0.00  0.00    +0.030 A 
ATOM      8  C   UNL     1      -0.939  -3.650  10.526  0.00  0.00    +0.047 A 
ATOM      9  C   UNL     1       0.161  -4.452  10.264  0.00  0.00    +0.120 A 
ATOM     10  C   UNL     1       1.240  -3.942   9.555  0.00  0.00    +0.047 A 
ATOM     11  C   UNL     1       1.215  -2.637   9.105  0.00  0.00    +0.030 A 
BRANCH   9  12
ATOM     12  O   UNL     1       0.184  -5.739  10.701  0.00  0.00    -0.495 OA
ATOM     13  C   UNL     1       1.349  -6.508  10.395  0.00  0.00    +0.277 C 
ENDBRANCH   9  12
ENDBRANCH   5   6
BRANCH   4  14
ATOM     14  C   UNL     1       0.105   0.701  11.170  0.00  0.00    +0.020 A 
ATOM     15  C   UNL     1       0.453  -0.426  11.916  0.00  0.00    +0.012 A 
ATOM     16  C   UNL     1       0.467  -0.361  13.294  0.00  0.00    +0.005 A 
ATOM     17  C   UNL     1       0.136   0.819  13.937  0.00  0.00    -0.042 A 
ATOM     18  C   UNL     1      -0.210   1.940  13.204  0.00  0.00    +0.005 A 
ATOM     19  C   UNL     1      -0.222   1.890  11.825  0.00  0.00    +0.012 A 
BRANCH  17  20
ATOM     20  C   UNL     1       0.153   0.883  15.442  0.00  0.00    -0.013 C 
ATOM     21  C   UNL     1       1.560   0.564  15.950  0.00  0.00    +0.015 C 
ATOM     22  C   UNL     1      -0.247   2.288  15.898  0.00  0.00    +0.015 C 
ATOM     23  C   UNL     1      -0.837  -0.138  16.007  0.00  0.00    +0.015 C 
ENDBRANCH  17  20
ENDBRANCH   4  14
BRANCH   1  24
ATOM     24  S   UNL     1       0.075  -1.085   6.184  0.00  0.00    -0.076 S 
BRANCH  24  25
ATOM     25  C   UNL     1       0.046   0.101   4.812  0.00  0.00    +0.174 C 
BRANCH  25  27
ATOM     26  N   UNL     1       0.024   0.035   2.339  0.00  0.00    -0.206 N 
ATOM     27  C   UNL     1       0.044  -0.645   3.503  0.00  0.00    +0.242 C 
ATOM     28  O   UNL     1       0.060  -1.858   3.496  0.00  0.00    -0.273 OA
ATOM     29  H   UNL     1       0.011   1.005   2.345  0.00  0.00    +0.177 HD
BRANCH  26  32
ATOM     30  C   UNL     1      -0.018   1.503   0.010  0.00  0.00    +0.068 C 
ATOM     31  C   UNL     1       0.002  -0.004   0.002  0.00  0.00    +0.063 C 
ATOM     32  N   UNL     1       0.022  -0.659   1.122  0.00  0.00    -0.185 NA
BRANCH  31  33
ATOM     33  C   UNL     1      -0.000  -0.734  -1.279  0.00  0.00    -0.002 A 
ATOM     34  C   UNL     1      -0.015  -0.031  -2.486  0.00  0.00    +0.013 A 
ATOM     35  C   UNL     1      -0.017  -0.718  -3.681  0.00  0.00    +0.046 A 
ATOM     36  C   UNL     1      -0.004  -2.107  -3.686  0.00  0.00    +0.117 A 
ATOM     37  C   UNL     1       0.010  -2.810  -2.488  0.00  0.00    +0.046 A 
ATOM     38  C   UNL     1       0.019  -2.131  -1.289  0.00  0.00    +0.013 A 
BRANCH  36  39
ATOM     39  O   UNL     1      -0.006  -2.780  -4.866  0.00  0.00    -0.507 OA
ATOM     40  H   UNL     1       0.876  -2.966  -5.214  0.00  0.00    +0.292 HD
ENDBRANCH  36  39
ENDBRANCH  31  33
ENDBRANCH  26  32
ENDBRANCH  25  27
ENDBRANCH  24  25
ENDBRANCH   1  24
TORSDOF 10
