REMARK  Name = ZINC13065007
REMARK  16 active torsions:
REMARK  status: ('A' for Active; 'I' for Inactive)
REMARK    1  A    between atoms: C_1  and  C_2
REMARK    2  A    between atoms: C_2  and  C_3
REMARK    3  A    between atoms: C_3  and  C_5
REMARK    4  A    between atoms: C_3  and  N_71
REMARK    5  A    between atoms: N_9  and  C_10
REMARK    6  A    between atoms: C_10  and  C_11
REMARK    7  A    between atoms: C_11  and  O_13
REMARK    8  A    between atoms: O_13  and  C_14
REMARK    9  A    between atoms: C_14  and  C_15
REMARK   10  A    between atoms: C_16  and  C_17
REMARK   11  A    between atoms: C_16  and  N_71
REMARK   12  A    between atoms: C_20  and  C_23
REMARK   13  A    between atoms: C_24  and  C_25
REMARK   14  A    between atoms: C_24  and  N_71
REMARK   15  A    between atoms: C_28  and  C_38
REMARK   16  A    between atoms: C_30  and  C_37
REMARK                            x       y       z     vdW  Elec       q    Type
REMARK                         _______ _______ _______ _____ _____    ______ ____
ROOT
ATOM      1  N   UNL     1       5.006   4.772  -1.003  0.00  0.00    +0.392 N 
ATOM      2  H   UNL     1       4.223   5.300  -1.406  0.00  0.00    -0.080 HD
ENDROOT
BRANCH   1   3
ATOM      3  C   UNL     1       6.227   5.603  -1.063  0.00  0.00    +0.003 C 
BRANCH   3   4
ATOM      4  C   UNL     1       7.345   4.956  -0.287  0.00  0.00    +0.139 A 
ATOM      5  N   UNL     1       7.259   4.410   0.901  0.00  0.00    -0.115 NA
ATOM      6  N   UNL     1       8.426   3.969   1.222  0.00  0.00    -0.023 NA
ATOM      7  N   UNL     1       9.255   4.219   0.269  0.00  0.00    -0.043 NA
ATOM      8  N   UNL     1       8.625   4.822  -0.682  0.00  0.00    -0.220 N 
BRANCH   8   9
ATOM      9  C   UNL     1       9.196   5.279  -1.951  0.00  0.00    +0.267 C 
BRANCH   9  10
ATOM     10  C   UNL     1       9.779   6.657  -1.773  0.00  0.00    +0.329 C 
ATOM     11  O   UNL     1       9.723   7.202  -0.696  0.00  0.00    -0.249 OA
BRANCH  10  12
ATOM     12  O   UNL     1      10.360   7.280  -2.810  0.00  0.00    -0.464 OA
BRANCH  12  13
ATOM     13  C   UNL     1      10.900   8.605  -2.566  0.00  0.00    +0.229 C 
ATOM     14  C   UNL     1      11.517   9.151  -3.855  0.00  0.00    +0.048 C 
ENDBRANCH  12  13
ENDBRANCH  10  12
ENDBRANCH   9  10
ENDBRANCH   8   9
ENDBRANCH   3   4
BRANCH   3  16
ATOM     15  C   UNL     1       4.886   7.693  -1.338  0.00  0.00    +0.002 C 
ATOM     16  C   UNL     1       5.919   6.977  -0.465  0.00  0.00    -0.011 C 
ENDBRANCH   3  16
ENDBRANCH   1   3
BRANCH   1  17
ATOM     17  C   UNL     1       5.200   3.531  -1.782  0.00  0.00    -0.042 C 
BRANCH  17  18
ATOM     18  C   UNL     1       5.145   3.868  -3.250  0.00  0.00    -0.064 A 
ATOM     19  C   UNL     1       3.925   3.948  -3.895  0.00  0.00    +0.002 A 
ATOM     20  C   UNL     1       3.875   4.262  -5.241  0.00  0.00    +0.003 A 
ATOM     21  C   UNL     1       5.044   4.485  -5.943  0.00  0.00    -0.050 A 
ATOM     22  C   UNL     1       6.264   4.400  -5.298  0.00  0.00    +0.003 A 
ATOM     23  C   UNL     1       6.315   4.091  -3.952  0.00  0.00    +0.002 A 
ATOM     24  C   UNL     1       4.989   4.822  -7.411  0.00  0.00    +0.044 C 
ENDBRANCH  17  18
ENDBRANCH   1  17
BRANCH   1  25
ATOM     25  C   UNL     1       4.690   4.441   0.403  0.00  0.00    -0.036 C 
BRANCH  25  26
ATOM     26  C   UNL     1       3.264   3.958   0.477  0.00  0.00    +0.001 A 
ATOM     27  C   UNL     1       2.999   2.628   0.450  0.00  0.00    +0.017 A 
ATOM     28  C   UNL     1       1.604   2.192   0.523  0.00  0.00    +0.002 A 
ATOM     29  C   UNL     1       1.269   0.834   0.500  0.00  0.00    -0.041 A 
ATOM     30  C   UNL     1      -0.043   0.459   0.569  0.00  0.00    +0.007 A 
ATOM     31  C   UNL     1      -1.047   1.413   0.662  0.00  0.00    -0.048 A 
ATOM     32  C   UNL     1      -0.740   2.757   0.687  0.00  0.00    +0.029 A 
ATOM     33  C   UNL     1       0.589   3.162   0.618  0.00  0.00    +0.050 A 
ATOM     34  N   UNL     1       0.925   4.499   0.640  0.00  0.00    -0.322 N 
ATOM     35  H   UNL     1       0.225   5.167   0.706  0.00  0.00    +0.169 HD
ATOM     36  C   UNL     1       2.209   4.891   0.573  0.00  0.00    +0.251 A 
ATOM     37  O   UNL     1       2.470   6.082   0.594  0.00  0.00    -0.268 OA
ATOM     38  C   UNL     1      -2.487   0.976   0.737  0.00  0.00    +0.044 C 
ATOM     39  C   UNL     1       2.350  -0.211   0.399  0.00  0.00    +0.044 C 
ENDBRANCH  25  26
ENDBRANCH   1  25
TORSDOF 11
