REMARK  Name = ZINC04497030
REMARK  7 active torsions:
REMARK  status: ('A' for Active; 'I' for Inactive)
REMARK    1  A    between atoms: C_1  and  C_2
REMARK    2  A    between atoms: C_5  and  N_9
REMARK    3  A    between atoms: C_7  and  C_8
REMARK    4  A    between atoms: C_11  and  N_16
REMARK    5  A    between atoms: C_17  and  C_19
REMARK    6  A    between atoms: C_22  and  C_28
REMARK    7  A    between atoms: C_23  and  N_25
REMARK                            x       y       z     vdW  Elec       q    Type
REMARK                         _______ _______ _______ _____ _____    ______ ____
ROOT
ATOM      1  N   UNL     1       2.506   3.522   0.626  0.00  0.00    -0.270 N 
ATOM      2  C   UNL     1       3.824   2.934   0.363  0.00  0.00    +0.136 C 
ATOM      3  C   UNL     1       4.845   3.922   0.969  0.00  0.00    +0.100 C 
ATOM      4  C   UNL     1       4.058   5.253   0.929  0.00  0.00    +0.120 C 
ATOM      5  C   UNL     1       2.606   4.827   0.935  0.00  0.00    +0.222 C 
ATOM      6  O   UNL     1       1.669   5.555   1.186  0.00  0.00    -0.275 OA
ENDROOT
BRANCH   1  11
ATOM      7  C   UNL     1      -2.389   0.669   0.340  0.00  0.00    +0.044 C 
ATOM      8  C   UNL     1      -1.089   1.426   0.418  0.00  0.00    -0.047 A 
ATOM      9  C   UNL     1       0.092   0.810   0.044  0.00  0.00    +0.005 A 
ATOM     10  C   UNL     1       1.285   1.503   0.110  0.00  0.00    +0.024 A 
ATOM     11  C   UNL     1       1.299   2.818   0.557  0.00  0.00    +0.037 A 
ATOM     12  C   UNL     1       0.112   3.431   0.938  0.00  0.00    +0.027 A 
ATOM     13  C   UNL     1      -1.077   2.733   0.869  0.00  0.00    -0.046 A 
ATOM     14  C   UNL     1      -2.365   3.398   1.282  0.00  0.00    +0.044 C 
ENDBRANCH   1  11
BRANCH   3  15
ATOM     15  N   UNL     1       6.051   4.003   0.142  0.00  0.00    -0.307 N 
ATOM     16  C   UNL     1       7.223   4.375   0.694  0.00  0.00    +0.244 C 
ATOM     17  O   UNL     1       7.279   4.643   1.878  0.00  0.00    -0.270 OA
ATOM     18  H   UNL     1       6.007   3.788  -0.803  0.00  0.00    +0.149 HD
BRANCH  16  19
ATOM     19  C   UNL     1       8.441   4.455  -0.140  0.00  0.00    +0.039 A 
ATOM     20  C   UNL     1       8.382   4.142  -1.499  0.00  0.00    +0.013 A 
ATOM     21  C   UNL     1       9.521   4.224  -2.273  0.00  0.00    +0.006 A 
ATOM     22  C   UNL     1      10.722   4.606  -1.703  0.00  0.00    -0.020 A 
ATOM     23  C   UNL     1      10.789   4.913  -0.356  0.00  0.00    +0.130 A 
ATOM     24  C   UNL     1       9.656   4.840   0.428  0.00  0.00    +0.046 A 
ATOM     25  C   UNL     1      11.964   4.688  -2.554  0.00  0.00    +0.046 C 
BRANCH  23  26
ATOM     26  N   UNL     1      12.079   5.320   0.245  0.00  0.00    +0.057 N 
ATOM     27  O   UNL     1      13.116   4.805  -0.131  0.00  0.00    -0.126 OA
ATOM     28  O   UNL     1      12.102   6.171   1.117  0.00  0.00    -0.126 OA
ENDBRANCH  23  26
ENDBRANCH  16  19
ENDBRANCH   3  15
TORSDOF 4
