REMARK  Name = ZINC39684078
REMARK  7 active torsions:
REMARK  status: ('A' for Active; 'I' for Inactive)
REMARK    1  A    between atoms: C_1  and  C_2
REMARK    2  A    between atoms: C_7  and  C_11
REMARK    3  A    between atoms: C_11  and  C_12
REMARK    4  A    between atoms: C_12  and  N_13
REMARK    5  A    between atoms: C_14  and  C_16
REMARK    6  A    between atoms: C_27  and  C_29
REMARK    7  A    between atoms: C_32  and  C_35
REMARK                            x       y       z     vdW  Elec       q    Type
REMARK                         _______ _______ _______ _____ _____    ______ ____
ROOT
ATOM      1  C   UNL     1      -9.143   2.160  -6.491  0.00  0.00    +0.100 C 
ATOM      2  C   UNL     1      -8.328   3.157  -7.345  0.00  0.00    +0.121 C 
ATOM      3  N   UNL     1      -7.939   2.387  -8.550  0.00  0.00    -0.296 N 
ATOM      4  C   UNL     1      -9.135   1.570  -8.868  0.00  0.00    +0.115 C 
ATOM      5  C   UNL     1      -9.674   1.123  -7.495  0.00  0.00    -0.004 C 
ATOM      6  C   UNL     1     -11.200   1.125  -7.500  0.00  0.00    -0.010 C 
ATOM      7  C   UNL     1     -11.704   0.045  -8.462  0.00  0.00    -0.082 C 
ATOM      8  N   UNL     1     -11.198  -1.266  -8.037  0.00  0.00    +0.379 N 
ATOM      9  C   UNL     1      -9.733  -1.289  -8.124  0.00  0.00    -0.082 C 
ATOM     10  C   UNL     1      -9.146  -0.266  -7.148  0.00  0.00    -0.010 C 
ATOM     11  C   UNL     1      -6.763   2.421  -9.208  0.00  0.00    +0.247 C 
ATOM     12  O   UNL     1      -5.829   3.051  -8.752  0.00  0.00    -0.270 OA
ATOM     13  H   UNL     1     -11.480  -1.441  -7.085  0.00  0.00    -0.086 HD
ATOM     14  H   UNL     1     -11.581  -1.982  -8.636  0.00  0.00    -0.086 HD
ENDROOT
BRANCH  11  15
ATOM     15  C   UNL     1      -6.610   1.694 -10.486  0.00  0.00    +0.037 A 
ATOM     16  C   UNL     1      -7.736   1.344 -11.233  0.00  0.00    +0.013 A 
ATOM     17  C   UNL     1      -7.587   0.665 -12.425  0.00  0.00    +0.013 A 
ATOM     18  C   UNL     1      -6.323   0.332 -12.880  0.00  0.00    +0.055 A 
ATOM     19  C   UNL     1      -5.203   0.675 -12.145  0.00  0.00    +0.013 A 
ATOM     20  C   UNL     1      -5.338   1.359 -10.954  0.00  0.00    +0.013 A 
BRANCH  18  21
ATOM     21  C   UNL     1      -6.167  -0.410 -14.183  0.00  0.00    +0.417 C 
ATOM     22  F   UNL     1      -6.048   0.509 -15.231  0.00  0.00    -0.166 F 
ATOM     23  F   UNL     1      -5.020  -1.209 -14.130  0.00  0.00    -0.166 F 
ATOM     24  F   UNL     1      -7.289  -1.219 -14.396  0.00  0.00    -0.166 F 
ENDBRANCH  18  21
ENDBRANCH  11  15
BRANCH   1  26
ATOM     25  N   UNL     1      -8.792   0.979  -4.346  0.00  0.00    -0.315 N 
ATOM     26  C   UNL     1      -8.256   1.496  -5.470  0.00  0.00    +0.218 C 
ATOM     27  O   UNL     1      -7.060   1.427  -5.659  0.00  0.00    -0.275 OA
ATOM     28  H   UNL     1      -9.748   1.034  -4.195  0.00  0.00    +0.149 HD
BRANCH  25  29
ATOM     29  C   UNL     1      -7.929   0.334  -3.353  0.00  0.00    +0.109 C 
BRANCH  29  30
ATOM     30  C   UNL     1      -8.782  -0.163  -2.184  0.00  0.00    +0.056 C 
BRANCH  30  37
ATOM     31  C   UNL     1      -4.939  -1.927   2.447  0.00  0.00    +0.046 C 
ATOM     32  C   UNL     1      -5.675  -0.849   1.694  0.00  0.00    -0.027 A 
ATOM     33  C   UNL     1      -5.560   0.468   2.082  0.00  0.00    +0.005 A 
ATOM     34  C   UNL     1      -6.233   1.469   1.397  0.00  0.00    +0.001 A 
ATOM     35  C   UNL     1      -7.023   1.166   0.323  0.00  0.00    +0.010 A 
ATOM     36  C   UNL     1      -7.154  -0.162  -0.087  0.00  0.00    +0.003 A 
ATOM     37  C   UNL     1      -7.894  -0.827  -1.162  0.00  0.00    -0.021 A 
ATOM     38  C   UNL     1      -7.633  -2.140  -1.065  0.00  0.00    +0.087 A 
ATOM     39  N   UNL     1      -6.786  -2.370  -0.015  0.00  0.00    -0.360 N 
ATOM     40  C   UNL     1      -6.469  -1.180   0.601  0.00  0.00    +0.050 A 
ATOM     41  H   UNL     1      -6.455  -3.242   0.253  0.00  0.00    +0.165 HD
ENDBRANCH  30  37
ENDBRANCH  29  30
ENDBRANCH  25  29
ENDBRANCH   1  26
TORSDOF 6
