REMARK  Name = ZINC17576802
REMARK  10 active torsions:
REMARK  status: ('A' for Active; 'I' for Inactive)
REMARK    1  A    between atoms: C_1  and  N_2
REMARK    2  A    between atoms: N_2  and  C_3
REMARK    3  A    between atoms: N_2  and  C_4
REMARK    4  A    between atoms: C_7  and  C_13
REMARK    5  A    between atoms: C_9  and  N_10
REMARK    6  A    between atoms: N_15  and  N_16
REMARK    7  A    between atoms: C_17  and  C_19
REMARK    8  A    between atoms: C_24  and  N_25
REMARK    9  A    between atoms: N_25  and  S_26
REMARK   10  A    between atoms: S_26  and  C_29
REMARK                            x       y       z     vdW  Elec       q    Type
REMARK                         _______ _______ _______ _____ _____    ______ ____
ROOT
ATOM      1  N   UNL     1       0.982  -0.945  -0.303  0.00  0.00    -0.230 N 
ATOM      2  C   UNL     1      -0.132  -0.194  -0.192  0.00  0.00    +0.262 C 
ATOM      3  O   UNL     1      -1.213  -0.730  -0.035  0.00  0.00    -0.269 OA
ATOM      4  H   UNL     1       1.844  -0.517  -0.428  0.00  0.00    +0.173 HD
ENDROOT
BRANCH   2   5
ATOM      5  C   UNL     1      -0.041   1.276  -0.261  0.00  0.00    +0.060 A 
ATOM      6  C   UNL     1       1.198   1.895  -0.441  0.00  0.00    +0.015 A 
ATOM      7  C   UNL     1       1.276   3.269  -0.504  0.00  0.00    +0.001 A 
ATOM      8  C   UNL     1       0.131   4.042  -0.391  0.00  0.00    +0.002 A 
ATOM      9  C   UNL     1      -1.099   3.445  -0.213  0.00  0.00    +0.025 A 
ATOM     10  C   UNL     1      -1.200   2.061  -0.152  0.00  0.00    +0.060 A 
BRANCH  10  11
ATOM     11  N   UNL     1      -2.438   1.457   0.021  0.00  0.00    -0.215 N 
ATOM     12  H   UNL     1      -2.514   0.649   0.553  0.00  0.00    +0.174 HD
BRANCH  11  13
ATOM     13  S   UNL     1      -3.786   2.116  -0.680  0.00  0.00    +0.079 S 
ATOM     14  O   UNL     1      -4.854   1.211  -0.438  0.00  0.00    -0.149 OA
ATOM     15  O   UNL     1      -3.833   3.476  -0.270  0.00  0.00    -0.149 OA
BRANCH  13  16
ATOM     16  C   UNL     1      -3.517   2.123  -2.421  0.00  0.00    +0.146 A 
ATOM     17  C   UNL     1      -3.818   1.169  -3.335  0.00  0.00    +0.036 A 
ATOM     18  C   UNL     1      -3.512   1.394  -4.664  0.00  0.00    +0.010 A 
ATOM     19  C   UNL     1      -2.920   2.562  -5.014  0.00  0.00    +0.047 A 
ATOM     20  S   UNL     1      -2.783   3.393  -3.440  0.00  0.00    -0.077 S 
ENDBRANCH  13  16
ENDBRANCH  11  13
ENDBRANCH  10  11
ENDBRANCH   2   5
BRANCH   1  23
ATOM     21  C   UNL     1       2.010  -3.091  -0.348  0.00  0.00    +0.260 C 
ATOM     22  O   UNL     1       3.090  -2.556  -0.504  0.00  0.00    -0.269 OA
ATOM     23  N   UNL     1       0.895  -2.341  -0.237  0.00  0.00    -0.230 N 
ATOM     24  H   UNL     1       0.034  -2.768  -0.112  0.00  0.00    +0.173 HD
BRANCH  21  28
ATOM     25  C   UNL     1       1.748  -7.325  -0.149  0.00  0.00    +0.060 A 
ATOM     26  C   UNL     1       0.596  -6.551  -0.035  0.00  0.00    +0.026 A 
ATOM     27  C   UNL     1       0.678  -5.179  -0.093  0.00  0.00    +0.015 A 
ATOM     28  C   UNL     1       1.919  -4.562  -0.279  0.00  0.00    +0.040 A 
ATOM     29  C   UNL     1       3.073  -5.341  -0.393  0.00  0.00    +0.047 A 
ATOM     30  C   UNL     1       2.985  -6.713  -0.328  0.00  0.00    +0.148 A 
BRANCH  25  32
ATOM     31  C   UNL     1       1.098  -9.144   1.202  0.00  0.00    +0.129 C 
ATOM     32  N   UNL     1       1.662  -8.711  -0.084  0.00  0.00    -0.334 N 
ATOM     33  C   UNL     1       0.879  -9.244  -1.207  0.00  0.00    +0.129 C 
ENDBRANCH  25  32
BRANCH  30  34
ATOM     34  N   UNL     1       4.207  -7.539  -0.449  0.00  0.00    +0.058 N 
ATOM     35  O   UNL     1       5.291  -7.005  -0.607  0.00  0.00    -0.126 OA
ATOM     36  O   UNL     1       4.130  -8.754  -0.392  0.00  0.00    -0.126 OA
ENDBRANCH  30  34
ENDBRANCH  21  28
ENDBRANCH   1  23
TORSDOF 8
