REMARK  Name = ZINC20418303
REMARK  8 active torsions:
REMARK  status: ('A' for Active; 'I' for Inactive)
REMARK    1  A    between atoms: C_1  and  C_2
REMARK    2  A    between atoms: C_5  and  S_8
REMARK    3  A    between atoms: S_8  and  C_11
REMARK    4  A    between atoms: C_12  and  N_33
REMARK    5  A    between atoms: C_13  and  C_24
REMARK    6  A    between atoms: C_15  and  N_16
REMARK    7  A    between atoms: N_16  and  C_17
REMARK    8  A    between atoms: C_24  and  C_26
REMARK                            x       y       z     vdW  Elec       q    Type
REMARK                         _______ _______ _______ _____ _____    ______ ____
ROOT
ATOM      1  C   UNL     1      -2.334   0.980   0.238  0.00  0.00    +0.143 A 
ATOM      2  C   UNL     1      -1.255   1.676   0.723  0.00  0.00    +0.070 A 
ATOM      3  C   UNL     1      -1.407   3.047   0.967  0.00  0.00    +0.084 A 
ATOM      4  S   UNL     1      -3.103   3.326   0.485  0.00  0.00    -0.066 S 
ATOM      5  C   UNL     1      -3.516   1.657   0.007  0.00  0.00    +0.098 A 
ENDROOT
BRANCH   1   6
ATOM      6  S   UNL     1      -2.213  -0.748  -0.084  0.00  0.00    +0.029 S 
ATOM      7  O   UNL     1      -3.354  -1.098  -0.857  0.00  0.00    -0.164 OA
ATOM      8  O   UNL     1      -0.886  -0.986  -0.534  0.00  0.00    -0.164 OA
BRANCH   6  13
ATOM      9  C   UNL     1      -2.777  -3.594   5.206  0.00  0.00    +0.044 C 
ATOM     10  C   UNL     1      -2.636  -2.884   3.885  0.00  0.00    -0.050 A 
ATOM     11  C   UNL     1      -3.757  -2.611   3.123  0.00  0.00    +0.005 A 
ATOM     12  C   UNL     1      -3.628  -1.959   1.911  0.00  0.00    +0.027 A 
ATOM     13  C   UNL     1      -2.378  -1.579   1.461  0.00  0.00    +0.094 A 
ATOM     14  C   UNL     1      -1.256  -1.857   2.219  0.00  0.00    +0.027 A 
ATOM     15  C   UNL     1      -1.385  -2.505   3.433  0.00  0.00    +0.005 A 
ENDBRANCH   6  13
ENDBRANCH   1   6
BRANCH   2  16
ATOM     16  N   UNL     1      -0.046   1.036   0.972  0.00  0.00    -0.355 N 
ATOM     17  H   UNL     1       0.809   1.609   1.361  0.00  0.00    +0.142 HD
ATOM     18  H   UNL     1       0.056  -0.042   0.780  0.00  0.00    +0.142 HD
ENDBRANCH   2  16
BRANCH   5  19
ATOM     19  N   UNL     1      -4.716   1.164  -0.473  0.00  0.00    -0.305 N 
ATOM     20  H   UNL     1      -4.782   0.125  -0.828  0.00  0.00    +0.153 HD
BRANCH  19  21
ATOM     21  C   UNL     1      -5.846   1.988  -0.508  0.00  0.00    +0.067 A 
ATOM     22  C   UNL     1      -5.951   3.062   0.365  0.00  0.00    +0.026 A 
ATOM     23  C   UNL     1      -7.068   3.874   0.329  0.00  0.00    +0.002 A 
ATOM     24  C   UNL     1      -8.082   3.619  -0.577  0.00  0.00    +0.003 A 
ATOM     25  C   UNL     1      -7.982   2.550  -1.449  0.00  0.00    +0.040 A 
ATOM     26  C   UNL     1      -6.864   1.736  -1.421  0.00  0.00    +0.144 A 
ATOM     27  F   UNL     1      -6.764   0.696  -2.277  0.00  0.00    -0.204 F 
ENDBRANCH  19  21
ENDBRANCH   5  19
BRANCH   3  28
ATOM     28  C   UNL     1      -0.466   3.966   1.462  0.00  0.00    +0.202 C 
ATOM     29  O   UNL     1       0.614   3.574   1.869  0.00  0.00    -0.286 OA
BRANCH  28  30
ATOM     30  C   UNL     1      -0.786   5.410   1.488  0.00  0.00    +0.023 A 
ATOM     31  C   UNL     1      -1.684   5.946   0.563  0.00  0.00    +0.014 A 
ATOM     32  C   UNL     1      -1.983   7.291   0.595  0.00  0.00    +0.039 A 
ATOM     33  C   UNL     1      -1.385   8.114   1.538  0.00  0.00    +0.123 A 
ATOM     34  C   UNL     1      -0.488   7.589   2.455  0.00  0.00    +0.039 A 
ATOM     35  C   UNL     1      -0.187   6.243   2.435  0.00  0.00    +0.014 A 
ATOM     36  F   UNL     1      -1.677   9.433   1.562  0.00  0.00    -0.205 F 
ENDBRANCH  28  30
ENDBRANCH   3  28
TORSDOF 7
