REMARK  Name = ZINC19756456
REMARK  8 active torsions:
REMARK  status: ('A' for Active; 'I' for Inactive)
REMARK    1  A    between atoms: C_1  and  C_2
REMARK    2  A    between atoms: C_4  and  C_25
REMARK    3  A    between atoms: C_6  and  N_8
REMARK    4  A    between atoms: C_9  and  C_11
REMARK    5  A    between atoms: C_11  and  N_12
REMARK    6  A    between atoms: C_14  and  C_23
REMARK    7  A    between atoms: C_14  and  C_24
REMARK    8  A    between atoms: C_19  and  N_22
REMARK                            x       y       z     vdW  Elec       q    Type
REMARK                         _______ _______ _______ _____ _____    ______ ____
ROOT
ATOM      1  N   UNL     1       0.719   3.630  -0.038  0.00  0.00    -0.314 N 
ATOM      2  C   UNL     1       1.864   4.470   0.331  0.00  0.00    +0.153 C 
ATOM      3  C   UNL     1       1.399   5.931   0.398  0.00  0.00    +0.121 C 
ATOM      4  O   UNL     1       0.423   6.034   1.441  0.00  0.00    -0.483 OA
ATOM      5  C   UNL     1      -0.537   5.067   1.479  0.00  0.00    +0.142 A 
ATOM      6  C   UNL     1      -0.401   3.885   0.761  0.00  0.00    +0.074 A 
ATOM      7  C   UNL     1      -1.400   2.920   0.830  0.00  0.00    +0.049 A 
ATOM      8  C   UNL     1      -2.527   3.139   1.607  0.00  0.00    +0.027 A 
ATOM      9  C   UNL     1      -2.660   4.323   2.320  0.00  0.00    +0.026 A 
ATOM     10  C   UNL     1      -1.667   5.282   2.254  0.00  0.00    +0.049 A 
ATOM     11  C   UNL     1       2.589   6.839   0.711  0.00  0.00    +0.057 C 
ATOM     12  C   UNL     1       0.773   6.336  -0.938  0.00  0.00    +0.057 C 
ENDROOT
BRANCH   8  13
ATOM     13  N   UNL     1      -3.531   2.166   1.674  0.00  0.00    -0.358 N 
ATOM     14  H   UNL     1      -4.425   2.340   2.291  0.00  0.00    +0.142 HD
ATOM     15  H   UNL     1      -3.426   1.228   1.110  0.00  0.00    +0.142 HD
ENDBRANCH   8  13
BRANCH   1  16
ATOM     16  C   UNL     1       1.077   2.206  -0.004  0.00  0.00    +0.201 C 
BRANCH  16  18
ATOM     17  N   UNL     1       1.814   0.551   1.681  0.00  0.00    -0.284 N 
ATOM     18  C   UNL     1       1.369   1.796   1.417  0.00  0.00    +0.235 C 
ATOM     19  O   UNL     1       1.200   2.584   2.323  0.00  0.00    -0.274 OA
ATOM     20  H   UNL     1       1.885  -0.191   0.872  0.00  0.00    +0.155 HD
BRANCH  17  26
ATOM     21  C   UNL     1       2.130  -2.837   5.228  0.00  0.00    +0.044 C 
ATOM     22  C   UNL     1       2.350  -1.433   4.730  0.00  0.00    -0.048 A 
ATOM     23  C   UNL     1       2.920  -0.486   5.561  0.00  0.00    +0.006 A 
ATOM     24  C   UNL     1       3.124   0.804   5.107  0.00  0.00    -0.048 A 
ATOM     25  C   UNL     1       2.758   1.151   3.821  0.00  0.00    +0.026 A 
ATOM     26  C   UNL     1       2.186   0.203   2.984  0.00  0.00    +0.034 A 
ATOM     27  C   UNL     1       1.978  -1.090   3.445  0.00  0.00    +0.026 A 
ATOM     28  C   UNL     1       3.745   1.833   6.017  0.00  0.00    +0.044 C 
ENDBRANCH  17  26
ENDBRANCH  16  18
ENDBRANCH   1  16
TORSDOF 4
