REMARK  Name = ZINC14955920
REMARK  10 active torsions:
REMARK  status: ('A' for Active; 'I' for Inactive)
REMARK    1  A    between atoms: C_1  and  C_2
REMARK    2  A    between atoms: C_2  and  C_3
REMARK    3  A    between atoms: C_2  and  C_4
REMARK    4  A    between atoms: C_4  and  C_5
REMARK    5  A    between atoms: C_5  and  N_64
REMARK    6  A    between atoms: C_11  and  C_13
REMARK    7  A    between atoms: C_13  and  C_14
REMARK    8  A    between atoms: N_16  and  C_17
REMARK    9  A    between atoms: C_17  and  C_18
REMARK   10  A    between atoms: C_18  and  C_24
REMARK                            x       y       z     vdW  Elec       q    Type
REMARK                         _______ _______ _______ _____ _____    ______ ____
ROOT
ATOM      1  C   UNL     1      -1.929   4.094   2.286  0.00  0.00    +0.212 C 
ATOM      2  O   UNL     1      -1.518   5.078   2.863  0.00  0.00    -0.276 OA
ATOM      3  N   UNL     1      -1.197   3.535   1.302  0.00  0.00    -0.315 N 
ATOM      4  H   UNL     1      -1.526   2.748   0.840  0.00  0.00    +0.149 HD
ENDROOT
BRANCH   1   5
ATOM      5  C   UNL     1      -3.259   3.497   2.668  0.00  0.00    +0.089 C 
BRANCH   5  11
ATOM      6  C   UNL     1      -4.271   6.435   4.775  0.00  0.00    -0.059 C 
ATOM      7  C   UNL     1      -3.052   6.424   5.700  0.00  0.00    +0.085 C 
ATOM      8  N   UNL     1      -2.572   5.056   5.878  0.00  0.00    -0.318 N 
ATOM      9  C   UNL     1      -2.899   4.058   5.052  0.00  0.00    +0.200 C 
ATOM     10  O   UNL     1      -2.431   2.958   5.256  0.00  0.00    -0.278 OA
ATOM     11  C   UNL     1      -3.822   4.241   3.880  0.00  0.00    +0.028 C 
ATOM     12  H   UNL     1      -1.990   4.864   6.630  0.00  0.00    +0.149 HD
ATOM     13  N   UNL     1      -3.927   5.676   3.556  0.00  0.00    +0.389 N 
ATOM     14  H   UNL     1      -3.022   6.006   3.199  0.00  0.00    -0.081 HD
BRANCH  13  15
ATOM     15  C   UNL     1      -4.960   5.887   2.517  0.00  0.00    -0.077 C 
BRANCH  15  16
ATOM     16  C   UNL     1      -6.348   5.566   3.077  0.00  0.00    -0.016 C 
BRANCH  16  18
ATOM     17  C   UNL     1      -8.752   5.228   2.487  0.00  0.00    +0.007 C 
ATOM     18  C   UNL     1      -7.386   5.670   1.958  0.00  0.00    -0.019 C 
ATOM     19  C   UNL     1      -7.470   7.119   1.474  0.00  0.00    +0.007 C 
ENDBRANCH  16  18
ENDBRANCH  15  16
ENDBRANCH  13  15
ENDBRANCH   5  11
ENDBRANCH   1   5
BRANCH   3  20
ATOM     20  C   UNL     1       0.096   4.115   0.930  0.00  0.00    +0.115 C 
BRANCH  20  21
ATOM     21  C   UNL     1       0.680   3.344  -0.255  0.00  0.00    +0.015 C 
ATOM     22  C   UNL     1       1.988   4.004  -0.702  0.00  0.00    +0.041 C 
ATOM     23  C   UNL     1       3.008   3.918   0.436  0.00  0.00    +0.160 C 
ATOM     24  O   UNL     1       3.204   2.550   0.799  0.00  0.00    -0.380 OA
ATOM     25  C   UNL     1       2.024   1.897   1.271  0.00  0.00    +0.160 C 
ATOM     26  C   UNL     1       0.965   1.899   0.165  0.00  0.00    +0.041 C 
BRANCH  21  27
ATOM     27  C   UNL     1      -0.305   3.352  -1.396  0.00  0.00    -0.040 A 
ATOM     28  C   UNL     1      -0.760   4.552  -1.908  0.00  0.00    +0.004 A 
ATOM     29  C   UNL     1      -1.662   4.560  -2.955  0.00  0.00    +0.000 A 
ATOM     30  C   UNL     1      -2.110   3.366  -3.490  0.00  0.00    +0.000 A 
ATOM     31  C   UNL     1      -1.654   2.166  -2.979  0.00  0.00    +0.000 A 
ATOM     32  C   UNL     1      -0.751   2.158  -1.932  0.00  0.00    +0.004 A 
ENDBRANCH  21  27
ENDBRANCH  20  21
ENDBRANCH   3  20
TORSDOF 8
