REMARK  Name = ZINC01275539
REMARK  8 active torsions:
REMARK  status: ('A' for Active; 'I' for Inactive)
REMARK    1  A    between atoms: C_1  and  C_2
REMARK    2  A    between atoms: C_5  and  N_9
REMARK    3  A    between atoms: C_10  and  C_12
REMARK    4  A    between atoms: C_12  and  S_13
REMARK    5  A    between atoms: S_13  and  C_14
REMARK    6  A    between atoms: C_17  and  C_25
REMARK    7  A    between atoms: N_18  and  C_19
REMARK    8  A    between atoms: C_19  and  C_20
REMARK                            x       y       z     vdW  Elec       q    Type
REMARK                         _______ _______ _______ _____ _____    ______ ____
ROOT
ATOM      1  C   UNL     1       1.123  -9.201   2.456  0.00  0.00    +0.193 A 
ATOM      2  N   UNL     1       1.029  -9.946   1.376  0.00  0.00    -0.122 NA
ATOM      3  N   UNL     1       1.406 -11.147   1.635  0.00  0.00    -0.128 NA
ATOM      4  C   UNL     1       1.763 -11.243   2.895  0.00  0.00    +0.165 A 
ATOM      5  N   UNL     1       1.597  -9.998   3.457  0.00  0.00    -0.295 N 
ENDROOT
BRANCH   4   6
ATOM      6  C   UNL     1       2.254 -12.457   3.578  0.00  0.00    +0.022 A 
ATOM      7  C   UNL     1       2.328 -12.517   4.975  0.00  0.00    +0.031 A 
ATOM      8  C   UNL     1       2.792 -13.670   5.572  0.00  0.00    +0.111 A 
ATOM      9  N   UNL     1       3.164 -14.707   4.844  0.00  0.00    -0.263 NA
ATOM     10  C   UNL     1       3.111 -14.693   3.526  0.00  0.00    +0.111 A 
ATOM     11  C   UNL     1       2.654 -13.583   2.847  0.00  0.00    +0.031 A 
ENDBRANCH   4   6
BRANCH   1  12
ATOM     12  S   UNL     1       0.719  -7.490   2.585  0.00  0.00    -0.077 S 
BRANCH  12  13
ATOM     13  C   UNL     1       0.156  -7.046   0.919  0.00  0.00    +0.173 C 
BRANCH  13  15
ATOM     14  N   UNL     1      -0.676  -5.033  -0.253  0.00  0.00    -0.283 N 
ATOM     15  C   UNL     1      -0.226  -5.589   0.889  0.00  0.00    +0.228 C 
ATOM     16  O   UNL     1      -0.128  -4.916   1.894  0.00  0.00    -0.275 OA
ATOM     17  H   UNL     1      -0.770  -5.575  -1.052  0.00  0.00    +0.155 HD
BRANCH  14  22
ATOM     18  C   UNL     1      -2.026   0.477  -0.388  0.00  0.00    +0.044 C 
ATOM     19  C   UNL     1      -1.667  -0.986  -0.352  0.00  0.00    -0.048 A 
ATOM     20  C   UNL     1      -0.484  -1.392   0.236  0.00  0.00    +0.020 A 
ATOM     21  C   UNL     1      -0.152  -2.733   0.271  0.00  0.00    +0.040 A 
ATOM     22  C   UNL     1      -1.010  -3.674  -0.286  0.00  0.00    +0.062 A 
ATOM     23  C   UNL     1      -2.198  -3.262  -0.876  0.00  0.00    +0.040 A 
ATOM     24  C   UNL     1      -2.526  -1.920  -0.903  0.00  0.00    +0.020 A 
ATOM     25 BR   UNL     1      -3.369  -4.538  -1.635  0.00  0.00    -0.048 Br
ATOM     26 BR   UNL     1       1.467  -3.287   1.075  0.00  0.00    -0.048 Br
ENDBRANCH  14  22
ENDBRANCH  13  15
ENDBRANCH  12  13
ENDBRANCH   1  12
BRANCH   5  27
ATOM     27  C   UNL     1       1.871  -9.610   4.843  0.00  0.00    +0.200 C 
BRANCH  27  28
ATOM     28  C   UNL     1       0.592  -9.658   5.640  0.00  0.00    +0.125 A 
ATOM     29  C   UNL     1       0.063 -10.754   6.213  0.00  0.00    +0.046 A 
ATOM     30  C   UNL     1      -1.129 -10.346   6.853  0.00  0.00    +0.041 A 
ATOM     31  C   UNL     1      -1.258  -9.025   6.634  0.00  0.00    +0.195 A 
ATOM     32  O   UNL     1      -0.209  -8.613   5.903  0.00  0.00    -0.466 OA
ENDBRANCH  27  28
ENDBRANCH   5  27
TORSDOF 7
