REMARK  Name = ZINC37282138
REMARK  8 active torsions:
REMARK  status: ('A' for Active; 'I' for Inactive)
REMARK    1  A    between atoms: C_1  and  C_2
REMARK    2  A    between atoms: C_5  and  C_8
REMARK    3  A    between atoms: C_12  and  O_26
REMARK    4  A    between atoms: C_19  and  C_21
REMARK    5  A    between atoms: O_26  and  C_27
REMARK    6  A    between atoms: C_27  and  C_28
REMARK    7  A    between atoms: C_30  and  C_33
REMARK    8  A    between atoms: N_35  and  C_36
REMARK                            x       y       z     vdW  Elec       q    Type
REMARK                         _______ _______ _______ _____ _____    ______ ____
ROOT
ATOM      1  C   UNL     1      -0.145  -4.189   0.272  0.00  0.00    +0.137 C 
ATOM      2  C   UNL     1      -1.518  -4.365   0.872  0.00  0.00    -0.016 A 
ATOM      3  C   UNL     1      -2.588  -3.765   0.224  0.00  0.00    +0.051 A 
ATOM      4  C   UNL     1      -3.874  -3.899   0.719  0.00  0.00    +0.122 A 
ATOM      5  C   UNL     1      -4.090  -4.641   1.872  0.00  0.00    +0.046 A 
ATOM      6  C   UNL     1      -3.024  -5.233   2.514  0.00  0.00    +0.007 A 
ATOM      7  C   UNL     1      -1.732  -5.093   2.021  0.00  0.00    -0.040 A 
ATOM      8  C   UNL     1      -0.616  -5.746   2.794  0.00  0.00    +0.054 C 
ATOM      9  C   UNL     1       0.622  -5.924   1.916  0.00  0.00    +0.113 C 
ATOM     10  N   UNL     1       0.872  -4.649   1.224  0.00  0.00    -0.290 N 
ATOM     11  C   UNL     1       1.990  -3.934   1.455  0.00  0.00    +0.219 C 
ATOM     12  O   UNL     1       2.134  -2.848   0.934  0.00  0.00    -0.275 OA
ENDROOT
BRANCH   1  17
ATOM     13  C   UNL     1       0.724   1.397  -0.923  0.00  0.00    +0.044 C 
ATOM     14  C   UNL     1       0.498  -0.059  -0.611  0.00  0.00    -0.050 A 
ATOM     15  C   UNL     1       0.633  -1.008  -1.607  0.00  0.00    +0.004 A 
ATOM     16  C   UNL     1       0.425  -2.345  -1.321  0.00  0.00    +0.006 A 
ATOM     17  C   UNL     1       0.082  -2.732  -0.039  0.00  0.00    -0.023 A 
ATOM     18  C   UNL     1      -0.052  -1.783   0.957  0.00  0.00    +0.006 A 
ATOM     19  C   UNL     1       0.160  -0.447   0.672  0.00  0.00    +0.004 A 
ENDBRANCH   1  17
BRANCH  11  20
ATOM     20  C   UNL     1       3.062  -4.483   2.360  0.00  0.00    +0.075 C 
ATOM     21  C   UNL     1       4.049  -5.368   1.558  0.00  0.00    +0.013 C 
ATOM     22  C   UNL     1       5.330  -5.326   2.427  0.00  0.00    +0.001 C 
ATOM     23  C   UNL     1       5.383  -3.877   2.954  0.00  0.00    +0.001 C 
ATOM     24  C   UNL     1       3.941  -3.341   2.912  0.00  0.00    +0.013 C 
ENDBRANCH  11  20
BRANCH   4  25
ATOM     25  O   UNL     1      -4.918  -3.307   0.082  0.00  0.00    -0.483 OA
BRANCH  25  26
ATOM     26  C   UNL     1      -6.215  -3.490   0.652  0.00  0.00    +0.324 C 
BRANCH  26  27
ATOM     27  C   UNL     1      -7.239  -2.768  -0.185  0.00  0.00    +0.234 A 
ATOM     28  N   UNL     1      -7.889  -3.280  -1.186  0.00  0.00    -0.206 NA
ATOM     29  C   UNL     1      -8.722  -2.330  -1.691  0.00  0.00    +0.164 A 
ATOM     30  C   UNL     1      -8.547  -1.206  -0.943  0.00  0.00    +0.230 A 
ATOM     31  O   UNL     1      -7.627  -1.496  -0.010  0.00  0.00    -0.444 OA
BRANCH  29  32
ATOM     32  C   UNL     1      -9.640  -2.487  -2.833  0.00  0.00    +0.266 C 
ATOM     33  O   UNL     1     -10.336  -1.555  -3.187  0.00  0.00    -0.268 OA
ATOM     34  N   UNL     1      -9.710  -3.665  -3.484  0.00  0.00    -0.307 N 
ATOM     35  H   UNL     1      -9.155  -4.409  -3.202  0.00  0.00    +0.149 HD
BRANCH  34  36
ATOM     36  C   UNL     1     -10.623  -3.822  -4.619  0.00  0.00    +0.073 C 
ATOM     37  C   UNL     1     -11.444  -5.111  -4.692  0.00  0.00    +0.024 C 
ATOM     38  C   UNL     1     -10.280  -4.890  -5.660  0.00  0.00    +0.024 C 
ENDBRANCH  34  36
ENDBRANCH  29  32
ENDBRANCH  26  27
ENDBRANCH  25  26
ENDBRANCH   4  25
TORSDOF 7
