REMARK  Name = ZINC52841153
REMARK  8 active torsions:
REMARK  status: ('A' for Active; 'I' for Inactive)
REMARK    1  A    between atoms: C_1  and  C_2
REMARK    2  A    between atoms: C_2  and  C_3
REMARK    3  A    between atoms: C_2  and  N_4
REMARK    4  A    between atoms: N_4  and  C_5
REMARK    5  A    between atoms: N_4  and  C_9
REMARK    6  A    between atoms: C_5  and  C_6
REMARK    7  A    between atoms: C_12  and  N_16
REMARK    8  A    between atoms: C_14  and  N_15
REMARK                            x       y       z     vdW  Elec       q    Type
REMARK                         _______ _______ _______ _____ _____    ______ ____
ROOT
ATOM      1  C   UNL     1      -2.164  -0.223   1.057  0.00  0.00    +0.051 A 
ATOM      2  C   UNL     1      -2.124  -1.006   2.201  0.00  0.00    +0.027 A 
ATOM      3  C   UNL     1      -2.976  -0.733   3.256  0.00  0.00    +0.034 A 
ATOM      4  C   UNL     1      -3.868   0.320   3.174  0.00  0.00    +0.128 A 
ATOM      5  C   UNL     1      -3.915   1.106   2.038  0.00  0.00    +0.057 A 
ATOM      6  C   UNL     1      -3.061   0.843   0.977  0.00  0.00    +0.048 A 
ENDROOT
BRANCH   6   7
ATOM      7  N   UNL     1      -3.102   1.641  -0.172  0.00  0.00    -0.356 N 
ATOM      8  H   UNL     1      -2.470   1.487  -0.892  0.00  0.00    +0.142 HD
ATOM      9  H   UNL     1      -3.762   2.348  -0.249  0.00  0.00    +0.142 HD
ENDBRANCH   6   7
BRANCH   4  10
ATOM     10  N   UNL     1      -4.777   0.606   4.307  0.00  0.00    +0.056 N 
ATOM     11  O   UNL     1      -4.738  -0.080   5.302  0.00  0.00    -0.126 OA
ATOM     12  O   UNL     1      -5.558   1.526   4.238  0.00  0.00    -0.126 OA
ENDBRANCH   4  10
BRANCH   1  13
ATOM     13  N   UNL     1      -1.303  -0.497  -0.012  0.00  0.00    -0.317 N 
BRANCH  13  15
ATOM     14  C   UNL     1       0.028   1.553   0.059  0.00  0.00    +0.027 C 
ATOM     15  C   UNL     1       0.066   0.025  -0.002  0.00  0.00    +0.068 C 
ATOM     16  C   UNL     1       0.810  -0.516   1.220  0.00  0.00    +0.027 C 
ENDBRANCH  13  15
BRANCH  13  17
ATOM     17  C   UNL     1      -1.770  -1.306  -1.140  0.00  0.00    +0.200 C 
BRANCH  17  18
ATOM     18  C   UNL     1      -1.378  -2.745  -0.923  0.00  0.00    +0.228 C 
ATOM     19  O   UNL     1      -0.859  -3.081   0.120  0.00  0.00    -0.274 OA
ATOM     20  N   UNL     1      -1.605  -3.658  -1.888  0.00  0.00    -0.328 N 
ATOM     21  H   UNL     1      -2.020  -3.390  -2.722  0.00  0.00    +0.145 HD
ATOM     22  H   UNL     1      -1.352  -4.585  -1.748  0.00  0.00    +0.145 HD
ENDBRANCH  17  18
ENDBRANCH  13  17
ENDBRANCH   1  13
TORSDOF 6
