REMARK  Name = ZINC09219221
REMARK  9 active torsions:
REMARK  status: ('A' for Active; 'I' for Inactive)
REMARK    1  A    between atoms: C_1  and  C_2
REMARK    2  A    between atoms: C_6  and  C_9
REMARK    3  A    between atoms: C_10  and  C_11
REMARK    4  A    between atoms: C_10  and  C_12
REMARK    5  A    between atoms: C_10  and  C_13
REMARK    6  A    between atoms: C_10  and  N_56
REMARK    7  A    between atoms: C_13  and  N_14
REMARK    8  A    between atoms: N_14  and  C_15
REMARK    9  A    between atoms: C_26  and  C_29
REMARK                            x       y       z     vdW  Elec       q    Type
REMARK                         _______ _______ _______ _____ _____    ______ ____
ROOT
ATOM      1  C   UNL     1      -2.606   6.827   7.525  0.00  0.00    +0.071 A 
ATOM      2  C   UNL     1      -2.947   6.362   6.237  0.00  0.00    +0.158 A 
ATOM      3  N   UNL     1      -2.149   6.570   5.227  0.00  0.00    -0.168 NA
ATOM      4  N   UNL     1      -0.940   7.254   5.393  0.00  0.00    -0.177 N 
ATOM      5  C   UNL     1      -0.572   7.711   6.606  0.00  0.00    +0.293 A 
ATOM      6  O   UNL     1       0.487   8.303   6.744  0.00  0.00    -0.264 OA
ATOM      7  C   UNL     1      -1.414   7.506   7.708  0.00  0.00    +0.129 A 
ATOM      8 CL   UNL     1      -0.966   8.090   9.280  0.00  0.00    -0.076 Cl
ATOM      9  C   UNL     1      -0.106   7.461   4.293  0.00  0.00    +0.158 A 
ATOM     10  C   UNL     1      -0.484   6.985   3.043  0.00  0.00    +0.049 A 
ATOM     11  C   UNL     1       0.350   7.202   1.959  0.00  0.00    +0.017 A 
ATOM     12  C   UNL     1       1.542   7.881   2.167  0.00  0.00    +0.073 A 
ATOM     13  C   UNL     1       1.855   8.325   3.437  0.00  0.00    +0.125 A 
ATOM     14  N   UNL     1       1.038   8.108   4.450  0.00  0.00    -0.235 NA
ENDROOT
BRANCH  12  15
ATOM     15  C   UNL     1       2.484   8.135   1.018  0.00  0.00    +0.419 C 
ATOM     16  F   UNL     1       3.603   8.836   1.480  0.00  0.00    -0.166 F 
ATOM     17  F   UNL     1       1.831   8.892   0.039  0.00  0.00    -0.166 F 
ATOM     18  F   UNL     1       2.892   6.915   0.470  0.00  0.00    -0.166 F 
ENDBRANCH  12  15
BRANCH   1  19
ATOM     19  N   UNL     1      -3.455   6.606   8.596  0.00  0.00    -0.343 N 
ATOM     20  H   UNL     1      -3.216   6.927   9.479  0.00  0.00    +0.146 HD
BRANCH  19  21
ATOM     21  C   UNL     1      -4.715   5.886   8.395  0.00  0.00    +0.089 C 
BRANCH  21  22
ATOM     22  C   UNL     1      -5.482   5.820   9.717  0.00  0.00    -0.055 C 
ATOM     23  C   UNL     1      -5.895   7.231  10.139  0.00  0.00    -0.008 C 
ATOM     24  C   UNL     1      -6.731   4.954   9.540  0.00  0.00    -0.008 C 
BRANCH  22  32
ATOM     25  C   UNL     1      -5.105   4.490  14.441  0.00  0.00    +0.036 C 
ATOM     26  C   UNL     1      -4.364   4.619  13.108  0.00  0.00    +0.099 C 
ATOM     27  C   UNL     1      -5.315   5.182  12.048  0.00  0.00    -0.046 C 
ATOM     28  C   UNL     1      -4.161   3.893  10.357  0.00  0.00    -0.046 C 
ATOM     29  C   UNL     1      -3.222   3.343  11.434  0.00  0.00    +0.099 C 
ATOM     30  O   UNL     1      -3.903   3.331  12.691  0.00  0.00    -0.378 OA
ATOM     31  C   UNL     1      -1.981   4.233  11.532  0.00  0.00    +0.036 C 
ATOM     32  N   UNL     1      -4.599   5.247  10.756  0.00  0.00    +0.387 N 
ATOM     33  H   UNL     1      -3.774   5.848  10.862  0.00  0.00    -0.081 HD
ENDBRANCH  22  32
ENDBRANCH  21  22
ENDBRANCH  19  21
ENDBRANCH   1  19
TORSDOF 5
