REMARK  Name = ZINC33634146
REMARK  10 active torsions:
REMARK  status: ('A' for Active; 'I' for Inactive)
REMARK    1  A    between atoms: C_1  and  C_2
REMARK    2  A    between atoms: C_2  and  C_3
REMARK    3  A    between atoms: C_6  and  N_9
REMARK    4  A    between atoms: C_14  and  C_32
REMARK    5  A    between atoms: C_17  and  C_22
REMARK    6  A    between atoms: C_17  and  C_29
REMARK    7  A    between atoms: C_22  and  C_23
REMARK    8  A    between atoms: C_35  and  C_38
REMARK    9  A    between atoms: C_38  and  O_40
REMARK   10  A    between atoms: O_40  and  C_41
REMARK                            x       y       z     vdW  Elec       q    Type
REMARK                         _______ _______ _______ _____ _____    ______ ____
ROOT
ATOM      1  N   UNL     1       5.088   5.087   3.526  0.00  0.00    -0.210 N 
ATOM      2  C   UNL     1       5.254   3.998   2.715  0.00  0.00    +0.229 C 
ATOM      3  O   UNL     1       5.142   2.832   3.024  0.00  0.00    -0.275 OA
ATOM      4  C   UNL     1       5.603   4.545   1.367  0.00  0.00    +0.077 C 
ATOM      5  C   UNL     1       5.023   3.963   0.090  0.00  0.00    -0.027 C 
ATOM      6  N   UNL     1       4.672   5.140  -0.761  0.00  0.00    +0.395 N 
ATOM      7  C   UNL     1       4.849   6.378   0.074  0.00  0.00    +0.048 C 
ATOM      8  C   UNL     1       4.723   5.853   1.446  0.00  0.00    +0.086 C 
ATOM      9  C   UNL     1       4.946   6.256   2.820  0.00  0.00    +0.229 C 
ATOM     10  O   UNL     1       5.005   7.389   3.248  0.00  0.00    -0.275 OA
ATOM     11  H   UNL     1       5.337   5.171  -1.636  0.00  0.00    -0.083 HD
ATOM     12  H   UNL     1       3.628   5.052  -1.096  0.00  0.00    -0.083 HD
ENDROOT
BRANCH   1  16
ATOM     13  C   UNL     1       5.021   4.878   7.689  0.00  0.00    -0.048 A 
ATOM     14  C   UNL     1       5.194   3.727   6.943  0.00  0.00    +0.005 A 
ATOM     15  C   UNL     1       5.217   3.793   5.563  0.00  0.00    +0.024 A 
ATOM     16  C   UNL     1       5.066   5.017   4.926  0.00  0.00    +0.044 A 
ATOM     17  C   UNL     1       4.897   6.172   5.677  0.00  0.00    +0.024 A 
ATOM     18  C   UNL     1       4.870   6.099   7.056  0.00  0.00    +0.005 A 
BRANCH  13  20
ATOM     19  C   UNL     1       6.418   4.972   9.735  0.00  0.00    +0.009 C 
ATOM     20  C   UNL     1       4.997   4.803   9.194  0.00  0.00    +0.032 C 
ENDBRANCH  13  20
ENDBRANCH   1  16
BRANCH   5  21
ATOM     21  C   UNL     1       3.789   3.155   0.398  0.00  0.00    -0.061 A 
ATOM     22  C   UNL     1       2.553   3.776   0.445  0.00  0.00    +0.003 A 
ATOM     23  C   UNL     1       1.419   3.043   0.728  0.00  0.00    +0.015 A 
ATOM     24  C   UNL     1       1.520   1.671   0.966  0.00  0.00    +0.059 A 
ATOM     25  C   UNL     1       2.771   1.052   0.923  0.00  0.00    +0.015 A 
ATOM     26  C   UNL     1       3.896   1.796   0.634  0.00  0.00    +0.003 A 
BRANCH  24  27
ATOM     27  C   UNL     1       0.310   0.880   1.269  0.00  0.00    +0.339 C 
ATOM     28  O   UNL     1      -0.776   1.423   1.312  0.00  0.00    -0.245 OA
BRANCH  27  29
ATOM     29  O   UNL     1       0.412  -0.443   1.504  0.00  0.00    -0.464 OA
ATOM     30  C   UNL     1      -0.818  -1.156   1.802  0.00  0.00    +0.280 C 
ENDBRANCH  27  29
ENDBRANCH  24  27
ENDBRANCH   5  21
BRANCH   7  31
ATOM     31  C   UNL     1       3.767   7.386  -0.216  0.00  0.00    +0.346 C 
ATOM     32  O   UNL     1       3.189   7.931   0.695  0.00  0.00    -0.248 OA
ATOM     33  O   UNL     1       3.444   7.677  -1.486  0.00  0.00    -0.248 OA
ENDBRANCH   7  31
BRANCH   7  34
ATOM     34  C   UNL     1       6.234   6.991  -0.149  0.00  0.00    +0.003 C 
BRANCH  34  35
ATOM     35  C   UNL     1       6.394   8.226   0.740  0.00  0.00    -0.012 C 
ATOM     36  C   UNL     1       5.678   9.415   0.096  0.00  0.00    +0.003 C 
ATOM     37  C   UNL     1       5.838  10.649   0.986  0.00  0.00    +0.000 C 
ATOM     38  C   UNL     1       7.324  10.974   1.144  0.00  0.00    +0.000 C 
ATOM     39  C   UNL     1       8.041   9.786   1.788  0.00  0.00    +0.000 C 
ATOM     40  C   UNL     1       7.880   8.551   0.899  0.00  0.00    +0.003 C 
ENDBRANCH  34  35
ENDBRANCH   7  34
TORSDOF 8
