REMARK  Name = ZINC36063046
REMARK  13 active torsions:
REMARK  status: ('A' for Active; 'I' for Inactive)
REMARK    1  A    between atoms: C_1  and  C_2
REMARK    2  A    between atoms: C_2  and  N_3
REMARK    3  A    between atoms: N_3  and  C_4
REMARK    4  A    between atoms: N_3  and  C_6
REMARK    5  A    between atoms: C_4  and  C_5
REMARK    6  A    between atoms: C_6  and  C_8
REMARK    7  A    between atoms: C_6  and  C_28
REMARK    8  A    between atoms: C_8  and  N_9
REMARK    9  A    between atoms: C_10  and  C_12
REMARK   10  A    between atoms: C_12  and  N_13
REMARK   11  A    between atoms: C_16  and  C_20
REMARK   12  A    between atoms: C_16  and  C_21
REMARK   13  A    between atoms: C_24  and  C_27
REMARK                            x       y       z     vdW  Elec       q    Type
REMARK                         _______ _______ _______ _____ _____    ______ ____
ROOT
ATOM      1  N   UNL     1       1.455   0.931  -1.080  0.00  0.00    -0.315 N 
ATOM      2  C   UNL     1       2.411   1.880  -1.109  0.00  0.00    +0.231 C 
ATOM      3  O   UNL     1       3.157   1.961  -2.062  0.00  0.00    -0.274 OA
ATOM      4  H   UNL     1       0.812   0.911  -0.354  0.00  0.00    +0.149 HD
ENDROOT
BRANCH   1   5
ATOM      5  C   UNL     1       1.386  -0.072  -2.147  0.00  0.00    +0.093 C 
BRANCH   5   6
ATOM      6  C   UNL     1       0.147  -0.946  -1.945  0.00  0.00    -0.020 C 
BRANCH   6   7
ATOM      7  C   UNL     1       0.159  -2.074  -2.945  0.00  0.00    -0.059 A 
ATOM      8  C   UNL     1       1.357  -2.511  -3.478  0.00  0.00    +0.002 A 
ATOM      9  C   UNL     1       1.369  -3.545  -4.395  0.00  0.00    +0.000 A 
ATOM     10  C   UNL     1       0.182  -4.142  -4.780  0.00  0.00    +0.000 A 
ATOM     11  C   UNL     1      -1.016  -3.704  -4.246  0.00  0.00    +0.000 A 
ATOM     12  C   UNL     1      -1.027  -2.673  -3.325  0.00  0.00    +0.002 A 
ENDBRANCH   6   7
BRANCH   6  13
ATOM     13  N   UNL     1       0.154  -1.499  -0.584  0.00  0.00    +0.385 N 
ATOM     14  H   UNL     1       0.228  -0.747   0.085  0.00  0.00    -0.081 HD
BRANCH  13  16
ATOM     15  C   UNL     1      -2.275  -1.272  -0.370  0.00  0.00    -0.017 C 
ATOM     16  C   UNL     1      -1.092  -2.242  -0.350  0.00  0.00    -0.081 C 
ENDBRANCH  13  16
BRANCH  13  17
ATOM     17  C   UNL     1       1.300  -2.405  -0.430  0.00  0.00    -0.081 C 
ATOM     18  C   UNL     1       2.519  -1.610   0.041  0.00  0.00    -0.017 C 
ENDBRANCH  13  17
ENDBRANCH   6  13
ENDBRANCH   5   6
ENDBRANCH   1   5
BRANCH   2  19
ATOM     19  C   UNL     1       2.553   2.841   0.043  0.00  0.00    +0.213 C 
BRANCH  19  20
ATOM     20  N   UNL     1       3.574   3.842  -0.279  0.00  0.00    -0.215 N 
ATOM     21  C   UNL     1       4.885   3.702  -0.000  0.00  0.00    +0.251 C 
ATOM     22  O   UNL     1       5.422   2.761   0.543  0.00  0.00    -0.272 OA
ATOM     23  C   UNL     1       5.549   4.966  -0.509  0.00  0.00    +0.135 C 
ATOM     24  N   UNL     1       4.429   5.745  -1.067  0.00  0.00    -0.281 N 
ATOM     25  C   UNL     1       3.320   5.004  -0.891  0.00  0.00    +0.310 C 
ATOM     26  O   UNL     1       2.211   5.354  -1.244  0.00  0.00    -0.252 OA
ATOM     27  C   UNL     1       6.571   4.637  -1.598  0.00  0.00    +0.047 C 
ATOM     28  H   UNL     1       4.482   6.619  -1.483  0.00  0.00    +0.152 HD
BRANCH  23  29
ATOM     29  C   UNL     1       6.202   5.715   0.625  0.00  0.00    -0.015 A 
ATOM     30  C   UNL     1       6.698   5.024   1.714  0.00  0.00    +0.006 A 
ATOM     31  C   UNL     1       7.296   5.710   2.754  0.00  0.00    +0.004 A 
ATOM     32  C   UNL     1       7.400   7.088   2.704  0.00  0.00    -0.050 A 
ATOM     33  C   UNL     1       6.905   7.779   1.613  0.00  0.00    +0.004 A 
ATOM     34  C   UNL     1       6.310   7.092   0.572  0.00  0.00    +0.006 A 
ATOM     35  C   UNL     1       8.052   7.837   3.837  0.00  0.00    +0.044 C 
ENDBRANCH  23  29
ENDBRANCH  19  20
ENDBRANCH   2  19
TORSDOF 9
