REMARK  Name = ZINC09818217
REMARK  7 active torsions:
REMARK  status: ('A' for Active; 'I' for Inactive)
REMARK    1  A    between atoms: C_1  and  C_2
REMARK    2  A    between atoms: C_2  and  C_4
REMARK    3  A    between atoms: C_2  and  O_15
REMARK    4  A    between atoms: N_6  and  C_7
REMARK    5  A    between atoms: O_15  and  C_16
REMARK    6  A    between atoms: C_16  and  C_18
REMARK    7  A    between atoms: C_19  and  C_20
REMARK                            x       y       z     vdW  Elec       q    Type
REMARK                         _______ _______ _______ _____ _____    ______ ____
ROOT
ATOM      1  O   UNL     1      -7.248  -0.162   0.057  0.00  0.00    -0.449 OA
ENDROOT
BRANCH   1   3
ATOM      2  C   UNL     1      -8.863  -1.237   1.499  0.00  0.00    +0.062 C 
ATOM      3  C   UNL     1      -8.439  -0.953   0.057  0.00  0.00    +0.259 C 
BRANCH   3   4
ATOM      4  C   UNL     1      -9.538  -0.205  -0.653  0.00  0.00    +0.258 C 
ATOM      5  O   UNL     1      -9.323   0.896  -1.113  0.00  0.00    -0.271 OA
ATOM      6  N   UNL     1     -10.760  -0.761  -0.776  0.00  0.00    -0.281 N 
ATOM      7  H   UNL     1     -10.910  -1.672  -0.481  0.00  0.00    +0.155 HD
BRANCH   6   8
ATOM      8  C   UNL     1     -11.812  -0.022  -1.332  0.00  0.00    +0.052 A 
ATOM      9  C   UNL     1     -11.789   1.365  -1.283  0.00  0.00    +0.026 A 
ATOM     10  C   UNL     1     -12.828   2.092  -1.831  0.00  0.00    +0.022 A 
ATOM     11  C   UNL     1     -13.891   1.438  -2.430  0.00  0.00    +0.042 A 
ATOM     12  C   UNL     1     -13.917   0.056  -2.481  0.00  0.00    +0.041 A 
ATOM     13  C   UNL     1     -12.878  -0.676  -1.938  0.00  0.00    +0.064 A 
ATOM     14 CL   UNL     1     -12.907  -2.410  -2.007  0.00  0.00    -0.082 Cl
ATOM     15 CL   UNL     1     -15.194   2.355  -3.119  0.00  0.00    -0.083 Cl
ENDBRANCH   6   8
ENDBRANCH   3   4
ENDBRANCH   1   3
BRANCH   1  16
ATOM     16  C   UNL     1      -6.073  -0.825   0.056  0.00  0.00    +0.333 C 
ATOM     17  O   UNL     1      -6.060  -2.041   0.055  0.00  0.00    -0.246 OA
BRANCH  16  18
ATOM     18  C   UNL     1      -4.853  -0.103   0.057  0.00  0.00    +0.092 C 
ATOM     19  C   UNL     1      -3.675  -0.766   0.056  0.00  0.00    +0.015 C 
BRANCH  19  20
ATOM     20  C   UNL     1      -2.411  -0.018   0.057  0.00  0.00    -0.021 A 
ATOM     21  C   UNL     1      -2.422   1.381   0.058  0.00  0.00    +0.012 A 
ATOM     22  C   UNL     1      -1.235   2.078   0.053  0.00  0.00    +0.050 A 
ATOM     23  C   UNL     1      -0.022   1.398   0.055  0.00  0.00    +0.162 A 
ATOM     24  C   UNL     1      -0.003   0.005   0.056  0.00  0.00    +0.163 A 
ATOM     25  C   UNL     1      -1.190  -0.703   0.056  0.00  0.00    +0.057 A 
ATOM     26  O   UNL     1       1.177  -0.675   0.058  0.00  0.00    -0.485 OA
ATOM     27  C   UNL     1       2.345   0.062  -0.320  0.00  0.00    +0.270 C 
ATOM     28  C   UNL     1       2.326   1.404   0.423  0.00  0.00    +0.270 C 
ATOM     29  O   UNL     1       1.138   2.108   0.049  0.00  0.00    -0.485 OA
ENDBRANCH  19  20
ENDBRANCH  16  18
ENDBRANCH   1  16
TORSDOF 6
