REMARK  Name = ZINC36704365
REMARK  10 active torsions:
REMARK  status: ('A' for Active; 'I' for Inactive)
REMARK    1  A    between atoms: C_1  and  N_2
REMARK    2  A    between atoms: N_2  and  C_3
REMARK    3  A    between atoms: N_2  and  C_4
REMARK    4  A    between atoms: C_4  and  C_5
REMARK    5  A    between atoms: C_5  and  C_6
REMARK    6  A    between atoms: C_6  and  N_7
REMARK    7  A    between atoms: C_13  and  N_17
REMARK    8  A    between atoms: C_20  and  C_22
REMARK    9  A    between atoms: N_27  and  S_28
REMARK   10  A    between atoms: S_28  and  C_31
REMARK                            x       y       z     vdW  Elec       q    Type
REMARK                         _______ _______ _______ _____ _____    ______ ____
ROOT
ATOM      1  N   UNL     1      -0.591   0.229   4.719  0.00  0.00    -0.249 N 
ATOM      2  C   UNL     1      -1.617  -0.551   5.225  0.00  0.00    +0.168 A 
ATOM      3  N   UNL     1      -2.507  -1.264   4.575  0.00  0.00    -0.224 NA
ATOM      4  C   UNL     1      -3.461  -1.984   5.204  0.00  0.00    +0.080 A 
ATOM      5  C   UNL     1      -4.472  -2.788   4.627  0.00  0.00    +0.031 A 
ATOM      6  C   UNL     1      -5.369  -3.458   5.416  0.00  0.00    +0.035 A 
ATOM      7  C   UNL     1      -5.321  -3.376   6.800  0.00  0.00    +0.127 A 
ATOM      8  C   UNL     1      -4.345  -2.599   7.399  0.00  0.00    +0.050 A 
ATOM      9  C   UNL     1      -3.442  -1.924   6.616  0.00  0.00    +0.043 A 
ATOM     10  S   UNL     1      -2.061  -0.851   6.930  0.00  0.00    -0.052 S 
ATOM     11  C   UNL     1       0.232   0.888   5.559  0.00  0.00    +0.240 C 
ATOM     12  O   UNL     1       0.132   0.726   6.757  0.00  0.00    -0.273 OA
ENDROOT
BRANCH  11  13
ATOM     13  C   UNL     1       1.278   1.824   5.010  0.00  0.00    +0.166 C 
ATOM     14  C   UNL     1       2.606   1.065   4.804  0.00  0.00    +0.031 C 
ATOM     15  C   UNL     1       3.672   2.109   5.230  0.00  0.00    +0.019 C 
ATOM     16  C   UNL     1       2.948   2.836   6.391  0.00  0.00    +0.110 C 
ATOM     17  N   UNL     1       1.534   2.906   5.971  0.00  0.00    -0.164 NA
BRANCH  17  18
ATOM     18  S   UNL     1       0.421   4.017   6.493  0.00  0.00    +0.068 S 
ATOM     19  O   UNL     1       1.155   5.154   6.927  0.00  0.00    -0.152 OA
ATOM     20  O   UNL     1      -0.578   4.094   5.486  0.00  0.00    -0.152 OA
BRANCH  18  21
ATOM     21  C   UNL     1      -0.355   3.343   7.924  0.00  0.00    +0.143 A 
ATOM     22  C   UNL     1      -0.002   3.469   9.226  0.00  0.00    +0.036 A 
ATOM     23  C   UNL     1      -0.769   2.845  10.192  0.00  0.00    +0.010 A 
ATOM     24  C   UNL     1      -1.853   2.127   9.808  0.00  0.00    +0.047 A 
ATOM     25  S   UNL     1      -1.817   2.323   8.034  0.00  0.00    -0.077 S 
ENDBRANCH  18  21
ENDBRANCH  17  18
ENDBRANCH  11  13
BRANCH   7  26
ATOM     26  N   UNL     1      -6.303  -4.111   7.628  0.00  0.00    +0.056 N 
ATOM     27  O   UNL     1      -7.154  -4.787   7.098  0.00  0.00    -0.126 OA
ATOM     28  O   UNL     1      -6.256  -4.034   8.833  0.00  0.00    -0.126 OA
ENDBRANCH   7  26
BRANCH   1  29
ATOM     29  C   UNL     1      -0.401   0.340   3.271  0.00  0.00    +0.114 C 
BRANCH  29  30
ATOM     30  C   UNL     1      -1.283   1.464   2.724  0.00  0.00    +0.001 C 
BRANCH  30  31
ATOM     31  C   UNL     1      -1.084   1.579   1.212  0.00  0.00    -0.078 C 
BRANCH  31  33
ATOM     32  C   UNL     1      -1.482   3.945   1.238  0.00  0.00    -0.097 C 
ATOM     33  N   UNL     1      -1.931   2.659   0.688  0.00  0.00    +0.376 N 
ATOM     34  C   UNL     1      -1.831   2.692  -0.778  0.00  0.00    -0.097 C 
ATOM     35  H   UNL     1      -2.890   2.495   0.956  0.00  0.00    -0.083 HD
ENDBRANCH  31  33
ENDBRANCH  30  31
ENDBRANCH  29  30
ENDBRANCH   1  29
TORSDOF 8
