REMARK  Name = ZINC06181525
REMARK  7 active torsions:
REMARK  status: ('A' for Active; 'I' for Inactive)
REMARK    1  A    between atoms: C_1  and  C_2
REMARK    2  A    between atoms: C_4  and  C_35
REMARK    3  A    between atoms: C_6  and  N_8
REMARK    4  A    between atoms: N_8  and  S_9
REMARK    5  A    between atoms: S_9  and  C_12
REMARK    6  A    between atoms: C_20  and  C_24
REMARK    7  A    between atoms: N_26  and  C_27
REMARK                            x       y       z     vdW  Elec       q    Type
REMARK                         _______ _______ _______ _____ _____    ______ ____
ROOT
ATOM      1  C   UNL     1      -0.396  -2.874  -1.337  0.00  0.00    +0.109 A 
ATOM      2  C   UNL     1       0.282  -3.933  -1.925  0.00  0.00    +0.031 A 
ATOM      3  C   UNL     1       1.452  -3.720  -2.620  0.00  0.00    +0.028 A 
ATOM      4  C   UNL     1       1.967  -2.431  -2.738  0.00  0.00    +0.050 A 
ATOM      5  C   UNL     1       1.279  -1.361  -2.141  0.00  0.00    +0.048 A 
ATOM      6  C   UNL     1       0.095  -1.592  -1.440  0.00  0.00    +0.042 A 
ATOM      7  C   UNL     1       1.835  -0.002  -2.274  0.00  0.00    +0.202 A 
ATOM      8  O   UNL     1       1.277   0.963  -1.780  0.00  0.00    -0.286 OA
ATOM      9  C   UNL     1       3.087   0.142  -3.032  0.00  0.00    +0.100 A 
ATOM     10  C   UNL     1       3.672  -0.985  -3.571  0.00  0.00    +0.100 A 
ATOM     11  N   UNL     1       3.137  -2.205  -3.430  0.00  0.00    -0.360 N 
ATOM     12  H   UNL     1       3.591  -2.961  -3.833  0.00  0.00    +0.165 HD
ENDROOT
BRANCH   9  13
ATOM     13  C   UNL     1       3.707   1.464  -3.210  0.00  0.00    +0.249 C 
ATOM     14  O   UNL     1       3.183   2.451  -2.729  0.00  0.00    -0.270 OA
ATOM     15  N   UNL     1       4.855   1.583  -3.906  0.00  0.00    -0.308 N 
ATOM     16  H   UNL     1       5.272   0.796  -4.290  0.00  0.00    +0.149 HD
BRANCH  15  17
ATOM     17  C   UNL     1       5.471   2.900  -4.084  0.00  0.00    +0.073 C 
ATOM     18  C   UNL     1       4.840   3.600  -5.289  0.00  0.00    +0.022 C 
ATOM     19  C   UNL     1       5.177   5.092  -5.245  0.00  0.00    +0.002 C 
ATOM     20  C   UNL     1       4.994   5.615  -3.820  0.00  0.00    +0.000 C 
ATOM     21  C   UNL     1       6.356   6.009  -3.243  0.00  0.00    +0.000 C 
ATOM     22  C   UNL     1       7.128   4.747  -2.853  0.00  0.00    +0.000 C 
ATOM     23  C   UNL     1       7.676   4.074  -4.113  0.00  0.00    +0.002 C 
ATOM     24  C   UNL     1       6.973   2.731  -4.322  0.00  0.00    +0.022 C 
ENDBRANCH  15  17
ENDBRANCH   9  13
BRANCH   1  25
ATOM     25  S   UNL     1      -1.891  -3.173  -0.454  0.00  0.00    +0.072 S 
ATOM     26  O   UNL     1      -1.796  -4.491   0.070  0.00  0.00    -0.150 OA
ATOM     27  O   UNL     1      -2.107  -2.038   0.374  0.00  0.00    -0.150 OA
BRANCH  25  28
ATOM     28  N   UNL     1      -3.120  -3.191  -1.563  0.00  0.00    -0.216 N 
ATOM     29  H   UNL     1      -3.640  -3.999  -1.697  0.00  0.00    +0.174 HD
BRANCH  28  35
ATOM     30  C   UNL     1      -5.078   1.310  -1.804  0.00  0.00    +0.044 C 
ATOM     31  C   UNL     1      -4.356   0.154  -2.448  0.00  0.00    -0.048 A 
ATOM     32  C   UNL     1      -3.978   0.230  -3.776  0.00  0.00    +0.006 A 
ATOM     33  C   UNL     1      -3.316  -0.829  -4.371  0.00  0.00    -0.048 A 
ATOM     34  C   UNL     1      -3.030  -1.965  -3.640  0.00  0.00    +0.028 A 
ATOM     35  C   UNL     1      -3.408  -2.044  -2.305  0.00  0.00    +0.049 A 
ATOM     36  C   UNL     1      -4.078  -0.981  -1.712  0.00  0.00    +0.028 A 
ATOM     37  C   UNL     1      -2.906  -0.742  -5.818  0.00  0.00    +0.044 C 
ENDBRANCH  28  35
ENDBRANCH  25  28
ENDBRANCH   1  25
TORSDOF 5
