REMARK  Name = ZINC35862876
REMARK  12 active torsions:
REMARK  status: ('A' for Active; 'I' for Inactive)
REMARK    1  A    between atoms: C_1  and  C_2
REMARK    2  A    between atoms: C_6  and  C_8
REMARK    3  A    between atoms: C_12  and  O_26
REMARK    4  A    between atoms: C_19  and  C_21
REMARK    5  A    between atoms: O_26  and  C_27
REMARK    6  A    between atoms: C_27  and  C_28
REMARK    7  A    between atoms: C_30  and  C_33
REMARK    8  A    between atoms: N_35  and  C_36
REMARK    9  A    between atoms: C_36  and  C_37
REMARK   10  A    between atoms: C_37  and  N_38
REMARK   11  A    between atoms: N_38  and  C_39
REMARK   12  A    between atoms: N_38  and  C_40
REMARK                            x       y       z     vdW  Elec       q    Type
REMARK                         _______ _______ _______ _____ _____    ______ ____
ROOT
ATOM      1  C   UNL     1       0.080  -2.866   2.464  0.00  0.00    +0.137 C 
ATOM      2  C   UNL     1       1.449  -3.445   2.720  0.00  0.00    -0.016 A 
ATOM      3  C   UNL     1       2.545  -2.610   2.552  0.00  0.00    +0.051 A 
ATOM      4  C   UNL     1       3.826  -3.080   2.782  0.00  0.00    +0.122 A 
ATOM      5  C   UNL     1       4.013  -4.395   3.185  0.00  0.00    +0.046 A 
ATOM      6  C   UNL     1       2.922  -5.222   3.346  0.00  0.00    +0.007 A 
ATOM      7  C   UNL     1       1.635  -4.752   3.110  0.00  0.00    -0.040 A 
ATOM      8  C   UNL     1       0.497  -5.723   3.281  0.00  0.00    +0.054 C 
ATOM      9  C   UNL     1      -0.827  -4.983   3.464  0.00  0.00    +0.113 C 
ATOM     10  N   UNL     1      -0.912  -3.946   2.422  0.00  0.00    -0.290 N 
ATOM     11  C   UNL     1      -1.864  -3.988   1.469  0.00  0.00    +0.219 C 
ATOM     12  O   UNL     1      -1.879  -3.152   0.590  0.00  0.00    -0.275 OA
ENDROOT
BRANCH   1  18
ATOM     13  C   UNL     1      -0.733   1.301  -0.185  0.00  0.00    +0.044 C 
ATOM     14  C   UNL     1      -0.307  -0.143  -0.122  0.00  0.00    -0.050 A 
ATOM     15  C   UNL     1       0.086  -0.799  -1.274  0.00  0.00    +0.003 A 
ATOM     16  C   UNL     1       0.476  -2.123  -1.217  0.00  0.00    +0.001 A 
ATOM     17  C   UNL     1       0.474  -2.792  -0.007  0.00  0.00    +0.006 A 
ATOM     18  C   UNL     1       0.082  -2.137   1.145  0.00  0.00    -0.022 A 
ATOM     19  C   UNL     1      -0.304  -0.811   1.088  0.00  0.00    +0.009 A 
ENDBRANCH   1  18
BRANCH  11  20
ATOM     20  C   UNL     1      -2.910  -5.072   1.494  0.00  0.00    +0.075 C 
ATOM     21  C   UNL     1      -2.243  -6.453   1.325  0.00  0.00    +0.013 C 
ATOM     22  C   UNL     1      -3.243  -7.253   0.454  0.00  0.00    +0.001 C 
ATOM     23  C   UNL     1      -3.762  -6.185  -0.540  0.00  0.00    +0.001 C 
ATOM     24  C   UNL     1      -3.875  -4.902   0.308  0.00  0.00    +0.013 C 
ENDBRANCH  11  20
BRANCH   4  25
ATOM     25  O   UNL     1       4.896  -2.258   2.615  0.00  0.00    -0.483 OA
BRANCH  25  26
ATOM     26  C   UNL     1       6.187  -2.814   2.871  0.00  0.00    +0.324 C 
BRANCH  26  27
ATOM     27  C   UNL     1       7.242  -1.763   2.634  0.00  0.00    +0.234 A 
ATOM     28  N   UNL     1       7.700  -0.942   3.531  0.00  0.00    -0.206 NA
ATOM     29  C   UNL     1       8.637  -0.146   2.948  0.00  0.00    +0.164 A 
ATOM     30  C   UNL     1       8.729  -0.525   1.644  0.00  0.00    +0.230 A 
ATOM     31  O   UNL     1       7.859  -1.533   1.467  0.00  0.00    -0.444 OA
BRANCH  29  32
ATOM     32  C   UNL     1       9.408   0.925   3.605  0.00  0.00    +0.265 C 
ATOM     33  O   UNL     1      10.221   1.567   2.968  0.00  0.00    -0.268 OA
ATOM     34  N   UNL     1       9.213   1.191   4.912  0.00  0.00    -0.312 N 
ATOM     35  H   UNL     1       8.564   0.679   5.419  0.00  0.00    +0.149 HD
BRANCH  34  36
ATOM     36  C   UNL     1       9.979   2.256   5.565  0.00  0.00    +0.086 C 
BRANCH  36  37
ATOM     37  C   UNL     1       9.568   2.351   7.035  0.00  0.00    -0.061 C 
BRANCH  37  38
ATOM     38  N   UNL     1      10.336   3.418   7.690  0.00  0.00    +0.377 N 
ATOM     39  C   UNL     1       9.974   4.714   7.101  0.00  0.00    -0.097 C 
ATOM     40  C   UNL     1      10.030   3.431   9.127  0.00  0.00    -0.097 C 
ATOM     41  H   UNL     1      11.323   3.252   7.558  0.00  0.00    -0.083 HD
ENDBRANCH  37  38
ENDBRANCH  36  37
ENDBRANCH  34  36
ENDBRANCH  29  32
ENDBRANCH  26  27
ENDBRANCH  25  26
ENDBRANCH   4  25
TORSDOF 9
