REMARK  Name = ZINC39934445
REMARK  12 active torsions:
REMARK  status: ('A' for Active; 'I' for Inactive)
REMARK    1  A    between atoms: C_1  and  C_2
REMARK    2  A    between atoms: C_3  and  C_37
REMARK    3  A    between atoms: C_4  and  C_36
REMARK    4  A    between atoms: C_7  and  C_8
REMARK    5  A    between atoms: C_8  and  C_10
REMARK    6  A    between atoms: C_10  and  C_12
REMARK    7  A    between atoms: C_10  and  S_13
REMARK    8  A    between atoms: S_13  and  C_14
REMARK    9  A    between atoms: C_18  and  C_27
REMARK   10  A    between atoms: N_19  and  C_20
REMARK   11  A    between atoms: C_20  and  C_21
REMARK   12  A    between atoms: C_37  and  C_39
REMARK                            x       y       z     vdW  Elec       q    Type
REMARK                         _______ _______ _______ _____ _____    ______ ____
ROOT
ATOM      1  C   UNL     1       0.798  -1.500   6.370  0.00  0.00    +0.237 C 
ATOM      2  N   UNL     1       1.728  -2.618   6.141  0.00  0.00    -0.237 N 
ATOM      3  N   UNL     1       0.997  -3.793   6.348  0.00  0.00    -0.169 NA
ATOM      4  C   UNL     1      -0.242  -3.530   6.670  0.00  0.00    +0.147 C 
ATOM      5  N   UNL     1      -0.477  -2.151   6.715  0.00  0.00    -0.283 N 
ATOM      6  H   UNL     1       2.664  -2.553   5.894  0.00  0.00    +0.171 HD
ENDROOT
BRANCH   4   7
ATOM      7  C   UNL     1      -1.214  -4.507   6.938  0.00  0.00    +0.022 C 
ATOM      8  C   UNL     1      -1.027  -5.888   7.004  0.00  0.00    +0.006 A 
ATOM      9  C   UNL     1       0.112  -6.704   6.838  0.00  0.00    +0.010 A 
ATOM     10  C   UNL     1      -0.001  -8.052   6.963  0.00  0.00    +0.001 A 
ATOM     11  C   UNL     1      -1.224  -8.659   7.253  0.00  0.00    +0.002 A 
ATOM     12  C   UNL     1      -2.359  -7.936   7.425  0.00  0.00    +0.026 A 
ATOM     13  C   UNL     1      -2.319  -6.523   7.310  0.00  0.00    +0.043 A 
ATOM     14  N   UNL     1      -3.264  -5.611   7.430  0.00  0.00    -0.380 N 
ATOM     15  C   UNL     1      -2.683  -4.281   7.221  0.00  0.00    +0.152 C 
ATOM     16  H   UNL     1      -4.196  -5.792   7.630  0.00  0.00    +0.160 HD
ENDBRANCH   4   7
BRANCH   1  17
ATOM     17  S   UNL     1       0.616  -0.507   4.863  0.00  0.00    -0.107 S 
BRANCH  17  18
ATOM     18  C   UNL     1       0.274  -1.731   3.569  0.00  0.00    +0.119 C 
ATOM     19  C   UNL     1      -1.156  -2.251   3.724  0.00  0.00    +0.027 C 
BRANCH  18  20
ATOM     20  C   UNL     1       0.431  -1.088   2.215  0.00  0.00    +0.192 C 
ATOM     21  O   UNL     1       0.291   0.112   2.093  0.00  0.00    -0.289 OA
BRANCH  20  28
ATOM     22  C   UNL     1       0.804   0.002  -0.671  0.00  0.00    +0.047 C 
ATOM     23  C   UNL     1       0.913  -1.426  -0.202  0.00  0.00    -0.012 A 
ATOM     24  C   UNL     1       1.217  -2.553  -0.999  0.00  0.00    +0.041 A 
ATOM     25  C   UNL     1       1.214  -3.658  -0.160  0.00  0.00    +0.024 A 
ATOM     26  N   UNL     1       0.926  -3.251   1.083  0.00  0.00    -0.355 N 
ATOM     27  H   UNL     1       0.861  -3.827   1.861  0.00  0.00    +0.166 HD
ATOM     28  C   UNL     1       0.743  -1.883   1.086  0.00  0.00    +0.087 A 
ATOM     29  C   UNL     1       1.488  -5.080  -0.579  0.00  0.00    +0.064 C 
BRANCH  24  30
ATOM     30  C   UNL     1       1.485  -2.554  -2.441  0.00  0.00    +0.162 C 
ATOM     31  O   UNL     1       0.587  -2.779  -3.225  0.00  0.00    -0.292 OA
ATOM     32  C   UNL     1       2.876  -2.276  -2.949  0.00  0.00    +0.091 C 
ENDBRANCH  24  30
ENDBRANCH  20  28
ENDBRANCH  18  20
ENDBRANCH  17  18
ENDBRANCH   1  17
BRANCH   5  33
ATOM     33  C   UNL     1      -1.740  -1.484   7.040  0.00  0.00    +0.140 C 
BRANCH  33  34
ATOM     34  C   UNL     1      -1.846  -1.303   8.556  0.00  0.00    +0.136 C 
ATOM     35  C   UNL     1      -3.192  -0.636   8.910  0.00  0.00    +0.035 C 
ATOM     36  C   UNL     1      -2.788   0.335  10.053  0.00  0.00    +0.031 C 
ATOM     37  C   UNL     1      -1.364   0.745   9.601  0.00  0.00    +0.160 C 
ATOM     38  O   UNL     1      -0.799  -0.441   9.016  0.00  0.00    -0.375 OA
ENDBRANCH  33  34
ENDBRANCH   5  33
TORSDOF 8
