REMARK  Name = ZINC59384387
REMARK  3 active torsions:
REMARK  status: ('A' for Active; 'I' for Inactive)
REMARK    1  A    between atoms: C_4  and  C_7
REMARK    2  A    between atoms: C_7  and  C_9
REMARK    3  A    between atoms: C_7  and  N_18
REMARK                            x       y       z     vdW  Elec       q    Type
REMARK                         _______ _______ _______ _____ _____    ______ ____
ROOT
ATOM      1  C   UNL     1       3.711  -0.707  -0.038  0.00  0.00    +0.168 C 
ENDROOT
BRANCH   1   2
ATOM      2  N   UNL     1       3.630  -1.873   0.845  0.00  0.00    -0.315 N 
ATOM      3  C   UNL     1       3.878  -1.734   2.201  0.00  0.00    +0.126 A 
ATOM      4  C   UNL     1       4.199  -0.486   2.738  0.00  0.00    +0.083 A 
ATOM      5  C   UNL     1       4.438  -0.395   4.097  0.00  0.00    +0.136 A 
ATOM      6  N   UNL     1       4.355  -1.487   4.845  0.00  0.00    -0.203 NA
ATOM      7  C   UNL     1       4.047  -2.658   4.308  0.00  0.00    +0.216 A 
ATOM      8  N   UNL     1       3.807  -2.786   3.011  0.00  0.00    -0.200 NA
ATOM      9  N   UNL     1       3.971  -3.774   5.122  0.00  0.00    -0.327 N 
ATOM     10 CL   UNL     1       4.843   1.133   4.816  0.00  0.00    -0.062 Cl
ATOM     11  H   UNL     1       3.403  -2.743   0.480  0.00  0.00    +0.148 HD
ATOM     12  H   UNL     1       4.141  -3.693   6.073  0.00  0.00    +0.145 HD
ATOM     13  H   UNL     1       3.746  -4.638   4.741  0.00  0.00    +0.145 HD
ENDBRANCH   1   2
BRANCH   1  14
ATOM     14  C   UNL     1       4.014  -1.161  -1.442  0.00  0.00    +0.131 A 
ATOM     15  C   UNL     1       4.854  -0.542  -2.284  0.00  0.00    +0.055 A 
ATOM     16  C   UNL     1       4.840  -1.325  -3.525  0.00  0.00    +0.020 A 
ATOM     17  C   UNL     1       5.484  -1.212  -4.756  0.00  0.00    +0.011 A 
ATOM     18  C   UNL     1       5.244  -2.137  -5.734  0.00  0.00    +0.001 A 
ATOM     19  C   UNL     1       4.365  -3.187  -5.508  0.00  0.00    +0.004 A 
ATOM     20  C   UNL     1       3.720  -3.315  -4.297  0.00  0.00    +0.047 A 
ATOM     21  C   UNL     1       3.950  -2.386  -3.289  0.00  0.00    +0.135 A 
ATOM     22  O   UNL     1       3.486  -2.248  -2.031  0.00  0.00    -0.457 OA
ENDBRANCH   1  14
BRANCH   1  26
ATOM     23  C   UNL     1      -0.017   1.378   0.010  0.00  0.00    +0.000 A 
ATOM     24  C   UNL     1       1.171   2.086   0.002  0.00  0.00    +0.000 A 
ATOM     25  C   UNL     1       2.377   1.411  -0.013  0.00  0.00    +0.006 A 
ATOM     26  C   UNL     1       2.396   0.029  -0.020  0.00  0.00    -0.020 A 
ATOM     27  C   UNL     1       1.208  -0.679  -0.012  0.00  0.00    +0.006 A 
ATOM     28  C   UNL     1       0.002  -0.004   0.002  0.00  0.00    +0.000 A 
ENDBRANCH   1  26
TORSDOF 3
