REMARK  Name = ZINC35219993
REMARK  7 active torsions:
REMARK  status: ('A' for Active; 'I' for Inactive)
REMARK    1  A    between atoms: C_1  and  C_2
REMARK    2  A    between atoms: C_5  and  C_34
REMARK    3  A    between atoms: C_6  and  N_8
REMARK    4  A    between atoms: C_9  and  C_11
REMARK    5  A    between atoms: N_16  and  S_18
REMARK    6  A    between atoms: S_18  and  C_21
REMARK    7  A    between atoms: C_30  and  C_33
REMARK                            x       y       z     vdW  Elec       q    Type
REMARK                         _______ _______ _______ _____ _____    ______ ____
ROOT
ATOM      1  C   UNL     1       0.280  -2.900   4.854  0.00  0.00    +0.091 C 
ATOM      2  C   UNL     1       1.544  -3.762   4.811  0.00  0.00    +0.015 C 
ATOM      3  C   UNL     1       1.660  -4.564   6.109  0.00  0.00    +0.018 C 
ATOM      4  C   UNL     1       1.772  -3.599   7.294  0.00  0.00    +0.109 C 
ATOM      5  N   UNL     1       0.633  -2.672   7.257  0.00  0.00    -0.176 NA
ATOM      6  C   UNL     1       0.376  -1.916   6.024  0.00  0.00    +0.122 C 
ENDROOT
BRANCH   1   8
ATOM      7  N   UNL     1       0.052  -2.797   2.393  0.00  0.00    -0.285 N 
ATOM      8  C   UNL     1       0.150  -2.135   3.562  0.00  0.00    +0.222 C 
ATOM      9  O   UNL     1       0.134  -0.922   3.575  0.00  0.00    -0.275 OA
ATOM     10  H   UNL     1      -0.016  -3.765   2.388  0.00  0.00    +0.155 HD
BRANCH   7  16
ATOM     11  C   UNL     1       1.264   1.227  -0.158  0.00  0.00    +0.044 C 
ATOM     12  C   UNL     1       0.628  -0.137  -0.079  0.00  0.00    -0.049 A 
ATOM     13  C   UNL     1       0.039  -0.690  -1.201  0.00  0.00    +0.004 A 
ATOM     14  C   UNL     1      -0.546  -1.941  -1.133  0.00  0.00    +0.005 A 
ATOM     15  C   UNL     1      -0.543  -2.643   0.057  0.00  0.00    -0.029 A 
ATOM     16  C   UNL     1       0.048  -2.090   1.185  0.00  0.00    +0.037 A 
ATOM     17  C   UNL     1       0.639  -0.835   1.112  0.00  0.00    +0.027 A 
ATOM     18  C   UNL     1      -1.181  -4.006   0.131  0.00  0.00    +0.045 C 
ENDBRANCH   7  16
ENDBRANCH   1   8
BRANCH   5  19
ATOM     19  S   UNL     1      -0.344  -2.482   8.581  0.00  0.00    +0.061 S 
ATOM     20  O   UNL     1      -1.595  -2.013   8.099  0.00  0.00    -0.153 OA
ATOM     21  O   UNL     1      -0.221  -3.671   9.350  0.00  0.00    -0.153 OA
BRANCH  19  22
ATOM     22  C   UNL     1       0.342  -1.182   9.552  0.00  0.00    +0.107 A 
ATOM     23  C   UNL     1       1.276  -1.470  10.530  0.00  0.00    +0.032 A 
ATOM     24  C   UNL     1       1.820  -0.455  11.296  0.00  0.00    +0.049 A 
ATOM     25  C   UNL     1       1.427   0.855  11.083  0.00  0.00    +0.143 A 
ATOM     26  C   UNL     1       0.485   1.146  10.097  0.00  0.00    +0.078 A 
ATOM     27  C   UNL     1      -0.051   0.125   9.330  0.00  0.00    +0.055 A 
ATOM     28  N   UNL     1       0.094   2.477   9.893  0.00  0.00    -0.279 N 
ATOM     29  C   UNL     1       0.848   3.468  10.417  0.00  0.00    +0.258 C 
ATOM     30  O   UNL     1       0.513   4.625  10.280  0.00  0.00    -0.271 OA
ATOM     31  C   UNL     1       2.108   3.129  11.173  0.00  0.00    +0.256 C 
ATOM     32  O   UNL     1       1.952   1.866  11.825  0.00  0.00    -0.478 OA
ATOM     33  C   UNL     1       3.283   3.056  10.197  0.00  0.00    +0.062 C 
ATOM     34  H   UNL     1      -0.705   2.683   9.384  0.00  0.00    +0.155 HD
ENDBRANCH  19  22
ENDBRANCH   5  19
TORSDOF 4
