REMARK  Name = ZINC07713455
REMARK  9 active torsions:
REMARK  status: ('A' for Active; 'I' for Inactive)
REMARK    1  A    between atoms: C_1  and  C_2
REMARK    2  A    between atoms: C_5  and  N_9
REMARK    3  A    between atoms: C_6  and  C_8
REMARK    4  A    between atoms: C_13  and  C_15
REMARK    5  A    between atoms: C_15  and  S_16
REMARK    6  A    between atoms: S_16  and  C_17
REMARK    7  A    between atoms: N_22  and  C_23
REMARK    8  A    between atoms: C_23  and  C_24
REMARK    9  A    between atoms: C_23  and  C_25
REMARK                            x       y       z     vdW  Elec       q    Type
REMARK                         _______ _______ _______ _____ _____    ______ ____
ROOT
ATOM      1  N   UNL     1      -2.380   8.813   0.074  0.00  0.00    -0.269 N 
ATOM      2  C   UNL     1      -1.253   8.074   0.062  0.00  0.00    +0.310 C 
ATOM      3  O   UNL     1      -0.167   8.621   0.047  0.00  0.00    -0.252 OA
ATOM      4  N   UNL     1      -1.329   6.729   0.069  0.00  0.00    -0.239 N 
ATOM      5  C   UNL     1      -0.202   5.989   0.057  0.00  0.00    +0.231 C 
ATOM      6  O   UNL     1       0.880   6.535   0.041  0.00  0.00    -0.274 OA
ATOM      7  H   UNL     1      -3.245   8.380   0.004  0.00  0.00    +0.156 HD
ATOM      8  H   UNL     1      -2.196   6.292   0.081  0.00  0.00    +0.159 HD
ENDROOT
BRANCH   1  13
ATOM      9  C   UNL     1      -2.064  14.459   0.529  0.00  0.00    +0.044 C 
ATOM     10  C   UNL     1      -2.148  12.960   0.408  0.00  0.00    -0.050 A 
ATOM     11  C   UNL     1      -1.122  12.170   0.894  0.00  0.00    +0.005 A 
ATOM     12  C   UNL     1      -1.196  10.795   0.785  0.00  0.00    +0.024 A 
ATOM     13  C   UNL     1      -2.302  10.206   0.186  0.00  0.00    +0.038 A 
ATOM     14  C   UNL     1      -3.328  11.002  -0.305  0.00  0.00    -0.029 A 
ATOM     15  C   UNL     1      -3.251  12.376  -0.188  0.00  0.00    +0.008 A 
ATOM     16  C   UNL     1      -4.527  10.367  -0.960  0.00  0.00    +0.045 C 
ENDBRANCH   1  13
BRANCH   5  17
ATOM     17  C   UNL     1      -0.288   4.485   0.064  0.00  0.00    +0.172 C 
BRANCH  17  18
ATOM     18  S   UNL     1       1.385   3.784   0.045  0.00  0.00    -0.088 S 
BRANCH  18  19
ATOM     19  C   UNL     1       1.118   2.042   0.055  0.00  0.00    +0.160 A 
ATOM     20  N   UNL     1      -0.018   1.371   0.072  0.00  0.00    -0.133 NA
ATOM     21  N   UNL     1       0.001  -0.005   0.077  0.00  0.00    -0.125 NA
ATOM     22  C   UNL     1       1.153  -0.646   0.065  0.00  0.00    +0.183 A 
ATOM     23  S   UNL     1       2.312   0.714   0.046  0.00  0.00    -0.025 S 
ATOM     24  N   UNL     1       1.400  -2.014   0.068  0.00  0.00    -0.320 N 
ATOM     25  H   UNL     1       2.313  -2.342   0.058  0.00  0.00    +0.148 HD
BRANCH  24  26
ATOM     26  C   UNL     1       0.282  -2.960   0.085  0.00  0.00    +0.066 C 
ATOM     27  C   UNL     1      -0.206  -3.199  -1.345  0.00  0.00    +0.027 C 
ATOM     28  C   UNL     1       0.744  -4.285   0.695  0.00  0.00    +0.027 C 
ENDBRANCH  24  26
ENDBRANCH  18  19
ENDBRANCH  17  18
ENDBRANCH   5  17
TORSDOF 5
