REMARK  Name = ZINC35745786
REMARK  16 active torsions:
REMARK  status: ('A' for Active; 'I' for Inactive)
REMARK    1  A    between atoms: C_1  and  C_2
REMARK    2  A    between atoms: C_7  and  C_8
REMARK    3  A    between atoms: C_17  and  C_19
REMARK    4  A    between atoms: C_19  and  N_20
REMARK    5  A    between atoms: N_20  and  C_21
REMARK    6  A    between atoms: N_20  and  C_30
REMARK    7  A    between atoms: C_21  and  C_22
REMARK    8  A    between atoms: C_22  and  C_24
REMARK    9  A    between atoms: C_22  and  O_29
REMARK   10  A    between atoms: C_24  and  O_25
REMARK   11  A    between atoms: O_25  and  C_26
REMARK   12  A    between atoms: C_26  and  C_27
REMARK   13  A    between atoms: C_26  and  C_28
REMARK   14  A    between atoms: C_30  and  C_31
REMARK   15  A    between atoms: C_31  and  C_32
REMARK   16  A    between atoms: C_31  and  C_33
REMARK                            x       y       z     vdW  Elec       q    Type
REMARK                         _______ _______ _______ _____ _____    ______ ____
ROOT
ATOM      1  C   UNL     1      -4.514   9.617   2.448  0.00  0.00    +0.004 A 
ATOM      2  C   UNL     1      -3.773  10.481   3.184  0.00  0.00    +0.056 A 
ATOM      3  S   UNL     1      -3.038   9.438   4.428  0.00  0.00    -0.076 S 
ATOM      4  C   UNL     1      -3.736   7.882   3.937  0.00  0.00    +0.116 A 
ATOM      5  C   UNL     1      -4.526   8.208   2.823  0.00  0.00    +0.080 A 
ATOM      6  C   UNL     1      -5.223   7.115   2.215  0.00  0.00    +0.260 A 
ATOM      7  O   UNL     1      -5.931   7.298   1.240  0.00  0.00    -0.267 OA
ATOM      8  N   UNL     1      -5.084   5.883   2.737  0.00  0.00    -0.312 N 
ATOM      9  H   UNL     1      -5.554   5.138   2.330  0.00  0.00    +0.170 HD
ATOM     10  C   UNL     1      -4.299   5.660   3.822  0.00  0.00    +0.094 A 
ATOM     11  N   UNL     1      -3.644   6.636   4.393  0.00  0.00    -0.229 NA
ENDROOT
BRANCH   1  18
ATOM     12  C   UNL     1      -7.403   9.470   2.518  0.00  0.00    +0.044 C 
ATOM     13  C   UNL     1      -6.694  10.030   1.312  0.00  0.00    -0.043 A 
ATOM     14  C   UNL     1      -7.423  10.484   0.231  0.00  0.00    +0.004 A 
ATOM     15  C   UNL     1      -6.774  10.998  -0.877  0.00  0.00    +0.000 A 
ATOM     16  C   UNL     1      -5.392  11.062  -0.909  0.00  0.00    +0.001 A 
ATOM     17  C   UNL     1      -4.653  10.611   0.166  0.00  0.00    +0.009 A 
ATOM     18  C   UNL     1      -5.302  10.097   1.288  0.00  0.00    -0.014 A 
ENDBRANCH   1  18
BRANCH  10  19
ATOM     19  C   UNL     1      -4.174   4.263   4.372  0.00  0.00    -0.003 C 
BRANCH  19  20
ATOM     20  N   UNL     1      -3.392   4.294   5.615  0.00  0.00    +0.386 N 
ATOM     21  H   UNL     1      -2.515   4.766   5.449  0.00  0.00    -0.081 HD
BRANCH  20  22
ATOM     22  C   UNL     1      -4.146   5.011   6.651  0.00  0.00    -0.044 C 
BRANCH  22  23
ATOM     23  C   UNL     1      -3.262   5.204   7.885  0.00  0.00    +0.124 C 
BRANCH  23  24
ATOM     24  O   UNL     1      -3.038   3.939   8.512  0.00  0.00    -0.391 OA
ATOM     25  H   UNL     1      -3.846   3.497   8.806  0.00  0.00    +0.210 HD
ENDBRANCH  23  24
BRANCH  23  26
ATOM     26  C   UNL     1      -3.959   6.145   8.870  0.00  0.00    +0.189 C 
BRANCH  26  27
ATOM     27  O   UNL     1      -3.085   6.417   9.967  0.00  0.00    -0.375 OA
BRANCH  27  28
ATOM     28  C   UNL     1      -3.642   7.292  10.950  0.00  0.00    +0.112 C 
ATOM     29  C   UNL     1      -4.377   6.467  12.009  0.00  0.00    +0.037 C 
ATOM     30  C   UNL     1      -2.521   8.092  11.615  0.00  0.00    +0.037 C 
ENDBRANCH  27  28
ENDBRANCH  26  27
ENDBRANCH  23  26
ENDBRANCH  22  23
ENDBRANCH  20  22
BRANCH  20  31
ATOM     31  C   UNL     1      -3.130   2.919   6.063  0.00  0.00    -0.075 C 
BRANCH  31  32
ATOM     32  C   UNL     1      -2.298   2.188   5.008  0.00  0.00    -0.034 C 
ATOM     33  C   UNL     1      -0.979   2.932   4.794  0.00  0.00    +0.005 C 
ATOM     34  C   UNL     1      -2.009   0.763   5.484  0.00  0.00    +0.005 C 
ENDBRANCH  31  32
ENDBRANCH  20  31
ENDBRANCH  19  20
ENDBRANCH  10  19
TORSDOF 11
