REMARK  Name = ZINC01336846
REMARK  15 active torsions:
REMARK  status: ('A' for Active; 'I' for Inactive)
REMARK    1  A    between atoms: C_1  and  C_2
REMARK    2  A    between atoms: C_4  and  C_42
REMARK    3  A    between atoms: C_9  and  C_14
REMARK    4  A    between atoms: C_14  and  N_15
REMARK    5  A    between atoms: N_15  and  C_16
REMARK    6  A    between atoms: N_15  and  C_23
REMARK    7  A    between atoms: C_16  and  C_17
REMARK    8  A    between atoms: C_23  and  C_25
REMARK    9  A    between atoms: C_23  and  C_39
REMARK   10  A    between atoms: N_29  and  C_30
REMARK   11  A    between atoms: C_30  and  C_31
REMARK   12  A    between atoms: C_34  and  O_37
REMARK   13  A    between atoms: O_37  and  C_38
REMARK   14  A    between atoms: C_39  and  C_40
REMARK   15  A    between atoms: C_39  and  C_41
REMARK                            x       y       z     vdW  Elec       q    Type
REMARK                         _______ _______ _______ _____ _____    ______ ____
ROOT
ATOM      1  N   UNL     1      -1.186  -5.462   4.502  0.00  0.00    -0.284 NA
ENDROOT
BRANCH   1   2
ATOM      2  C   UNL     1       0.174  -5.048   4.874  0.00  0.00    +0.126 C 
BRANCH   2  11
ATOM      3  C   UNL     1       0.875   2.313   3.909  0.00  0.00    +0.044 C 
ATOM      4  C   UNL     1       1.038   0.901   3.409  0.00  0.00    -0.050 A 
ATOM      5  C   UNL     1       1.575   0.674   2.149  0.00  0.00    +0.008 A 
ATOM      6  C   UNL     1       1.733  -0.609   1.671  0.00  0.00    -0.026 A 
ATOM      7  C   UNL     1       1.350  -1.690   2.459  0.00  0.00    +0.052 A 
ATOM      8  C   UNL     1       0.806  -1.456   3.736  0.00  0.00    -0.001 A 
ATOM      9  C   UNL     1       0.660  -0.145   4.201  0.00  0.00    +0.013 A 
ATOM     10  C   UNL     1       0.406  -2.601   4.556  0.00  0.00    +0.020 A 
ATOM     11  C   UNL     1       0.575  -3.849   4.054  0.00  0.00    +0.031 A 
ATOM     12  C   UNL     1       1.126  -4.029   2.768  0.00  0.00    +0.254 A 
ATOM     13  O   UNL     1       1.270  -5.159   2.336  0.00  0.00    -0.268 OA
ATOM     14  N   UNL     1       1.496  -2.984   2.006  0.00  0.00    -0.322 N 
ATOM     15  H   UNL     1       1.871  -3.143   1.126  0.00  0.00    +0.169 HD
ATOM     16  C   UNL     1       2.317  -0.840   0.301  0.00  0.00    +0.046 C 
ENDBRANCH   2  11
ENDBRANCH   1   2
BRANCH   1  17
ATOM     17  C   UNL     1      -1.184  -6.192   3.227  0.00  0.00    +0.122 C 
BRANCH  17  18
ATOM     18  C   UNL     1      -2.599  -6.330   2.726  0.00  0.00    -0.015 A 
ATOM     19  C   UNL     1      -3.330  -7.476   2.994  0.00  0.00    +0.008 A 
ATOM     20  C   UNL     1      -4.628  -7.559   2.512  0.00  0.00    +0.020 A 
ATOM     21  C   UNL     1      -5.145  -6.503   1.786  0.00  0.00    +0.111 A 
ATOM     22  N   UNL     1      -4.420  -5.428   1.549  0.00  0.00    -0.263 NA
ATOM     23  C   UNL     1      -3.184  -5.312   1.997  0.00  0.00    +0.115 A 
ENDBRANCH  17  18
ENDBRANCH   1  17
BRANCH   1  24
ATOM     24  C   UNL     1      -1.801  -6.265   5.568  0.00  0.00    +0.130 C 
BRANCH  24  25
ATOM     25  C   UNL     1      -2.352  -5.351   6.631  0.00  0.00    +0.169 A 
ATOM     26  N   UNL     1      -1.667  -4.535   7.394  0.00  0.00    -0.112 NA
ATOM     27  N   UNL     1      -2.495  -3.927   8.172  0.00  0.00    -0.023 NA
ATOM     28  N   UNL     1      -3.691  -4.335   7.926  0.00  0.00    -0.044 NA
ATOM     29  N   UNL     1      -3.645  -5.209   6.978  0.00  0.00    -0.223 N 
BRANCH  29  30
ATOM     30  C   UNL     1      -4.786  -5.918   6.392  0.00  0.00    +0.182 C 
BRANCH  30  31
ATOM     31  C   UNL     1      -5.145  -7.096   7.260  0.00  0.00    -0.026 A 
ATOM     32  C   UNL     1      -4.547  -8.323   7.038  0.00  0.00    +0.009 A 
ATOM     33  C   UNL     1      -4.875  -9.406   7.832  0.00  0.00    +0.046 A 
ATOM     34  C   UNL     1      -5.804  -9.260   8.852  0.00  0.00    +0.120 A 
ATOM     35  C   UNL     1      -6.402  -8.028   9.072  0.00  0.00    +0.046 A 
ATOM     36  C   UNL     1      -6.067  -6.948   8.279  0.00  0.00    +0.009 A 
BRANCH  34  37
ATOM     37  O   UNL     1      -6.129 -10.323   9.634  0.00  0.00    -0.495 OA
ATOM     38  C   UNL     1      -7.093 -10.100  10.665  0.00  0.00    +0.277 C 
ENDBRANCH  34  37
ENDBRANCH  30  31
ENDBRANCH  29  30
ENDBRANCH  24  25
BRANCH  24  39
ATOM     39  C   UNL     1      -0.747  -7.187   6.184  0.00  0.00    +0.008 C 
ATOM     40  C   UNL     1      -1.363  -7.954   7.357  0.00  0.00    +0.009 C 
ATOM     41  C   UNL     1      -0.257  -8.180   5.128  0.00  0.00    +0.009 C 
ENDBRANCH  24  39
ENDBRANCH   1  24
TORSDOF 10
