REMARK  Name = ZINC63245197
REMARK  5 active torsions:
REMARK  status: ('A' for Active; 'I' for Inactive)
REMARK    1  A    between atoms: C_4  and  N_7
REMARK    2  A    between atoms: C_9  and  C_21
REMARK    3  A    between atoms: C_10  and  C_12
REMARK    4  A    between atoms: N_22  and  N_23
REMARK    5  A    between atoms: C_24  and  C_26
REMARK                            x       y       z     vdW  Elec       q    Type
REMARK                         _______ _______ _______ _____ _____    ______ ____
ROOT
ATOM      1  N   UNL     1       3.624  -0.618  -0.035  0.00  0.00    -0.249 N 
ATOM      2  C   UNL     1       3.798  -2.079  -0.049  0.00  0.00    +0.166 C 
ATOM      3  C   UNL     1       5.296  -2.290  -0.060  0.00  0.00    +0.017 C 
ATOM      4  C   UNL     1       5.872  -1.042  -0.052  0.00  0.00    +0.093 C 
ATOM      5  N   UNL     1       4.906  -0.057  -0.044  0.00  0.00    -0.260 N 
ATOM      6  H   UNL     1       5.091   0.895  -0.042  0.00  0.00    +0.170 HD
ENDROOT
BRANCH   4   7
ATOM      7  C   UNL     1       7.317  -0.792  -0.058  0.00  0.00    +0.152 A 
ATOM      8  C   UNL     1       7.900   0.433   0.055  0.00  0.00    +0.059 A 
ATOM      9  C   UNL     1       9.343   0.200   0.001  0.00  0.00    +0.021 A 
ATOM     10  C   UNL     1      10.466   1.029   0.062  0.00  0.00    +0.011 A 
ATOM     11  C   UNL     1      11.716   0.484  -0.019  0.00  0.00    +0.001 A 
ATOM     12  C   UNL     1      11.877  -0.887  -0.163  0.00  0.00    +0.004 A 
ATOM     13  C   UNL     1      10.781  -1.723  -0.226  0.00  0.00    +0.047 A 
ATOM     14  C   UNL     1       9.500  -1.191  -0.144  0.00  0.00    +0.136 A 
ATOM     15  O   UNL     1       8.269  -1.740  -0.169  0.00  0.00    -0.454 OA
ENDBRANCH   4   7
BRANCH   1  19
ATOM     16  C   UNL     1       0.011   1.450   0.003  0.00  0.00    +0.000 A 
ATOM     17  C   UNL     1       1.205   2.148  -0.003  0.00  0.00    +0.002 A 
ATOM     18  C   UNL     1       2.405   1.465  -0.016  0.00  0.00    +0.025 A 
ATOM     19  C   UNL     1       2.412   0.076  -0.022  0.00  0.00    +0.048 A 
ATOM     20  C   UNL     1       1.210  -0.622  -0.016  0.00  0.00    +0.025 A 
ATOM     21  C   UNL     1       0.014   0.068  -0.003  0.00  0.00    +0.002 A 
ENDBRANCH   1  19
BRANCH   3  22
ATOM     22  C   UNL     1       5.969  -3.525  -0.074  0.00  0.00    +0.137 C 
ATOM     23  N   UNL     1       5.291  -4.641   0.021  0.00  0.00    -0.188 NA
BRANCH  23  24
ATOM     24  N   UNL     1       5.967  -5.865   0.112  0.00  0.00    -0.203 N 
ATOM     25  C   UNL     1       5.274  -7.004   0.311  0.00  0.00    +0.262 C 
ATOM     26  O   UNL     1       4.055  -6.982   0.320  0.00  0.00    -0.269 OA
ATOM     27  H   UNL     1       6.933  -5.893   0.033  0.00  0.00    +0.178 HD
BRANCH  25  28
ATOM     28  C   UNL     1       5.984  -8.265   0.517  0.00  0.00    +0.044 C 
ATOM     29  C   UNL     1       5.426  -9.512   0.728  0.00  0.00    +0.008 A 
ATOM     30  C   UNL     1       4.088  -9.966   0.811  0.00  0.00    +0.010 A 
ATOM     31  C   UNL     1       3.824 -11.273   1.031  0.00  0.00    +0.001 A 
ATOM     32  C   UNL     1       4.838 -12.229   1.184  0.00  0.00    +0.002 A 
ATOM     33  C   UNL     1       6.148 -11.899   1.121  0.00  0.00    +0.026 A 
ATOM     34  C   UNL     1       6.521 -10.497   0.885  0.00  0.00    +0.043 A 
ATOM     35  N   UNL     1       7.684  -9.910   0.781  0.00  0.00    -0.380 N 
ATOM     36  C   UNL     1       7.481  -8.478   0.538  0.00  0.00    +0.154 C 
ATOM     37  H   UNL     1       8.545 -10.352   0.849  0.00  0.00    +0.160 HD
ENDBRANCH  25  28
ENDBRANCH  23  24
ENDBRANCH   3  22
TORSDOF 5
