REMARK  Name = ZINC63505724
REMARK  6 active torsions:
REMARK  status: ('A' for Active; 'I' for Inactive)
REMARK    1  A    between atoms: C_1  and  C_2
REMARK    2  A    between atoms: C_5  and  C_29
REMARK    3  A    between atoms: C_6  and  N_8
REMARK    4  A    between atoms: C_9  and  C_11
REMARK    5  A    between atoms: C_13  and  S_21
REMARK    6  A    between atoms: S_21  and  C_22
REMARK                            x       y       z     vdW  Elec       q    Type
REMARK                         _______ _______ _______ _____ _____    ______ ____
ROOT
ATOM      1  C   UNL     1       0.296  -2.764   4.594  0.00  0.00    +0.204 C 
ATOM      2  C   UNL     1       1.664  -3.294   4.963  0.00  0.00    +0.030 C 
ATOM      3  C   UNL     1       1.964  -2.732   6.199  0.00  0.00    +0.010 A 
ATOM      4  C   UNL     1       3.086  -2.846   7.050  0.00  0.00    +0.011 A 
ATOM      5  C   UNL     1       3.109  -2.169   8.227  0.00  0.00    +0.001 A 
ATOM      6  C   UNL     1       2.046  -1.356   8.624  0.00  0.00    +0.002 A 
ATOM      7  C   UNL     1       0.939  -1.201   7.856  0.00  0.00    +0.026 A 
ATOM      8  C   UNL     1       0.842  -1.876   6.613  0.00  0.00    +0.044 A 
ATOM      9  N   UNL     1      -0.113  -1.892   5.700  0.00  0.00    -0.369 N 
ATOM     10  H   UNL     1      -0.950  -1.405   5.752  0.00  0.00    +0.161 HD
ENDROOT
BRANCH   1  12
ATOM     11  N   UNL     1       0.379  -2.614   2.126  0.00  0.00    -0.283 N 
ATOM     12  C   UNL     1       0.374  -1.974   3.312  0.00  0.00    +0.245 C 
ATOM     13  O   UNL     1       0.432  -0.763   3.349  0.00  0.00    -0.273 OA
ATOM     14  H   UNL     1       0.259  -3.576   2.093  0.00  0.00    +0.155 HD
BRANCH  11  20
ATOM     15  C   UNL     1       2.094   1.377  -0.177  0.00  0.00    +0.044 C 
ATOM     16  C   UNL     1       1.386   0.047  -0.203  0.00  0.00    -0.049 A 
ATOM     17  C   UNL     1       0.912  -0.459  -1.400  0.00  0.00    +0.004 A 
ATOM     18  C   UNL     1       0.262  -1.679  -1.428  0.00  0.00    +0.005 A 
ATOM     19  C   UNL     1       0.084  -2.396  -0.261  0.00  0.00    -0.029 A 
ATOM     20  C   UNL     1       0.558  -1.890   0.942  0.00  0.00    +0.037 A 
ATOM     21  C   UNL     1       1.215  -0.667   0.966  0.00  0.00    +0.027 A 
ATOM     22  C   UNL     1      -0.625  -3.725  -0.293  0.00  0.00    +0.045 C 
ENDBRANCH  11  20
ENDBRANCH   1  12
BRANCH   2  23
ATOM     23  S   UNL     1       2.609  -4.332   4.076  0.00  0.00    -0.091 S 
BRANCH  23  24
ATOM     24  C   UNL     1       1.630  -5.791   3.942  0.00  0.00    +0.013 A 
ATOM     25  C   UNL     1       0.457  -5.912   4.676  0.00  0.00    +0.016 A 
ATOM     26  C   UNL     1      -0.308  -7.056   4.569  0.00  0.00    +0.021 A 
ATOM     27  C   UNL     1       0.093  -8.082   3.731  0.00  0.00    +0.041 A 
ATOM     28  C   UNL     1       1.261  -7.965   2.998  0.00  0.00    +0.021 A 
ATOM     29  C   UNL     1       2.027  -6.820   3.097  0.00  0.00    +0.016 A 
ATOM     30 CL   UNL     1      -0.871  -9.520   3.600  0.00  0.00    -0.084 Cl
ENDBRANCH  23  24
ENDBRANCH   2  23
TORSDOF 4
