REMARK  Name = ZINC20114534
REMARK  6 active torsions:
REMARK  status: ('A' for Active; 'I' for Inactive)
REMARK    1  A    between atoms: C_1  and  C_2
REMARK    2  A    between atoms: C_5  and  N_8
REMARK    3  A    between atoms: C_22  and  S_23
REMARK    4  A    between atoms: S_23  and  C_24
REMARK    5  A    between atoms: C_24  and  C_25
REMARK    6  A    between atoms: C_31  and  C_33
REMARK                            x       y       z     vdW  Elec       q    Type
REMARK                         _______ _______ _______ _____ _____    ______ ____
ROOT
ATOM      1  N   UNL     1      -1.479  -7.918  -0.028  0.00  0.00    -0.254 N 
ATOM      2  C   UNL     1      -1.060  -9.108   0.453  0.00  0.00    +0.283 A 
ATOM      3  O   UNL     1      -1.858  -9.914   0.903  0.00  0.00    -0.265 OA
ATOM      4  C   UNL     1       0.320  -9.399   0.426  0.00  0.00    +0.132 A 
ATOM      5  C   UNL     1       1.191  -8.445  -0.097  0.00  0.00    +0.104 A 
ATOM      6  C   UNL     1       2.542  -9.014   0.004  0.00  0.00    +0.026 A 
ATOM      7  C   UNL     1       3.810  -8.548  -0.347  0.00  0.00    +0.012 A 
ATOM      8  C   UNL     1       4.909  -9.330  -0.124  0.00  0.00    +0.001 A 
ATOM      9  C   UNL     1       4.773 -10.586   0.450  0.00  0.00    +0.002 A 
ATOM     10  C   UNL     1       3.532 -11.065   0.804  0.00  0.00    +0.026 A 
ATOM     11  C   UNL     1       2.398 -10.285   0.585  0.00  0.00    +0.049 A 
ATOM     12  N   UNL     1       1.059 -10.499   0.832  0.00  0.00    -0.349 N 
ATOM     13  H   UNL     1       0.553 -11.369   1.276  0.00  0.00    +0.166 HD
ATOM     14  N   UNL     1       0.708  -7.283  -0.565  0.00  0.00    -0.221 NA
ATOM     15  C   UNL     1      -0.580  -7.021  -0.530  0.00  0.00    +0.177 A 
ENDROOT
BRANCH   1  20
ATOM     16  C   UNL     1      -7.008  -6.639   0.031  0.00  0.00    +0.044 C 
ATOM     17  C   UNL     1      -5.540  -6.979   0.015  0.00  0.00    -0.050 A 
ATOM     18  C   UNL     1      -4.743  -6.647   1.096  0.00  0.00    +0.005 A 
ATOM     19  C   UNL     1      -3.397  -6.957   1.085  0.00  0.00    +0.026 A 
ATOM     20  C   UNL     1      -2.844  -7.603  -0.013  0.00  0.00    +0.052 A 
ATOM     21  C   UNL     1      -3.645  -7.929  -1.099  0.00  0.00    +0.026 A 
ATOM     22  C   UNL     1      -4.992  -7.621  -1.080  0.00  0.00    +0.005 A 
ENDBRANCH   1  20
BRANCH  15  23
ATOM     23  S   UNL     1      -1.160  -5.477  -1.151  0.00  0.00    -0.078 S 
BRANCH  23  24
ATOM     24  C   UNL     1       0.409  -4.733  -1.660  0.00  0.00    +0.173 C 
BRANCH  24  25
ATOM     25  C   UNL     1       0.152  -3.366  -2.240  0.00  0.00    +0.229 C 
ATOM     26  O   UNL     1      -0.980  -2.937  -2.303  0.00  0.00    -0.275 OA
ATOM     27  N   UNL     1       1.181  -2.620  -2.689  0.00  0.00    -0.263 N 
ATOM     28  C   UNL     1       0.944  -1.359  -3.224  0.00  0.00    +0.188 A 
ATOM     29  N   UNL     1      -0.198  -0.712  -3.382  0.00  0.00    -0.126 NA
ATOM     30  N   UNL     1      -0.245   0.443  -3.891  0.00  0.00    -0.145 NA
ATOM     31  C   UNL     1       0.856   1.049  -4.286  0.00  0.00    +0.101 A 
ATOM     32  S   UNL     1       2.069  -0.199  -3.869  0.00  0.00    -0.036 S 
ATOM     33  C   UNL     1       1.042   2.406  -4.913  0.00  0.00    +0.075 C 
ATOM     34  H   UNL     1       2.209  -3.009  -2.632  0.00  0.00    +0.157 HD
ENDBRANCH  24  25
ENDBRANCH  23  24
ENDBRANCH  15  23
TORSDOF 4
