REMARK  Name = ZINC14655559
REMARK  8 active torsions:
REMARK  status: ('A' for Active; 'I' for Inactive)
REMARK    1  A    between atoms: C_1  and  C_2
REMARK    2  A    between atoms: C_2  and  O_3
REMARK    3  A    between atoms: O_3  and  C_4
REMARK    4  A    between atoms: C_9  and  C_10
REMARK    5  A    between atoms: N_12  and  C_13
REMARK    6  A    between atoms: C_13  and  N_15
REMARK    7  A    between atoms: N_15  and  C_16
REMARK    8  A    between atoms: C_21  and  N_22
REMARK                            x       y       z     vdW  Elec       q    Type
REMARK                         _______ _______ _______ _____ _____    ______ ____
ROOT
ATOM      1  C   UNL     1       2.062   4.226  -0.006  0.00  0.00    +0.253 C 
ATOM      2  O   UNL     1       3.034   3.617  -0.406  0.00  0.00    -0.270 OA
ATOM      3  N   UNL     1       2.154   5.545   0.258  0.00  0.00    -0.263 N 
ATOM      4  H   UNL     1       1.378   6.031   0.577  0.00  0.00    +0.157 HD
ENDROOT
BRANCH   1  10
ATOM      5  C   UNL     1       0.680   2.152  -0.081  0.00  0.00    +0.133 A 
ATOM      6  C   UNL     1      -0.530   1.500   0.107  0.00  0.00    +0.047 A 
ATOM      7  C   UNL     1      -1.631   2.201   0.557  0.00  0.00    +0.019 A 
ATOM      8  C   UNL     1      -1.535   3.556   0.833  0.00  0.00    +0.019 A 
ATOM      9  C   UNL     1      -0.340   4.220   0.651  0.00  0.00    +0.032 A 
ATOM     10  C   UNL     1       0.781   3.523   0.192  0.00  0.00    +0.080 A 
ATOM     11 BR   UNL     1      -3.051   4.500   1.455  0.00  0.00    -0.050 Br
BRANCH   5  12
ATOM     12  O   UNL     1       1.761   1.465  -0.528  0.00  0.00    -0.491 OA
BRANCH  12  14
ATOM     13  C   UNL     1       2.902  -0.529  -1.279  0.00  0.00    +0.048 C 
ATOM     14  C   UNL     1       1.583   0.071  -0.786  0.00  0.00    +0.226 C 
ENDBRANCH  12  14
ENDBRANCH   5  12
ENDBRANCH   1  10
BRANCH   3  15
ATOM     15  C   UNL     1       3.325   6.188   0.077  0.00  0.00    +0.141 C 
ATOM     16  S   UNL     1       4.694   5.330  -0.487  0.00  0.00    -0.018 S 
BRANCH  15  17
ATOM     17  N   UNL     1       3.417   7.506   0.341  0.00  0.00    -0.295 N 
ATOM     18  H   UNL     1       2.623   8.010   0.579  0.00  0.00    +0.154 HD
BRANCH  17  19
ATOM     19  C   UNL     1       4.658   8.149   0.270  0.00  0.00    +0.063 A 
ATOM     20  C   UNL     1       5.774   7.572   0.862  0.00  0.00    +0.027 A 
ATOM     21  C   UNL     1       6.998   8.208   0.791  0.00  0.00    +0.022 A 
ATOM     22  C   UNL     1       7.113   9.419   0.129  0.00  0.00    +0.043 A 
ATOM     23  C   UNL     1       6.002   9.995  -0.461  0.00  0.00    +0.054 A 
ATOM     24  C   UNL     1       4.777   9.361  -0.397  0.00  0.00    +0.149 A 
ATOM     25 CL   UNL     1       8.653  10.215   0.041  0.00  0.00    -0.083 Cl
BRANCH  24  26
ATOM     26  N   UNL     1       3.590   9.975  -1.034  0.00  0.00    +0.058 N 
ATOM     27  O   UNL     1       3.678  11.073  -1.554  0.00  0.00    -0.126 OA
ATOM     28  O   UNL     1       2.526   9.383  -1.038  0.00  0.00    -0.126 OA
ENDBRANCH  24  26
ENDBRANCH  17  19
ENDBRANCH  15  17
ENDBRANCH   3  15
TORSDOF 7
