REMARK  Name = ZINC40173487
REMARK  10 active torsions:
REMARK  status: ('A' for Active; 'I' for Inactive)
REMARK    1  A    between atoms: C_1  and  C_2
REMARK    2  A    between atoms: C_5  and  C_8
REMARK    3  A    between atoms: C_11  and  N_16
REMARK    4  A    between atoms: C_12  and  C_13
REMARK    5  A    between atoms: C_17  and  C_19
REMARK    6  A    between atoms: C_19  and  C_21
REMARK    7  A    between atoms: C_19  and  N_22
REMARK    8  A    between atoms: C_26  and  S_27
REMARK    9  A    between atoms: S_27  and  C_28
REMARK   10  A    between atoms: C_28  and  C_29
REMARK                            x       y       z     vdW  Elec       q    Type
REMARK                         _______ _______ _______ _____ _____    ______ ____
ROOT
ATOM      1  N   UNL     1       1.705  -7.348   1.309  0.00  0.00    -0.278 N 
ATOM      2  C   UNL     1       1.481  -8.661   1.100  0.00  0.00    +0.240 C 
ATOM      3  O   UNL     1       0.595  -9.013   0.350  0.00  0.00    -0.273 OA
ATOM      4  H   UNL     1       2.413  -7.067   1.909  0.00  0.00    +0.155 HD
ENDROOT
BRANCH   1   8
ATOM      5  C   UNL     1       0.059  -4.255  -0.021  0.00  0.00    +0.003 A 
ATOM      6  C   UNL     1      -0.811  -4.988  -0.763  0.00  0.00    +0.056 A 
ATOM      7  S   UNL     1      -0.344  -6.666  -0.400  0.00  0.00    -0.081 S 
ATOM      8  C   UNL     1       0.922  -6.401   0.667  0.00  0.00    +0.085 A 
ATOM      9  C   UNL     1       1.014  -5.022   0.759  0.00  0.00    +0.073 A 
BRANCH   5  14
ATOM     10  C   UNL     1      -0.018   1.503   0.010  0.00  0.00    +0.044 C 
ATOM     11  C   UNL     1       0.002  -0.004   0.002  0.00  0.00    -0.050 A 
ATOM     12  C   UNL     1       0.006  -0.686  -1.201  0.00  0.00    +0.004 A 
ATOM     13  C   UNL     1       0.024  -2.066  -1.215  0.00  0.00    +0.009 A 
ATOM     14  C   UNL     1       0.040  -2.772  -0.013  0.00  0.00    -0.017 A 
ATOM     15  C   UNL     1       0.036  -2.079   1.196  0.00  0.00    +0.009 A 
ATOM     16  C   UNL     1       0.023  -0.699   1.198  0.00  0.00    +0.004 A 
ENDBRANCH   5  14
BRANCH   9  17
ATOM     17  C   UNL     1       2.018  -4.371   1.603  0.00  0.00    +0.244 C 
ATOM     18  O   UNL     1       1.762  -4.114   2.765  0.00  0.00    -0.270 OA
ATOM     19  N   UNL     1       3.226  -4.058   1.093  0.00  0.00    -0.325 N 
ATOM     20  H   UNL     1       3.430  -4.263   0.168  0.00  0.00    +0.145 HD
ATOM     21  H   UNL     1       3.891  -3.627   1.653  0.00  0.00    +0.145 HD
ENDBRANCH   9  17
ENDBRANCH   1   8
BRANCH   2  22
ATOM     22  C   UNL     1       2.331  -9.691   1.797  0.00  0.00    +0.175 C 
ATOM     23  C   UNL     1       2.189  -9.529   3.312  0.00  0.00    +0.041 C 
BRANCH  22  24
ATOM     24  N   UNL     1       1.892 -11.033   1.407  0.00  0.00    -0.279 N 
ATOM     25  C   UNL     1       0.644 -11.556   1.597  0.00  0.00    +0.216 A 
ATOM     26  N   UNL     1       0.639 -12.775   1.116  0.00  0.00    -0.113 NA
ATOM     27  N   UNL     1       1.915 -13.044   0.603  0.00  0.00    -0.121 NA
ATOM     28  C   UNL     1       2.656 -11.979   0.783  0.00  0.00    +0.194 A 
ATOM     29  N   UNL     1      -0.429 -10.910   2.195  0.00  0.00    -0.328 N 
ATOM     30  H   UNL     1      -0.328 -10.003   2.523  0.00  0.00    +0.145 HD
ATOM     31  H   UNL     1      -1.281 -11.366   2.286  0.00  0.00    +0.145 HD
BRANCH  28  32
ATOM     32  S   UNL     1       4.343 -11.798   0.307  0.00  0.00    -0.071 S 
BRANCH  32  33
ATOM     33  C   UNL     1       4.756 -13.390  -0.459  0.00  0.00    +0.195 C 
BRANCH  33  34
ATOM     34  C   UNL     1       6.158 -13.371  -0.906  0.00  0.00    +0.074 C 
ATOM     35  N   UNL     1       7.240 -13.356  -1.251  0.00  0.00    -0.196 NA
ENDBRANCH  33  34
ENDBRANCH  32  33
ENDBRANCH  28  32
ENDBRANCH  22  24
ENDBRANCH   2  22
TORSDOF 8
