REMARK  Name = ZINC01418921
REMARK  8 active torsions:
REMARK  status: ('A' for Active; 'I' for Inactive)
REMARK    1  A    between atoms: N_9  and  C_10
REMARK    2  A    between atoms: C_10  and  C_11
REMARK    3  A    between atoms: N_13  and  C_14
REMARK    4  A    between atoms: N_13  and  C_22
REMARK    5  A    between atoms: C_14  and  C_15
REMARK    6  A    between atoms: C_22  and  C_24
REMARK    7  A    between atoms: C_22  and  C_31
REMARK    8  A    between atoms: N_33  and  C_34
REMARK                            x       y       z     vdW  Elec       q    Type
REMARK                         _______ _______ _______ _____ _____    ______ ____
ROOT
ATOM      1  C   UNL     1       4.159  -3.311   0.937  0.00  0.00    +0.238 C 
ATOM      2  O   UNL     1       4.333  -3.149   2.126  0.00  0.00    -0.274 OA
ATOM      3  N   UNL     1       3.868  -2.258   0.148  0.00  0.00    -0.284 N 
ENDROOT
BRANCH   1   4
ATOM      4  C   UNL     1       4.270  -4.691   0.341  0.00  0.00    +0.241 C 
BRANCH   4  13
ATOM      5  C   UNL     1       1.681  -7.918   3.600  0.00  0.00    +0.002 A 
ATOM      6  C   UNL     1       1.124  -7.076   2.646  0.00  0.00    +0.002 A 
ATOM      7  C   UNL     1       1.921  -6.287   1.864  0.00  0.00    +0.029 A 
ATOM      8  C   UNL     1       3.302  -6.328   2.023  0.00  0.00    +0.090 A 
ATOM      9  C   UNL     1       3.872  -7.178   2.987  0.00  0.00    +0.113 A 
ATOM     10  C   UNL     1       3.032  -7.976   3.776  0.00  0.00    +0.032 A 
ATOM     11  N   UNL     1       5.210  -7.022   2.931  0.00  0.00    -0.129 NA
ATOM     12  N   UNL     1       5.522  -6.164   2.025  0.00  0.00    -0.064 NA
ATOM     13  N   UNL     1       4.353  -5.682   1.417  0.00  0.00    -0.235 N 
ENDBRANCH   4  13
ENDBRANCH   1   4
BRANCH   3  14
ATOM     14  C   UNL     1       3.574  -2.465  -1.272  0.00  0.00    +0.143 C 
BRANCH  14  15
ATOM     15  C   UNL     1       4.863  -2.506  -2.051  0.00  0.00    -0.030 A 
ATOM     16  C   UNL     1       5.362  -1.349  -2.621  0.00  0.00    +0.008 A 
ATOM     17  C   UNL     1       6.547  -1.384  -3.332  0.00  0.00    +0.038 A 
ATOM     18  C   UNL     1       7.229  -2.580  -3.481  0.00  0.00    +0.123 A 
ATOM     19  C   UNL     1       6.726  -3.738  -2.913  0.00  0.00    +0.038 A 
ATOM     20  C   UNL     1       5.544  -3.700  -2.199  0.00  0.00    +0.008 A 
ATOM     21  F   UNL     1       8.385  -2.616  -4.179  0.00  0.00    -0.205 F 
ENDBRANCH  14  15
ENDBRANCH   3  14
BRANCH   3  22
ATOM     22  C   UNL     1       3.845  -0.905   0.712  0.00  0.00    +0.166 C 
BRANCH  22  23
ATOM     23  C   UNL     1       4.967  -0.074   0.088  0.00  0.00    +0.023 C 
ATOM     24  C   UNL     1       6.324  -0.701   0.430  0.00  0.00    +0.010 C 
ATOM     25  C   UNL     1       7.411   0.043  -0.350  0.00  0.00    +0.027 C 
ATOM     26  C   UNL     1       7.253   1.524  -0.172  0.00  0.00    -0.031 C 
ATOM     27  C   UNL     1       6.174   2.091   0.262  0.00  0.00    -0.031 C 
ATOM     28  C   UNL     1       4.929   1.348   0.653  0.00  0.00    +0.032 C 
ENDBRANCH  22  23
BRANCH  22  29
ATOM     29  C   UNL     1       2.516  -0.260   0.413  0.00  0.00    +0.238 C 
ATOM     30  O   UNL     1       1.779  -0.745  -0.419  0.00  0.00    -0.273 OA
ATOM     31  N   UNL     1       2.146   0.857   1.071  0.00  0.00    -0.284 N 
ATOM     32  H   UNL     1       2.765   1.288   1.681  0.00  0.00    +0.155 HD
BRANCH  31  33
ATOM     33  C   UNL     1       0.868   1.395   0.874  0.00  0.00    +0.037 A 
ATOM     34  C   UNL     1       0.198   1.997   1.931  0.00  0.00    +0.027 A 
ATOM     35  C   UNL     1      -1.065   2.525   1.739  0.00  0.00    +0.051 A 
ATOM     36  C   UNL     1      -1.661   2.464   0.490  0.00  0.00    +0.166 A 
ATOM     37  C   UNL     1      -0.992   1.861  -0.571  0.00  0.00    +0.168 A 
ATOM     38  C   UNL     1       0.272   1.328  -0.377  0.00  0.00    +0.072 A 
ATOM     39  O   UNL     1      -1.785   1.924  -1.680  0.00  0.00    -0.453 OA
ATOM     40  C   UNL     1      -3.109   2.205  -1.190  0.00  0.00    +0.466 C 
ATOM     41  O   UNL     1      -2.875   2.906   0.046  0.00  0.00    -0.453 OA
ENDBRANCH  31  33
ENDBRANCH  22  29
ENDBRANCH   3  22
TORSDOF 8
