REMARK  Name = ZINC08873324
REMARK  5 active torsions:
REMARK  status: ('A' for Active; 'I' for Inactive)
REMARK    1  A    between atoms: C_4  and  C_7
REMARK    2  A    between atoms: C_10  and  C_20
REMARK    3  A    between atoms: N_13  and  C_14
REMARK    4  A    between atoms: N_25  and  C_28
REMARK    5  A    between atoms: C_31  and  C_33
REMARK                            x       y       z     vdW  Elec       q    Type
REMARK                         _______ _______ _______ _____ _____    ______ ____
ROOT
ATOM      1  C   UNL     1       6.750  -0.127  -2.182  0.00  0.00    +0.247 C 
ATOM      2  O   UNL     1       7.407   0.867  -1.956  0.00  0.00    -0.273 OA
ATOM      3  N   UNL     1       6.799  -0.705  -3.398  0.00  0.00    -0.296 N 
ATOM      4  C   UNL     1       6.016  -1.915  -3.691  0.00  0.00    +0.127 C 
ATOM      5  C   UNL     1       5.217  -1.671  -4.981  0.00  0.00    +0.125 C 
ATOM      6  N   UNL     1       6.136  -1.254  -6.049  0.00  0.00    -0.313 N 
ATOM      7  C   UNL     1       6.783   0.025  -5.724  0.00  0.00    +0.125 C 
ATOM      8  C   UNL     1       7.641  -0.146  -4.466  0.00  0.00    +0.127 C 
ENDROOT
BRANCH   6   9
ATOM      9  C   UNL     1       5.479  -1.183  -7.273  0.00  0.00    +0.118 A 
ATOM     10  C   UNL     1       5.477  -2.289  -8.119  0.00  0.00    +0.079 A 
ATOM     11  C   UNL     1       4.815  -2.207  -9.331  0.00  0.00    +0.037 A 
ATOM     12  C   UNL     1       4.185  -1.014  -9.662  0.00  0.00    +0.072 A 
ATOM     13  C   UNL     1       4.233   0.044  -8.778  0.00  0.00    +0.096 A 
ATOM     14 CL   UNL     1       6.287  -3.753  -7.656  0.00  0.00    -0.080 Cl
ATOM     15  N   UNL     1       4.869  -0.002  -7.576  0.00  0.00    -0.348 N 
ATOM     16  H   UNL     1       4.888   0.802  -6.938  0.00  0.00    +0.167 HD
BRANCH  12  17
ATOM     17  C   UNL     1       3.457  -0.876 -10.975  0.00  0.00    +0.419 C 
ATOM     18  F   UNL     1       2.911   0.408 -11.073  0.00  0.00    -0.166 F 
ATOM     19  F   UNL     1       4.352  -1.085 -12.029  0.00  0.00    -0.166 F 
ATOM     20  F   UNL     1       2.431  -1.825 -11.040  0.00  0.00    -0.166 F 
ENDBRANCH  12  17
ENDBRANCH   6   9
BRANCH   1  23
ATOM     21  C   UNL     1       3.735  -0.566  -0.042  0.00  0.00    +0.145 C 
ATOM     22  C   UNL     1       4.381  -0.538  -1.452  0.00  0.00    +0.076 C 
ATOM     23  C   UNL     1       5.880  -0.717  -1.102  0.00  0.00    +0.236 C 
ATOM     24  O   UNL     1       6.045   0.009   0.130  0.00  0.00    -0.258 OA
ATOM     25  N   UNL     1       4.747   0.107   0.805  0.00  0.00    -0.244 N 
BRANCH  21  29
ATOM     26  C   UNL     1       0.061   1.613  -0.019  0.00  0.00    +0.000 A 
ATOM     27  C   UNL     1       1.266   2.290  -0.037  0.00  0.00    +0.000 A 
ATOM     28  C   UNL     1       2.455   1.585  -0.046  0.00  0.00    +0.006 A 
ATOM     29  C   UNL     1       2.439   0.203  -0.034  0.00  0.00    -0.023 A 
ATOM     30  C   UNL     1       1.234  -0.474  -0.015  0.00  0.00    +0.006 A 
ATOM     31  C   UNL     1       0.045   0.231  -0.008  0.00  0.00    +0.000 A 
ENDBRANCH  21  29
BRANCH  25  32
ATOM     32  C   UNL     1       4.800  -0.469   2.076  0.00  0.00    +0.065 A 
ATOM     33  C   UNL     1       5.113  -1.815   2.218  0.00  0.00    +0.028 A 
ATOM     34  C   UNL     1       5.168  -2.380   3.477  0.00  0.00    +0.002 A 
ATOM     35  C   UNL     1       4.902  -1.611   4.595  0.00  0.00    +0.000 A 
ATOM     36  C   UNL     1       4.585  -0.272   4.457  0.00  0.00    +0.002 A 
ATOM     37  C   UNL     1       4.533   0.301   3.201  0.00  0.00    +0.028 A 
ENDBRANCH  25  32
ENDBRANCH   1  23
TORSDOF 5
