REMARK  Name = ZINC38885891
REMARK  8 active torsions:
REMARK  status: ('A' for Active; 'I' for Inactive)
REMARK    1  A    between atoms: C_1  and  C_2
REMARK    2  A    between atoms: C_2  and  C_4
REMARK    3  A    between atoms: C_2  and  N_16
REMARK    4  A    between atoms: C_7  and  N_10
REMARK    5  A    between atoms: C_17  and  C_19
REMARK    6  A    between atoms: N_24  and  C_26
REMARK    7  A    between atoms: C_26  and  C_27
REMARK    8  A    between atoms: C_29  and  C_32
REMARK                            x       y       z     vdW  Elec       q    Type
REMARK                         _______ _______ _______ _____ _____    ______ ____
ROOT
ATOM      1  C   UNL     1       0.751  -1.164   3.572  0.00  0.00    +0.058 C 
ATOM      2  C   UNL     1       1.905  -0.220   3.924  0.00  0.00    +0.009 C 
ATOM      3  C   UNL     1       2.578  -0.709   5.210  0.00  0.00    -0.018 C 
ATOM      4  C   UNL     1       1.535  -0.791   6.326  0.00  0.00    -0.078 C 
ATOM      5  N   UNL     1       0.473  -1.728   5.941  0.00  0.00    +0.386 N 
ATOM      6  C   UNL     1      -0.224  -1.230   4.749  0.00  0.00    -0.065 C 
ATOM      7  H   UNL     1       0.879  -2.630   5.739  0.00  0.00    -0.081 HD
ENDROOT
BRANCH   1   9
ATOM      8  N   UNL     1       0.700  -0.505   1.189  0.00  0.00    -0.309 N 
ATOM      9  C   UNL     1       0.034  -0.649   2.352  0.00  0.00    +0.215 C 
ATOM     10  O   UNL     1      -1.143  -0.364   2.415  0.00  0.00    -0.276 OA
ATOM     11  H   UNL     1       1.641  -0.733   1.138  0.00  0.00    +0.149 HD
BRANCH   8  13
ATOM     12  C   UNL     1      -0.002   1.526   0.020  0.00  0.00    +0.033 C 
ATOM     13  C   UNL     1       0.002  -0.004   0.002  0.00  0.00    +0.100 C 
BRANCH  13  14
ATOM     14  C   UNL     1       0.708  -0.490  -1.238  0.00  0.00    -0.027 A 
ATOM     15  C   UNL     1       2.089  -0.525  -1.276  0.00  0.00    +0.007 A 
ATOM     16  C   UNL     1       2.739  -0.970  -2.411  0.00  0.00    +0.023 A 
ATOM     17  C   UNL     1       2.003  -1.382  -3.514  0.00  0.00    +0.030 A 
ATOM     18  C   UNL     1       0.615  -1.346  -3.472  0.00  0.00    +0.023 A 
ATOM     19  C   UNL     1      -0.029  -0.905  -2.333  0.00  0.00    +0.007 A 
BRANCH  17  20
ATOM     20  N   UNL     1       2.656  -1.832  -4.664  0.00  0.00    -0.330 N 
ATOM     21  C   UNL     1       1.893  -2.384  -5.792  0.00  0.00    +0.105 C 
ATOM     22  C   UNL     1       2.287  -1.632  -7.067  0.00  0.00    +0.019 C 
ATOM     23  C   UNL     1       3.805  -1.697  -7.245  0.00  0.00    +0.003 C 
ATOM     24  C   UNL     1       4.489  -1.019  -6.055  0.00  0.00    +0.019 C 
ATOM     25  C   UNL     1       4.120  -1.758  -4.770  0.00  0.00    +0.105 C 
ENDBRANCH  17  20
ENDBRANCH  13  14
ENDBRANCH   8  13
ENDBRANCH   1   9
BRANCH   5  26
ATOM     26  C   UNL     1      -0.484  -1.863   7.046  0.00  0.00    +0.022 C 
BRANCH  26  27
ATOM     27  C   UNL     1       0.200  -2.498   8.229  0.00  0.00    +0.211 A 
ATOM     28  N   UNL     1       0.816  -1.862   9.184  0.00  0.00    -0.193 NA
ATOM     29  C   UNL     1       1.310  -2.738  10.077  0.00  0.00    +0.202 A 
ATOM     30  N   UNL     1       1.005  -3.951   9.687  0.00  0.00    -0.056 NA
ATOM     31  O   UNL     1       0.272  -3.812   8.479  0.00  0.00    -0.340 OA
BRANCH  29  32
ATOM     32  C   UNL     1       2.075  -2.389  11.300  0.00  0.00    +0.022 A 
ATOM     33  C   UNL     1       2.331  -1.055  11.608  0.00  0.00    +0.012 A 
ATOM     34  C   UNL     1       3.043  -0.736  12.747  0.00  0.00    +0.001 A 
ATOM     35  C   UNL     1       3.502  -1.739  13.582  0.00  0.00    +0.000 A 
ATOM     36  C   UNL     1       3.250  -3.065  13.281  0.00  0.00    +0.001 A 
ATOM     37  C   UNL     1       2.534  -3.395  12.148  0.00  0.00    +0.012 A 
ENDBRANCH  29  32
ENDBRANCH  26  27
ENDBRANCH   5  26
TORSDOF 7
