REMARK  Name = ZINC23365515
REMARK  9 active torsions:
REMARK  status: ('A' for Active; 'I' for Inactive)
REMARK    1  A    between atoms: C_3  and  C_6
REMARK    2  A    between atoms: C_9  and  C_29
REMARK    3  A    between atoms: C_12  and  C_14
REMARK    4  A    between atoms: C_14  and  S_15
REMARK    5  A    between atoms: S_15  and  C_16
REMARK    6  A    between atoms: C_19  and  C_26
REMARK    7  A    between atoms: N_20  and  C_21
REMARK    8  A    between atoms: C_21  and  C_22
REMARK    9  A    between atoms: C_22  and  C_23
REMARK                            x       y       z     vdW  Elec       q    Type
REMARK                         _______ _______ _______ _____ _____    ______ ____
ROOT
ATOM      1  C   UNL     1       7.212   4.828  -0.034  0.00  0.00    +0.143 C 
ATOM      2  C   UNL     1       7.061   6.362  -0.030  0.00  0.00    +0.088 C 
ATOM      3  C   UNL     1       5.565   6.581  -0.015  0.00  0.00    +0.075 C 
ATOM      4  N   UNL     1       4.963   5.439  -0.016  0.00  0.00    -0.180 NA
ATOM      5  N   UNL     1       5.823   4.343  -0.030  0.00  0.00    -0.184 N 
ATOM      6  C   UNL     1       5.445   3.049  -0.033  0.00  0.00    +0.246 C 
ATOM      7  O   UNL     1       6.283   2.172  -0.045  0.00  0.00    -0.273 OA
ENDROOT
BRANCH   1  10
ATOM      8  C   UNL     1       9.682   3.554   2.571  0.00  0.00    +0.008 A 
ATOM      9  C   UNL     1       9.221   3.935   1.325  0.00  0.00    +0.013 A 
ATOM     10  C   UNL     1       7.941   4.361   1.200  0.00  0.00    +0.013 A 
ATOM     11  S   UNL     1       7.339   4.219   2.874  0.00  0.00    -0.100 S 
ATOM     12  C   UNL     1       8.837   3.608   3.629  0.00  0.00    +0.045 A 
ENDBRANCH   1  10
BRANCH   3  13
ATOM     13  C   UNL     1       4.900   7.888  -0.002  0.00  0.00    +0.035 A 
ATOM     14  C   UNL     1       3.547   8.179   0.007  0.00  0.00    +0.017 A 
ATOM     15  C   UNL     1       3.163   9.500   0.022  0.00  0.00    +0.008 A 
ATOM     16  C   UNL     1       4.115  10.469   0.018  0.00  0.00    +0.046 A 
ATOM     17  S   UNL     1       5.626   9.519  -0.000  0.00  0.00    -0.095 S 
ENDBRANCH   3  13
BRANCH   6  18
ATOM     18  C   UNL     1       3.981   2.692  -0.021  0.00  0.00    +0.175 C 
BRANCH  18  19
ATOM     19  S   UNL     1       3.799   0.891  -0.029  0.00  0.00    -0.077 S 
BRANCH  19  20
ATOM     20  C   UNL     1       2.042   0.761  -0.013  0.00  0.00    +0.192 A 
ATOM     21  N   UNL     1       1.185   1.756   0.000  0.00  0.00    -0.122 NA
ATOM     22  N   UNL     1      -0.016   1.299   0.009  0.00  0.00    -0.133 NA
ATOM     23  C   UNL     1       0.002  -0.004   0.002  0.00  0.00    +0.137 A 
ATOM     24  N   UNL     1       1.313  -0.393  -0.013  0.00  0.00    -0.305 N 
BRANCH  23  25
ATOM     25  C   UNL     1      -1.200  -0.913   0.009  0.00  0.00    +0.057 C 
ATOM     26  C   UNL     1      -2.574  -0.269  -0.180  0.00  0.00    +0.012 C 
ATOM     27  C   UNL     1      -2.162  -0.803   1.194  0.00  0.00    +0.012 C 
ENDBRANCH  23  25
BRANCH  24  28
ATOM     28  C   UNL     1       1.829  -1.765  -0.025  0.00  0.00    +0.135 C 
BRANCH  28  29
ATOM     29  C   UNL     1       1.994  -2.234  -1.472  0.00  0.00    +0.117 C 
BRANCH  29  30
ATOM     30  C   UNL     1       2.524  -3.645  -1.484  0.00  0.00    +0.212 C 
ATOM     31  O   UNL     1       2.748  -4.218  -0.439  0.00  0.00    -0.276 OA
ATOM     32  N   UNL     1       2.750  -4.269  -2.657  0.00  0.00    -0.329 N 
ATOM     33  H   UNL     1       3.137  -5.299  -2.666  0.00  0.00    +0.145 HD
ATOM     34  H   UNL     1       2.548  -3.749  -3.605  0.00  0.00    +0.145 HD
ENDBRANCH  29  30
ENDBRANCH  28  29
ENDBRANCH  24  28
ENDBRANCH  19  20
ENDBRANCH  18  19
ENDBRANCH   6  18
TORSDOF 9
