REMARK  Name = ZINC16271157
REMARK  9 active torsions:
REMARK  status: ('A' for Active; 'I' for Inactive)
REMARK    1  A    between atoms: C_1  and  N_2
REMARK    2  A    between atoms: C_6  and  C_7
REMARK    3  A    between atoms: N_9  and  N_10
REMARK    4  A    between atoms: C_11  and  C_13
REMARK    5  A    between atoms: C_13  and  C_14
REMARK    6  A    between atoms: C_14  and  N_15
REMARK    7  A    between atoms: N_15  and  C_16
REMARK    8  A    between atoms: C_19  and  C_25
REMARK    9  A    between atoms: C_21  and  N_22
REMARK                            x       y       z     vdW  Elec       q    Type
REMARK                         _______ _______ _______ _____ _____    ______ ____
ROOT
ATOM      1  C   UNL     1       5.062  -1.913   0.965  0.00  0.00    +0.116 C 
ENDROOT
BRANCH   1   3
ATOM      2  N   UNL     1       3.501  -0.078   1.526  0.00  0.00    -0.234 N 
ATOM      3  C   UNL     1       3.672  -1.363   1.157  0.00  0.00    +0.231 C 
ATOM      4  O   UNL     1       2.708  -2.076   0.980  0.00  0.00    -0.274 OA
ATOM      5  H   UNL     1       4.273   0.493   1.668  0.00  0.00    +0.173 HD
BRANCH   2   8
ATOM      6  C   UNL     1       2.038   1.719   2.074  0.00  0.00    +0.277 C 
ATOM      7  O   UNL     1       2.999   2.460   2.161  0.00  0.00    -0.267 OA
ATOM      8  N   UNL     1       2.209   0.434   1.705  0.00  0.00    -0.229 N 
ATOM      9  H   UNL     1       1.438  -0.137   1.563  0.00  0.00    +0.173 HD
BRANCH   6  15
ATOM     10  C   UNL     1       1.294   4.653   2.730  0.00  0.00    +0.149 C 
ATOM     11  N   UNL     1       0.360   3.527   2.662  0.00  0.00    -0.345 N 
ATOM     12  C   UNL     1      -0.976   3.594   2.882  0.00  0.00    +0.101 A 
ATOM     13  C   UNL     1      -1.508   2.357   2.727  0.00  0.00    +0.036 A 
ATOM     14  C   UNL     1      -0.467   1.479   2.407  0.00  0.00    +0.047 A 
ATOM     15  C   UNL     1       0.693   2.224   2.370  0.00  0.00    +0.107 A 
ATOM     16 BR   UNL     1      -3.332   1.897   2.917  0.00  0.00    -0.049 Br
ENDBRANCH   6  15
ENDBRANCH   2   8
ENDBRANCH   1   3
BRANCH   1  17
ATOM     17  C   UNL     1       4.976  -3.383   0.550  0.00  0.00    +0.111 C 
BRANCH  17  18
ATOM     18  N   UNL     1       6.327  -3.918   0.364  0.00  0.00    -0.342 N 
ATOM     19  H   UNL     1       7.098  -3.347   0.505  0.00  0.00    +0.146 HD
BRANCH  18  20
ATOM     20  C   UNL     1       6.504  -5.249  -0.019  0.00  0.00    +0.058 A 
ATOM     21  C   UNL     1       5.414  -6.108  -0.076  0.00  0.00    +0.026 A 
ATOM     22  C   UNL     1       5.593  -7.424  -0.454  0.00  0.00    +0.014 A 
ATOM     23  C   UNL     1       6.856  -7.888  -0.776  0.00  0.00    +0.057 A 
ATOM     24  C   UNL     1       7.943  -7.035  -0.720  0.00  0.00    +0.047 A 
ATOM     25  C   UNL     1       7.770  -5.716  -0.348  0.00  0.00    +0.147 A 
BRANCH  23  26
ATOM     26  C   UNL     1       7.047  -9.324  -1.189  0.00  0.00    +0.417 C 
ATOM     27  F   UNL     1       5.813  -9.983  -1.170  0.00  0.00    -0.166 F 
ATOM     28  F   UNL     1       7.581  -9.371  -2.481  0.00  0.00    -0.166 F 
ATOM     29  F   UNL     1       7.924  -9.952  -0.298  0.00  0.00    -0.166 F 
ENDBRANCH  23  26
BRANCH  25  30
ATOM     30  N   UNL     1       8.934  -4.803  -0.295  0.00  0.00    +0.058 N 
ATOM     31  O   UNL     1       8.815  -3.644  -0.649  0.00  0.00    -0.126 OA
ATOM     32  O   UNL     1      10.010  -5.211   0.104  0.00  0.00    -0.126 OA
ENDBRANCH  25  30
ENDBRANCH  18  20
ENDBRANCH  17  18
ENDBRANCH   1  17
TORSDOF 8
