REMARK  Name = ZINC08820454
REMARK  9 active torsions:
REMARK  status: ('A' for Active; 'I' for Inactive)
REMARK    1  A    between atoms: C_4  and  C_7
REMARK    2  A    between atoms: C_8  and  C_9
REMARK    3  A    between atoms: N_13  and  C_17
REMARK    4  A    between atoms: C_17  and  C_18
REMARK    5  A    between atoms: C_18  and  C_19
REMARK    6  A    between atoms: N_21  and  N_22
REMARK    7  A    between atoms: N_22  and  C_23
REMARK    8  A    between atoms: C_26  and  N_32
REMARK    9  A    between atoms: C_28  and  N_29
REMARK                            x       y       z     vdW  Elec       q    Type
REMARK                         _______ _______ _______ _____ _____    ______ ____
ROOT
ATOM      1  C   UNL     1       3.662   1.802  -0.135  0.00  0.00    +0.116 C 
ENDROOT
BRANCH   1   2
ATOM      2  C   UNL     1       2.369   1.030  -0.095  0.00  0.00    +0.231 C 
ATOM      3  O   UNL     1       2.386  -0.183  -0.091  0.00  0.00    -0.274 OA
ATOM      4  N   UNL     1       1.192   1.687  -0.064  0.00  0.00    -0.236 N 
ATOM      5  H   UNL     1       1.178   2.656  -0.067  0.00  0.00    +0.173 HD
BRANCH   4   6
ATOM      6  N   UNL     1      -0.010   0.968  -0.027  0.00  0.00    -0.262 N 
ATOM      7  H   UNL     1       0.004  -0.002  -0.024  0.00  0.00    +0.170 HD
BRANCH   6   8
ATOM      8  C   UNL     1      -1.230   1.649  -0.000  0.00  0.00    +0.075 A 
ATOM      9  C   UNL     1      -1.252   3.034   0.106  0.00  0.00    +0.029 A 
ATOM     10  C   UNL     1      -2.459   3.704   0.128  0.00  0.00    +0.035 A 
ATOM     11  C   UNL     1      -3.645   2.997   0.054  0.00  0.00    +0.128 A 
ATOM     12  C   UNL     1      -3.627   1.618  -0.047  0.00  0.00    +0.067 A 
ATOM     13  C   UNL     1      -2.423   0.942  -0.075  0.00  0.00    +0.150 A 
BRANCH  13  14
ATOM     14  N   UNL     1      -2.404  -0.534  -0.183  0.00  0.00    +0.058 N 
ATOM     15  O   UNL     1      -3.444  -1.145  -0.355  0.00  0.00    -0.126 OA
ATOM     16  O   UNL     1      -1.349  -1.137  -0.101  0.00  0.00    -0.126 OA
ENDBRANCH  13  14
BRANCH  11  17
ATOM     17  N   UNL     1      -4.938   3.718   0.084  0.00  0.00    +0.056 N 
ATOM     18  O   UNL     1      -5.983   3.097   0.019  0.00  0.00    -0.126 OA
ATOM     19  O   UNL     1      -4.955   4.933   0.173  0.00  0.00    -0.126 OA
ENDBRANCH  11  17
ENDBRANCH   6   8
ENDBRANCH   4   6
ENDBRANCH   1   2
BRANCH   1  20
ATOM     20  C   UNL     1       4.839   0.825  -0.165  0.00  0.00    +0.124 C 
BRANCH  20  25
ATOM     21  C   UNL     1       8.641   3.127  -2.380  0.00  0.00    +0.020 C 
ATOM     22  C   UNL     1       7.884   2.659  -1.345  0.00  0.00    +0.077 C 
ATOM     23  C   UNL     1       6.621   1.899  -1.373  0.00  0.00    +0.258 C 
ATOM     24  O   UNL     1       6.085   1.588  -2.421  0.00  0.00    -0.269 OA
ATOM     25  N   UNL     1       6.096   1.576  -0.203  0.00  0.00    -0.255 N 
ATOM     26  C   UNL     1       6.696   1.917   0.956  0.00  0.00    +0.121 C 
ATOM     27  S   UNL     1       6.183   1.588   2.556  0.00  0.00    -0.027 S 
ATOM     28  S   UNL     1       8.154   2.796   0.417  0.00  0.00    -0.061 S 
BRANCH  21  30
ATOM     29  C   UNL     1      10.583   4.297  -3.145  0.00  0.00    +0.008 C 
ATOM     30  C   UNL     1       9.832   3.833  -2.118  0.00  0.00    +0.002 C 
BRANCH  29  34
ATOM     31  C   UNL     1      14.166   6.425  -2.358  0.00  0.00    +0.000 A 
ATOM     32  C   UNL     1      13.768   6.206  -3.666  0.00  0.00    +0.001 A 
ATOM     33  C   UNL     1      12.605   5.515  -3.930  0.00  0.00    +0.008 A 
ATOM     34  C   UNL     1      11.826   5.034  -2.872  0.00  0.00    -0.025 A 
ATOM     35  C   UNL     1      12.232   5.264  -1.553  0.00  0.00    +0.008 A 
ATOM     36  C   UNL     1      13.401   5.952  -1.306  0.00  0.00    +0.001 A 
ENDBRANCH  29  34
ENDBRANCH  21  30
ENDBRANCH  20  25
ENDBRANCH   1  20
TORSDOF 9
