REMARK  Name = ZINC49798416
REMARK  9 active torsions:
REMARK  status: ('A' for Active; 'I' for Inactive)
REMARK    1  A    between atoms: C_1  and  C_2
REMARK    2  A    between atoms: C_10  and  C_11
REMARK    3  A    between atoms: N_13  and  N_14
REMARK    4  A    between atoms: N_17  and  C_18
REMARK    5  A    between atoms: C_18  and  C_19
REMARK    6  A    between atoms: C_19  and  C_21
REMARK    7  A    between atoms: C_19  and  N_28
REMARK    8  A    between atoms: N_28  and  C_29
REMARK    9  A    between atoms: N_28  and  C_30
REMARK                            x       y       z     vdW  Elec       q    Type
REMARK                         _______ _______ _______ _____ _____    ______ ____
ROOT
ATOM      1  N   UNL     1       0.041  -0.949   4.595  0.00  0.00    -0.218 N 
ATOM      2  C   UNL     1      -0.043  -1.815   5.624  0.00  0.00    +0.316 C 
ATOM      3  O   UNL     1      -0.205  -1.401   6.756  0.00  0.00    -0.251 OA
ATOM      4  N   UNL     1       0.054  -3.140   5.399  0.00  0.00    -0.299 N 
ATOM      5  H   UNL     1      -0.029   0.005   4.757  0.00  0.00    +0.174 HD
ATOM      6  H   UNL     1       0.184  -3.471   4.496  0.00  0.00    +0.150 HD
ENDROOT
BRANCH   1   9
ATOM      7  C   UNL     1       0.311  -0.560   2.262  0.00  0.00    +0.296 C 
ATOM      8  O   UNL     1       0.224   0.637   2.465  0.00  0.00    -0.265 OA
ATOM      9  N   UNL     1       0.228  -1.426   3.291  0.00  0.00    -0.227 N 
ATOM     10  H   UNL     1       0.298  -2.380   3.129  0.00  0.00    +0.173 HD
BRANCH   7  20
ATOM     11  C   UNL     1       0.535   1.220  -0.278  0.00  0.00    +0.048 C 
ATOM     12  C   UNL     1       0.606  -0.284  -0.216  0.00  0.00    +0.008 A 
ATOM     13  C   UNL     1       0.800  -1.202  -1.337  0.00  0.00    +0.024 A 
ATOM     14  C   UNL     1       0.971  -1.036  -2.713  0.00  0.00    +0.012 A 
ATOM     15  C   UNL     1       1.132  -2.132  -3.513  0.00  0.00    +0.001 A 
ATOM     16  C   UNL     1       1.128  -3.409  -2.966  0.00  0.00    +0.004 A 
ATOM     17  C   UNL     1       0.961  -3.594  -1.611  0.00  0.00    +0.047 A 
ATOM     18  C   UNL     1       0.795  -2.494  -0.777  0.00  0.00    +0.136 A 
ATOM     19  O   UNL     1       0.615  -2.361   0.551  0.00  0.00    -0.450 OA
ATOM     20  C   UNL     1       0.508  -1.060   0.894  0.00  0.00    +0.195 A 
ENDBRANCH   7  20
ENDBRANCH   1   9
BRANCH   4  21
ATOM     21  C   UNL     1      -0.036  -4.082   6.518  0.00  0.00    +0.095 C 
BRANCH  21  22
ATOM     22  C   UNL     1      -0.009  -5.515   5.982  0.00  0.00    -0.021 C 
BRANCH  22  23
ATOM     23  C   UNL     1       1.322  -5.781   5.327  0.00  0.00    -0.057 A 
ATOM     24  C   UNL     1       2.424  -6.093   6.102  0.00  0.00    +0.002 A 
ATOM     25  C   UNL     1       3.645  -6.337   5.503  0.00  0.00    +0.003 A 
ATOM     26  C   UNL     1       3.766  -6.270   4.128  0.00  0.00    +0.038 A 
ATOM     27  C   UNL     1       2.664  -5.958   3.351  0.00  0.00    +0.124 A 
ATOM     28  C   UNL     1       1.440  -5.719   3.952  0.00  0.00    +0.040 A 
ATOM     29  F   UNL     1       2.782  -5.892   2.006  0.00  0.00    -0.205 F 
ENDBRANCH  22  23
BRANCH  22  30
ATOM     30  N   UNL     1      -0.206  -6.456   7.092  0.00  0.00    +0.382 N 
ATOM     31  C   UNL     1      -1.504  -6.198   7.729  0.00  0.00    -0.096 C 
ATOM     32  C   UNL     1      -0.178  -7.832   6.577  0.00  0.00    -0.096 C 
ATOM     33  H   UNL     1       0.532  -6.336   7.770  0.00  0.00    -0.082 HD
ENDBRANCH  22  30
ENDBRANCH  21  22
ENDBRANCH   4  21
TORSDOF 6
