REMARK  Name = ZINC07548600
REMARK  8 active torsions:
REMARK  status: ('A' for Active; 'I' for Inactive)
REMARK    1  A    between atoms: C_1  and  C_2
REMARK    2  A    between atoms: C_5  and  C_9
REMARK    3  A    between atoms: C_6  and  C_8
REMARK    4  A    between atoms: C_9  and  O_11
REMARK    5  A    between atoms: O_11  and  C_12
REMARK    6  A    between atoms: C_12  and  C_14
REMARK    7  A    between atoms: C_12  and  C_15
REMARK    8  A    between atoms: N_17  and  C_18
REMARK                            x       y       z     vdW  Elec       q    Type
REMARK                         _______ _______ _______ _____ _____    ______ ____
ROOT
ATOM      1  C   UNL     1       3.696   6.025  -0.400  0.00  0.00    +0.259 C 
ATOM      2  C   UNL     1       4.389   5.724  -1.731  0.00  0.00    +0.062 C 
ENDROOT
BRANCH   1   3
ATOM      3  C   UNL     1       2.413   5.240  -0.313  0.00  0.00    +0.258 C 
ATOM      4  O   UNL     1       1.348   5.820  -0.284  0.00  0.00    -0.271 OA
ATOM      5  N   UNL     1       2.449   3.893  -0.267  0.00  0.00    -0.281 N 
ATOM      6  H   UNL     1       3.300   3.432  -0.209  0.00  0.00    +0.155 HD
BRANCH   5   7
ATOM      7  C   UNL     1       1.257   3.160  -0.303  0.00  0.00    +0.053 A 
ATOM      8  C   UNL     1       0.118   3.711  -0.876  0.00  0.00    +0.044 A 
ATOM      9  C   UNL     1      -1.057   2.984  -0.911  0.00  0.00    +0.043 A 
ATOM     10  C   UNL     1      -1.098   1.706  -0.381  0.00  0.00    +0.021 A 
ATOM     11  C   UNL     1       0.032   1.157   0.195  0.00  0.00    +0.023 A 
ATOM     12  C   UNL     1       1.211   1.879   0.233  0.00  0.00    +0.062 A 
ATOM     13 CL   UNL     1       2.631   1.186   0.952  0.00  0.00    -0.082 Cl
ATOM     14 CL   UNL     1      -2.481   3.672  -1.628  0.00  0.00    -0.083 Cl
ENDBRANCH   5   7
ENDBRANCH   1   3
BRANCH   1  15
ATOM     15  O   UNL     1       3.402   7.444  -0.317  0.00  0.00    -0.449 OA
BRANCH  15  16
ATOM     16  C   UNL     1       4.347   8.234   0.230  0.00  0.00    +0.340 C 
ATOM     17  O   UNL     1       5.387   7.750   0.628  0.00  0.00    -0.245 OA
BRANCH  16  22
ATOM     18  C   UNL     1       3.450  13.898   0.689  0.00  0.00    +0.044 C 
ATOM     19  C   UNL     1       3.684  12.415   0.568  0.00  0.00    -0.050 A 
ATOM     20  C   UNL     1       2.678  11.595   0.089  0.00  0.00    +0.004 A 
ATOM     21  C   UNL     1       2.887  10.236  -0.024  0.00  0.00    +0.015 A 
ATOM     22  C   UNL     1       4.116   9.688   0.348  0.00  0.00    +0.062 A 
ATOM     23  C   UNL     1       5.125  10.521   0.836  0.00  0.00    -0.036 A 
ATOM     24  C   UNL     1       4.905  11.879   0.938  0.00  0.00    +0.007 A 
ATOM     25  C   UNL     1       6.454   9.938   1.244  0.00  0.00    +0.044 C 
ENDBRANCH  16  22
ENDBRANCH  15  16
ENDBRANCH   1  15
TORSDOF 5
