REMARK  Name = ZINC14790697
REMARK  10 active torsions:
REMARK  status: ('A' for Active; 'I' for Inactive)
REMARK    1  A    between atoms: C_1  and  C_2
REMARK    2  A    between atoms: C_4  and  C_31
REMARK    3  A    between atoms: C_5  and  C_9
REMARK    4  A    between atoms: C_7  and  C_8
REMARK    5  A    between atoms: C_15  and  C_17
REMARK    6  A    between atoms: C_17  and  S_18
REMARK    7  A    between atoms: S_18  and  C_19
REMARK    8  A    between atoms: C_19  and  C_21
REMARK    9  A    between atoms: C_19  and  C_22
REMARK   10  A    between atoms: C_27  and  C_30
REMARK                            x       y       z     vdW  Elec       q    Type
REMARK                         _______ _______ _______ _____ _____    ______ ____
ROOT
ATOM      1  C   UNL     1       2.523   1.588   0.065  0.00  0.00    +0.080 A 
ATOM      2  C   UNL     1       3.668   2.321   0.202  0.00  0.00    +0.076 A 
ATOM      3  S   UNL     1       4.899   1.024   0.166  0.00  0.00    -0.060 S 
ATOM      4  C   UNL     1       3.770  -0.348  -0.027  0.00  0.00    +0.165 A 
ATOM      5  N   UNL     1       2.604   0.270  -0.042  0.00  0.00    -0.225 NA
ATOM      6  N   UNL     1       4.046  -1.706  -0.130  0.00  0.00    -0.264 N 
ATOM      7  C   UNL     1       5.322  -2.139  -0.087  0.00  0.00    +0.229 C 
ATOM      8  O   UNL     1       6.228  -1.344   0.041  0.00  0.00    -0.275 OA
ATOM      9  H   UNL     1       3.321  -2.342  -0.232  0.00  0.00    +0.157 HD
ENDROOT
BRANCH   1  14
ATOM     10  C   UNL     1      -2.608   4.202  -0.028  0.00  0.00    +0.044 C 
ATOM     11  C   UNL     1      -1.265   3.518  -0.004  0.00  0.00    -0.047 A 
ATOM     12  C   UNL     1      -1.178   2.161  -0.263  0.00  0.00    +0.007 A 
ATOM     13  C   UNL     1       0.048   1.529  -0.236  0.00  0.00    -0.041 A 
ATOM     14  C   UNL     1       1.202   2.261   0.040  0.00  0.00    +0.004 A 
ATOM     15  C   UNL     1       1.108   3.628   0.294  0.00  0.00    +0.014 A 
ATOM     16  C   UNL     1      -0.124   4.249   0.271  0.00  0.00    -0.047 A 
ATOM     17  C   UNL     1      -0.226   5.728   0.544  0.00  0.00    +0.044 C 
ATOM     18  C   UNL     1       0.141   0.050  -0.511  0.00  0.00    +0.044 C 
ENDBRANCH   1  14
BRANCH   7  19
ATOM     19  C   UNL     1       5.621  -3.612  -0.198  0.00  0.00    +0.165 C 
BRANCH  19  20
ATOM     20  S   UNL     1       7.414  -3.873  -0.108  0.00  0.00    -0.139 S 
BRANCH  20  21
ATOM     21  C   UNL     1       7.604  -5.671  -0.255  0.00  0.00    +0.130 C 
ATOM     22  C   UNL     1       6.970  -6.352   0.960  0.00  0.00    +0.029 C 
BRANCH  21  23
ATOM     23  C   UNL     1       9.069  -6.018  -0.317  0.00  0.00    +0.231 C 
ATOM     24  O   UNL     1       9.891  -5.269   0.168  0.00  0.00    -0.274 OA
ATOM     25  N   UNL     1       9.467  -7.160  -0.912  0.00  0.00    -0.267 N 
ATOM     26  C   UNL     1      10.823  -7.481  -0.970  0.00  0.00    +0.168 A 
ATOM     27  C   UNL     1      11.903  -6.717  -0.453  0.00  0.00    +0.091 A 
ATOM     28  C   UNL     1      12.997  -7.450  -0.760  0.00  0.00    +0.136 A 
ATOM     29  O   UNL     1      12.559  -8.543  -1.401  0.00  0.00    -0.358 OA
ATOM     30  N   UNL     1      11.354  -8.549  -1.505  0.00  0.00    -0.063 NA
ATOM     31  C   UNL     1      14.430  -7.105  -0.443  0.00  0.00    +0.089 C 
ATOM     32  H   UNL     1       8.809  -7.759  -1.300  0.00  0.00    +0.156 HD
ENDBRANCH  21  23
ENDBRANCH  20  21
ENDBRANCH  19  20
ENDBRANCH   7  19
TORSDOF 5
