REMARK  Name = ZINC14477964
REMARK  4 active torsions:
REMARK  status: ('A' for Active; 'I' for Inactive)
REMARK    1  A    between atoms: C_4  and  O_7
REMARK    2  A    between atoms: O_7  and  C_8
REMARK    3  A    between atoms: C_21  and  C_24
REMARK    4  A    between atoms: C_29  and  N_30
REMARK                            x       y       z     vdW  Elec       q    Type
REMARK                         _______ _______ _______ _____ _____    ______ ____
ROOT
ATOM      1  C   UNL     1       0.236   1.260   0.466  0.00  0.00    +0.129 A 
ATOM      2  C   UNL     1      -0.909   1.853   0.976  0.00  0.00    +0.048 A 
ATOM      3  C   UNL     1      -0.911   3.195   1.295  0.00  0.00    +0.027 A 
ATOM      4  C   UNL     1       0.228   3.966   1.097  0.00  0.00    +0.032 A 
ATOM      5  C   UNL     1       1.375   3.368   0.563  0.00  0.00    -0.016 A 
ATOM      6  C   UNL     1       1.375   2.024   0.259  0.00  0.00    +0.052 A 
ATOM      7  C   UNL     1       2.551   4.234   0.329  0.00  0.00    +0.049 C 
ATOM      8  C   UNL     1       3.934   3.693   0.311  0.00  0.00    -0.023 C 
ATOM      9  C   UNL     1       4.762   4.633   0.752  0.00  0.00    -0.030 C 
ATOM     10  C   UNL     1       3.975   5.886   1.137  0.00  0.00    +0.033 C 
ATOM     11  C   UNL     1       2.598   5.296   1.469  0.00  0.00    +0.029 C 
ATOM     12  C   UNL     1       1.389   6.187   1.243  0.00  0.00    +0.107 C 
ATOM     13  N   UNL     1       0.209   5.322   1.456  0.00  0.00    -0.336 N 
ATOM     14  H   UNL     1      -0.592   5.698   1.851  0.00  0.00    +0.147 HD
ENDROOT
BRANCH  12  15
ATOM     15  C   UNL     1       1.388   7.323   2.233  0.00  0.00    +0.003 A 
ATOM     16  C   UNL     1       2.255   7.302   3.310  0.00  0.00    +0.008 A 
ATOM     17  C   UNL     1       2.257   8.346   4.216  0.00  0.00    +0.000 A 
ATOM     18  C   UNL     1       1.385   9.406   4.051  0.00  0.00    +0.002 A 
ATOM     19  C   UNL     1       0.514   9.424   2.977  0.00  0.00    +0.033 A 
ATOM     20  C   UNL     1       0.516   8.383   2.068  0.00  0.00    +0.131 A 
BRANCH  20  21
ATOM     21  N   UNL     1      -0.416   8.402   0.919  0.00  0.00    +0.057 N 
ATOM     22  O   UNL     1      -1.250   9.285   0.826  0.00  0.00    -0.126 OA
ATOM     23  O   UNL     1      -0.349   7.535   0.066  0.00  0.00    -0.126 OA
ENDBRANCH  20  21
ENDBRANCH  12  15
BRANCH   1  24
ATOM     24  O   UNL     1       0.241  -0.066   0.163  0.00  0.00    -0.456 OA
BRANCH  24  28
ATOM     25  C   UNL     1      -3.226  -2.210   0.796  0.00  0.00    +0.000 A 
ATOM     26  C   UNL     1      -3.006  -1.599  -0.425  0.00  0.00    +0.004 A 
ATOM     27  C   UNL     1      -1.846  -0.880  -0.639  0.00  0.00    +0.046 A 
ATOM     28  C   UNL     1      -0.901  -0.771   0.371  0.00  0.00    +0.128 A 
ATOM     29  C   UNL     1      -1.123  -1.389   1.594  0.00  0.00    +0.046 A 
ATOM     30  C   UNL     1      -2.287  -2.103   1.805  0.00  0.00    +0.004 A 
ENDBRANCH  24  28
ENDBRANCH   1  24
TORSDOF 4
