REMARK  Name = ZINC50335718
REMARK  5 active torsions:
REMARK  status: ('A' for Active; 'I' for Inactive)
REMARK    1  A    between atoms: C_1  and  C_2
REMARK    2  A    between atoms: C_2  and  C_22
REMARK    3  A    between atoms: C_7  and  C_9
REMARK    4  A    between atoms: C_14  and  N_15
REMARK    5  A    between atoms: C_18  and  O_21
REMARK                            x       y       z     vdW  Elec       q    Type
REMARK                         _______ _______ _______ _____ _____    ______ ____
ROOT
ATOM      1  C   UNL     1       0.072   1.950   0.404  0.00  0.00    +0.011 C 
ATOM      2  C   UNL     1       0.000   0.477  -0.005  0.00  0.00    -0.027 C 
ATOM      3  C   UNL     1      -1.465   0.059  -0.137  0.00  0.00    +0.062 C 
ATOM      4  C   UNL     1      -2.111   0.088   1.246  0.00  0.00    +0.055 A 
ATOM      5  C   UNL     1      -1.329   0.066   2.362  0.00  0.00    +0.041 A 
ATOM      6  S   UNL     1      -2.521   0.116   3.675  0.00  0.00    -0.069 S 
ATOM      7  C   UNL     1      -3.973   0.160   2.631  0.00  0.00    +0.111 A 
ATOM      8  N   UNL     1      -3.424   0.134   1.428  0.00  0.00    -0.244 NA
ATOM      9  C   UNL     1       0.159   0.013   2.439  0.00  0.00    +0.153 C 
ATOM     10  C   UNL     1       0.699  -0.379   1.055  0.00  0.00    +0.043 C 
ATOM     11  C   UNL     1       0.701   0.290  -1.352  0.00  0.00    +0.011 C 
ENDROOT
BRANCH   7  12
ATOM     12  C   UNL     1      -5.402   0.211   3.011  0.00  0.00    +0.037 A 
ATOM     13  C   UNL     1      -5.872   1.236   3.832  0.00  0.00    +0.013 A 
ATOM     14  C   UNL     1      -7.206   1.278   4.182  0.00  0.00    +0.001 A 
ATOM     15  C   UNL     1      -8.076   0.306   3.721  0.00  0.00    +0.002 A 
ATOM     16  C   UNL     1      -7.616  -0.713   2.907  0.00  0.00    +0.033 A 
ATOM     17  C   UNL     1      -6.285  -0.763   2.544  0.00  0.00    +0.136 A 
BRANCH  17  18
ATOM     18  N   UNL     1      -5.796  -1.850   1.668  0.00  0.00    +0.057 N 
ATOM     19  O   UNL     1      -6.579  -2.631   1.179  0.00  0.00    -0.126 OA
ATOM     20  O   UNL     1      -4.613  -1.958   1.440  0.00  0.00    -0.126 OA
ENDBRANCH  17  18
ENDBRANCH   7  12
BRANCH   9  21
ATOM     21  O   UNL     1       0.557  -0.960   3.407  0.00  0.00    -0.387 OA
ATOM     22  H   UNL     1       0.233  -0.782   4.300  0.00  0.00    +0.210 HD
ENDBRANCH   9  21
TORSDOF 3
