REMARK  Name = ZINC40388548
REMARK  2 active torsions:
REMARK  status: ('A' for Active; 'I' for Inactive)
REMARK    1  A    between atoms: C_6  and  C_7
REMARK    2  A    between atoms: C_8  and  C_9
REMARK                            x       y       z     vdW  Elec       q    Type
REMARK                         _______ _______ _______ _____ _____    ______ ____
ROOT
ATOM      1  C   UNL     1      -2.500  -2.861   0.011  0.00  0.00    -0.008 A 
ATOM      2  C   UNL     1      -3.736  -2.210   0.124  0.00  0.00    +0.028 A 
ATOM      3  C   UNL     1      -4.898  -2.957   0.127  0.00  0.00    +0.114 A 
ATOM      4  N   UNL     1      -4.882  -4.271   0.026  0.00  0.00    -0.235 NA
ATOM      5  C   UNL     1      -3.745  -4.954  -0.085  0.00  0.00    +0.169 A 
ATOM      6  C   UNL     1      -2.511  -4.266  -0.102  0.00  0.00    +0.091 A 
ATOM      7  C   UNL     1      -1.278  -5.045  -0.231  0.00  0.00    +0.262 A 
ATOM      8  O   UNL     1      -0.188  -4.503  -0.246  0.00  0.00    -0.267 OA
ATOM      9  N   UNL     1      -1.396  -6.389  -0.332  0.00  0.00    -0.294 N 
ATOM     10  H   UNL     1      -0.602  -6.939  -0.419  0.00  0.00    +0.172 HD
ATOM     11  C   UNL     1      -2.627  -6.976  -0.312  0.00  0.00    +0.200 A 
ATOM     12  N   UNL     1      -3.742  -6.298  -0.187  0.00  0.00    -0.196 NA
ATOM     13  N   UNL     1      -2.702  -8.340  -0.417  0.00  0.00    -0.301 N 
ATOM     14  C   UNL     1      -1.557  -9.254  -0.546  0.00  0.00    +0.108 C 
ATOM     15  C   UNL     1      -2.123 -10.685  -0.658  0.00  0.00    +0.020 C 
ATOM     16  C   UNL     1      -3.574 -10.447  -1.156  0.00  0.00    +0.020 C 
ATOM     17  C   UNL     1      -3.943  -9.136  -0.414  0.00  0.00    +0.108 C 
ENDROOT
BRANCH   1  19
ATOM     18  C   UNL     1      -1.252  -0.779  -0.217  0.00  0.00    +0.008 C 
ATOM     19  C   UNL     1      -1.240  -2.106   0.003  0.00  0.00    +0.009 C 
BRANCH  18  25
ATOM     20  C   UNL     1       0.002   1.357  -0.453  0.00  0.00    +0.011 A 
ATOM     21  C   UNL     1       1.188   2.060  -0.460  0.00  0.00    +0.039 A 
ATOM     22  C   UNL     1       2.388   1.402  -0.240  0.00  0.00    +0.123 A 
ATOM     23  C   UNL     1       2.404   0.034  -0.014  0.00  0.00    +0.039 A 
ATOM     24  C   UNL     1       1.225  -0.680  -0.006  0.00  0.00    +0.011 A 
ATOM     25  C   UNL     1       0.011  -0.022  -0.225  0.00  0.00    -0.025 A 
ATOM     26  F   UNL     1       3.547   2.096  -0.248  0.00  0.00    -0.205 F 
ENDBRANCH  18  25
ENDBRANCH   1  19
TORSDOF 2
