REMARK  Name = ZINC35768255
REMARK  8 active torsions:
REMARK  status: ('A' for Active; 'I' for Inactive)
REMARK    1  A    between atoms: C_1  and  C_2
REMARK    2  A    between atoms: C_2  and  C_3
REMARK    3  A    between atoms: C_3  and  C_4
REMARK    4  A    between atoms: C_4  and  C_5
REMARK    5  A    between atoms: C_14  and  C_18
REMARK    6  A    between atoms: N_20  and  C_21
REMARK    7  A    between atoms: C_21  and  C_22
REMARK    8  A    between atoms: C_22  and  C_23
REMARK                            x       y       z     vdW  Elec       q    Type
REMARK                         _______ _______ _______ _____ _____    ______ ____
ROOT
ATOM      1  C   UNL     1      -2.826  -2.585   0.015  0.00  0.00    +0.216 C 
ATOM      2  O   UNL     1      -3.759  -1.810   0.028  0.00  0.00    -0.276 OA
ATOM      3  N   UNL     1      -3.055  -3.913   0.010  0.00  0.00    -0.302 N 
ATOM      4  C   UNL     1      -1.935  -4.864   0.001  0.00  0.00    +0.107 C 
ATOM      5  C   UNL     1      -2.112  -5.820  -1.185  0.00  0.00    +0.017 C 
ATOM      6  C   UNL     1      -3.496  -6.447  -1.129  0.00  0.00    -0.016 C 
ATOM      7  C   UNL     1      -4.593  -5.394  -1.171  0.00  0.00    +0.017 C 
ATOM      8  C   UNL     1      -4.428  -4.436   0.021  0.00  0.00    +0.107 C 
ATOM      9  N   UNL     1      -3.638  -7.314   0.060  0.00  0.00    +0.397 N 
ATOM     10  C   UNL     1      -4.511  -8.475  -0.205  0.00  0.00    +0.028 C 
ATOM     11  C   UNL     1      -4.069  -9.140  -1.543  0.00  0.00    +0.061 C 
ATOM     12  S   UNL     1      -3.705  -7.620  -2.526  0.00  0.00    -0.174 S 
ATOM     13  H   UNL     1      -2.726  -7.645   0.335  0.00  0.00    -0.083 HD
ATOM     14  H   UNL     1      -4.032  -6.773   0.815  0.00  0.00    -0.083 HD
ENDROOT
BRANCH  10  15
ATOM     15  C   UNL     1      -4.384  -9.470   0.919  0.00  0.00    +0.200 C 
ATOM     16  O   UNL     1      -3.642  -9.242   1.851  0.00  0.00    -0.278 OA
ATOM     17  N   UNL     1      -5.095 -10.615   0.889  0.00  0.00    -0.316 N 
ATOM     18  H   UNL     1      -5.689 -10.798   0.144  0.00  0.00    +0.149 HD
BRANCH  17  19
ATOM     19  C   UNL     1      -4.971 -11.583   1.982  0.00  0.00    +0.109 C 
BRANCH  19  20
ATOM     20  C   UNL     1      -5.877 -12.784   1.704  0.00  0.00    +0.055 C 
BRANCH  20  21
ATOM     21  C   UNL     1      -5.750 -13.780   2.828  0.00  0.00    -0.027 A 
ATOM     22  C   UNL     1      -4.864 -14.835   2.719  0.00  0.00    +0.006 A 
ATOM     23  C   UNL     1      -4.746 -15.749   3.749  0.00  0.00    +0.020 A 
ATOM     24  C   UNL     1      -5.516 -15.608   4.891  0.00  0.00    +0.042 A 
ATOM     25  C   UNL     1      -6.402 -14.552   5.000  0.00  0.00    +0.040 A 
ATOM     26  C   UNL     1      -6.516 -13.635   3.971  0.00  0.00    +0.046 A 
ATOM     27 CL   UNL     1      -7.624 -12.306   4.110  0.00  0.00    -0.083 Cl
ATOM     28 CL   UNL     1      -5.369 -16.756   6.185  0.00  0.00    -0.083 Cl
ENDBRANCH  20  21
ENDBRANCH  19  20
ENDBRANCH  17  19
ENDBRANCH  10  15
BRANCH   1  29
ATOM     29  C   UNL     1      -1.413  -2.063   0.004  0.00  0.00    +0.096 C 
BRANCH  29  30
ATOM     30  C   UNL     1      -1.433  -0.534   0.013  0.00  0.00    +0.009 C 
BRANCH  30  32
ATOM     31  C   UNL     1      -0.019   1.526   0.010  0.00  0.00    +0.004 C 
ATOM     32  C   UNL     1       0.002  -0.004   0.002  0.00  0.00    -0.003 C 
ENDBRANCH  30  32
ENDBRANCH  29  30
ENDBRANCH   1  29
TORSDOF 7
