REMARK  Name = ZINC25257998
REMARK  12 active torsions:
REMARK  status: ('A' for Active; 'I' for Inactive)
REMARK    1  A    between atoms: C_1  and  C_2
REMARK    2  A    between atoms: C_2  and  C_3
REMARK    3  A    between atoms: C_2  and  C_4
REMARK    4  A    between atoms: C_4  and  C_6
REMARK    5  A    between atoms: C_4  and  N_22
REMARK    6  A    between atoms: N_8  and  N_9
REMARK    7  A    between atoms: C_10  and  C_12
REMARK    8  A    between atoms: C_15  and  C_18
REMARK    9  A    between atoms: C_18  and  C_19
REMARK   10  A    between atoms: C_18  and  C_20
REMARK   11  A    between atoms: C_18  and  C_21
REMARK   12  A    between atoms: C_23  and  C_25
REMARK                            x       y       z     vdW  Elec       q    Type
REMARK                         _______ _______ _______ _____ _____    ______ ____
ROOT
ATOM      1  C   UNL     1       3.635  -4.865  -0.058  0.00  0.00    +0.250 C 
ATOM      2  O   UNL     1       4.673  -4.239  -0.065  0.00  0.00    -0.272 OA
ATOM      3  N   UNL     1       2.455  -4.213  -0.043  0.00  0.00    -0.233 N 
ATOM      4  H   UNL     1       1.513  -4.781  -0.037  0.00  0.00    +0.173 HD
ENDROOT
BRANCH   3   5
ATOM      5  N   UNL     1       2.429  -2.812  -0.036  0.00  0.00    -0.230 N 
ATOM      6  C   UNL     1       1.250  -2.160  -0.021  0.00  0.00    +0.260 C 
ATOM      7  O   UNL     1       0.208  -2.788  -0.014  0.00  0.00    -0.269 OA
ATOM      8  H   UNL     1       3.371  -2.245  -0.042  0.00  0.00    +0.173 HD
BRANCH   6   9
ATOM      9  C   UNL     1       1.222  -0.682  -0.013  0.00  0.00    +0.038 A 
ATOM     10  C   UNL     1       0.002  -0.004   0.002  0.00  0.00    +0.013 A 
ATOM     11  C   UNL     1      -0.017   1.375   0.010  0.00  0.00    +0.005 A 
ATOM     12  C   UNL     1       1.170   2.086   0.002  0.00  0.00    -0.042 A 
ATOM     13  C   UNL     1       2.383   1.420  -0.013  0.00  0.00    +0.005 A 
ATOM     14  C   UNL     1       2.416   0.041  -0.021  0.00  0.00    +0.013 A 
BRANCH  12  15
ATOM     15  C   UNL     1       1.142   3.593   0.010  0.00  0.00    -0.013 C 
ATOM     16  C   UNL     1       0.423   4.083   1.268  0.00  0.00    +0.015 C 
ATOM     17  C   UNL     1       2.575   4.130  -0.001  0.00  0.00    +0.015 C 
ATOM     18  C   UNL     1       0.400   4.096  -1.230  0.00  0.00    +0.015 C 
ENDBRANCH  12  15
ENDBRANCH   6   9
ENDBRANCH   3   5
BRANCH   1  19
ATOM     19  C   UNL     1       3.663  -6.372  -0.066  0.00  0.00    +0.163 C 
BRANCH  19  20
ATOM     20  N   UNL     1       5.053  -6.834  -0.082  0.00  0.00    -0.300 N 
ATOM     21  C   UNL     1       5.363  -8.053   0.402  0.00  0.00    +0.250 C 
ATOM     22  O   UNL     1       4.489  -8.769   0.852  0.00  0.00    -0.270 OA
ATOM     23  H   UNL     1       5.843  -6.186  -0.489  0.00  0.00    +0.150 HD
BRANCH  21  24
ATOM     24  C   UNL     1       6.763  -8.519   0.386  0.00  0.00    +0.107 A 
ATOM     25  C   UNL     1       7.604  -8.256   1.473  0.00  0.00    +0.138 A 
ATOM     26  C   UNL     1       8.913  -8.701   1.452  0.00  0.00    +0.039 A 
ATOM     27  C   UNL     1       9.394  -9.394   0.356  0.00  0.00    +0.006 A 
ATOM     28  C   UNL     1       8.571  -9.652  -0.725  0.00  0.00    +0.039 A 
ATOM     29  C   UNL     1       7.258  -9.220  -0.718  0.00  0.00    +0.138 A 
ATOM     30  F   UNL     1       6.456  -9.474  -1.775  0.00  0.00    -0.205 F 
ATOM     31  F   UNL     1       7.137  -7.575   2.542  0.00  0.00    -0.205 F 
ENDBRANCH  21  24
ENDBRANCH  19  20
BRANCH  19  33
ATOM     32  C   UNL     1       3.709  -6.463  -2.562  0.00  0.00    +0.009 C 
ATOM     33  C   UNL     1       2.939  -6.889  -1.311  0.00  0.00    +0.012 C 
ATOM     34  C   UNL     1       2.858  -8.416  -1.256  0.00  0.00    +0.009 C 
ENDBRANCH  19  33
ENDBRANCH   1  19
TORSDOF 7
