REMARK  Name = ZINC56721144
REMARK  5 active torsions:
REMARK  status: ('A' for Active; 'I' for Inactive)
REMARK    1  A    between atoms: C_3  and  N_11
REMARK    2  A    between atoms: N_14  and  C_15
REMARK    3  A    between atoms: C_15  and  C_16
REMARK    4  A    between atoms: C_19  and  S_22
REMARK    5  A    between atoms: S_22  and  N_25
REMARK                            x       y       z     vdW  Elec       q    Type
REMARK                         _______ _______ _______ _____ _____    ______ ____
ROOT
ATOM      1  N   UNL     1       3.584   2.136  -0.023  0.00  0.00    -0.266 N 
ATOM      2  C   UNL     1       3.563   3.481  -0.117  0.00  0.00    +0.304 C 
ATOM      3  O   UNL     1       2.502   4.074  -0.102  0.00  0.00    -0.252 OA
ATOM      4  N   UNL     1       4.718   4.167  -0.226  0.00  0.00    -0.295 N 
ATOM      5  H   UNL     1       4.431   1.668   0.047  0.00  0.00    +0.156 HD
ATOM      6  H   UNL     1       5.564   3.693  -0.238  0.00  0.00    +0.151 HD
ENDROOT
BRANCH   1   9
ATOM      7  C   UNL     1       0.066   1.242  -0.628  0.00  0.00    +0.006 A 
ATOM      8  C   UNL     1       1.251   1.954  -0.622  0.00  0.00    +0.027 A 
ATOM      9  C   UNL     1       2.382   1.414  -0.028  0.00  0.00    +0.080 A 
ATOM     10  C   UNL     1       2.324   0.155   0.564  0.00  0.00    +0.183 A 
ATOM     11  C   UNL     1       1.131  -0.554   0.558  0.00  0.00    +0.164 A 
ATOM     12  C   UNL     1       0.004  -0.007  -0.041  0.00  0.00    +0.049 A 
ATOM     13  O   UNL     1       1.049  -1.784   1.137  0.00  0.00    -0.485 OA
ATOM     14  C   UNL     1       2.285  -2.457   1.396  0.00  0.00    +0.270 C 
ATOM     15  C   UNL     1       3.251  -1.457   2.047  0.00  0.00    +0.270 C 
ATOM     16  O   UNL     1       3.442  -0.365   1.140  0.00  0.00    -0.483 OA
ENDBRANCH   1   9
BRANCH   4  17
ATOM     17  C   UNL     1       4.695   5.628  -0.328  0.00  0.00    +0.141 C 
BRANCH  17  18
ATOM     18  C   UNL     1       6.106   6.146  -0.439  0.00  0.00    -0.030 A 
ATOM     19  C   UNL     1       6.818   6.462   0.702  0.00  0.00    +0.007 A 
ATOM     20  C   UNL     1       8.112   6.937   0.600  0.00  0.00    +0.029 A 
ATOM     21  C   UNL     1       8.694   7.096  -0.644  0.00  0.00    +0.105 A 
ATOM     22  C   UNL     1       7.982   6.779  -1.786  0.00  0.00    +0.029 A 
ATOM     23  C   UNL     1       6.689   6.300  -1.683  0.00  0.00    +0.007 A 
BRANCH  21  24
ATOM     24  S   UNL     1      10.343   7.703  -0.774  0.00  0.00    +0.056 S 
ATOM     25  O   UNL     1      10.463   8.276  -2.069  0.00  0.00    -0.153 OA
ATOM     26  O   UNL     1      10.599   8.441   0.413  0.00  0.00    -0.153 OA
BRANCH  24  27
ATOM     27  N   UNL     1      11.352   6.390  -0.742  0.00  0.00    -0.204 NA
ATOM     28  H   UNL     1      10.982   5.496  -0.662  0.00  0.00    +0.144 HD
ATOM     29  H   UNL     1      12.312   6.514  -0.803  0.00  0.00    +0.144 HD
ENDBRANCH  24  27
ENDBRANCH  21  24
ENDBRANCH  17  18
ENDBRANCH   4  17
TORSDOF 5
