REMARK  Name = ZINC19757941
REMARK  9 active torsions:
REMARK  status: ('A' for Active; 'I' for Inactive)
REMARK    1  A    between atoms: C_1  and  C_2
REMARK    2  A    between atoms: C_2  and  N_3
REMARK    3  A    between atoms: N_3  and  C_4
REMARK    4  A    between atoms: C_4  and  C_5
REMARK    5  A    between atoms: C_6  and  C_8
REMARK    6  A    between atoms: C_8  and  N_9
REMARK    7  A    between atoms: C_11  and  C_20
REMARK    8  A    between atoms: C_11  and  C_21
REMARK    9  A    between atoms: C_16  and  N_19
REMARK                            x       y       z     vdW  Elec       q    Type
REMARK                         _______ _______ _______ _____ _____    ______ ____
ROOT
ATOM      1  N   UNL     1      -0.023   1.456   0.010  0.00  0.00    -0.314 N 
ATOM      2  C   UNL     1      -0.034  -0.012  -0.009  0.00  0.00    +0.153 C 
ATOM      3  C   UNL     1       0.888  -0.493  -1.137  0.00  0.00    +0.121 C 
ATOM      4  O   UNL     1       2.219  -0.068  -0.829  0.00  0.00    -0.483 OA
ATOM      5  C   UNL     1       2.368   1.219  -0.405  0.00  0.00    +0.142 A 
ATOM      6  C   UNL     1       1.277   1.973   0.012  0.00  0.00    +0.074 A 
ATOM      7  C   UNL     1       1.470   3.280   0.444  0.00  0.00    +0.049 A 
ATOM      8  C   UNL     1       2.743   3.830   0.455  0.00  0.00    +0.027 A 
ATOM      9  C   UNL     1       3.829   3.073   0.035  0.00  0.00    +0.026 A 
ATOM     10  C   UNL     1       3.639   1.773  -0.393  0.00  0.00    +0.049 A 
ATOM     11  C   UNL     1       0.840  -2.020  -1.229  0.00  0.00    +0.057 C 
ATOM     12  C   UNL     1       0.443   0.120  -2.466  0.00  0.00    +0.057 C 
ENDROOT
BRANCH   8  13
ATOM     13  N   UNL     1       2.934   5.146   0.890  0.00  0.00    -0.358 N 
ATOM     14  H   UNL     1       3.944   5.582   0.899  0.00  0.00    +0.142 HD
ATOM     15  H   UNL     1       2.074   5.745   1.223  0.00  0.00    +0.142 HD
ENDBRANCH   8  13
BRANCH   1  16
ATOM     16  C   UNL     1      -0.797   1.973   1.147  0.00  0.00    +0.201 C 
BRANCH  16  18
ATOM     17  N   UNL     1      -0.700   1.870   3.616  0.00  0.00    -0.301 N 
ATOM     18  C   UNL     1      -0.112   1.595   2.435  0.00  0.00    +0.233 C 
ATOM     19  O   UNL     1       0.967   1.042   2.408  0.00  0.00    -0.274 OA
BRANCH  17  21
ATOM     20  C   UNL     1      -3.115   1.485   3.631  0.00  0.00    +0.024 C 
ATOM     21  C   UNL     1      -2.004   2.537   3.648  0.00  0.00    +0.104 C 
ENDBRANCH  17  21
BRANCH  17  22
ATOM     22  C   UNL     1      -0.034   1.502   4.868  0.00  0.00    +0.104 C 
ATOM     23  C   UNL     1       0.855   2.658   5.332  0.00  0.00    +0.024 C 
ENDBRANCH  17  22
ENDBRANCH  16  18
ENDBRANCH   1  16
TORSDOF 5
