REMARK  Name = ZINC40308336
REMARK  6 active torsions:
REMARK  status: ('A' for Active; 'I' for Inactive)
REMARK    1  A    between atoms: C_1  and  C_2
REMARK    2  A    between atoms: C_3  and  C_9
REMARK    3  A    between atoms: C_7  and  N_8
REMARK    4  A    between atoms: N_11  and  C_12
REMARK    5  A    between atoms: C_12  and  C_14
REMARK    6  A    between atoms: C_12  and  C_15
REMARK                            x       y       z     vdW  Elec       q    Type
REMARK                         _______ _______ _______ _____ _____    ______ ____
ROOT
ATOM      1  C   UNL     1      -0.184   0.075  -2.485  0.00  0.00    +0.245 C 
ATOM      2  O   UNL     1      -0.147   1.290  -2.507  0.00  0.00    -0.270 OA
ATOM      3  N   UNL     1      -0.385  -0.613  -3.626  0.00  0.00    -0.300 N 
ATOM      4  H   UNL     1      -0.414  -1.583  -3.609  0.00  0.00    +0.150 HD
ENDROOT
BRANCH   1   7
ATOM      5  C   UNL     1      -0.027   1.565  -0.010  0.00  0.00    +0.046 C 
ATOM      6  C   UNL     1       0.068   0.061  -0.007  0.00  0.00    -0.018 A 
ATOM      7  C   UNL     1      -0.009  -0.647  -1.207  0.00  0.00    +0.041 A 
ATOM      8  C   UNL     1       0.080  -2.040  -1.196  0.00  0.00    +0.013 A 
ATOM      9  C   UNL     1       0.243  -2.712  -0.001  0.00  0.00    +0.003 A 
ATOM     10  C   UNL     1       0.318  -2.010   1.187  0.00  0.00    +0.023 A 
ATOM     11  C   UNL     1       0.237  -0.623   1.187  0.00  0.00    +0.028 A 
BRANCH  11  12
ATOM     12  N   UNL     1       0.321   0.083   2.390  0.00  0.00    -0.358 N 
ATOM     13  H   UNL     1       0.260   1.051   2.390  0.00  0.00    +0.142 HD
ATOM     14  H   UNL     1       0.440  -0.396   3.225  0.00  0.00    +0.142 HD
ENDBRANCH  11  12
ENDBRANCH   1   7
BRANCH   3  15
ATOM     15  C   UNL     1      -0.558   0.102  -4.892  0.00  0.00    +0.156 C 
ATOM     16  C   UNL     1      -2.025   0.508  -5.052  0.00  0.00    +0.038 C 
BRANCH  15  17
ATOM     17  C   UNL     1      -0.158  -0.795  -6.035  0.00  0.00    +0.236 C 
ATOM     18  O   UNL     1      -0.065  -1.992  -5.863  0.00  0.00    -0.274 OA
ATOM     19  N   UNL     1       0.097  -0.267  -7.249  0.00  0.00    -0.300 N 
ATOM     20  C   UNL     1       0.106   1.189  -7.445  0.00  0.00    +0.108 C 
ATOM     21  C   UNL     1       1.435   1.591  -8.093  0.00  0.00    +0.019 C 
ATOM     22  C   UNL     1       1.637   0.782  -9.376  0.00  0.00    +0.003 C 
ATOM     23  C   UNL     1       1.696  -0.709  -9.038  0.00  0.00    +0.019 C 
ATOM     24  C   UNL     1       0.376  -1.137  -8.400  0.00  0.00    +0.108 C 
ENDBRANCH  15  17
ENDBRANCH   3  15
TORSDOF 4
