REMARK  Name = ZINC17270863
REMARK  9 active torsions:
REMARK  status: ('A' for Active; 'I' for Inactive)
REMARK    1  A    between atoms: C_1  and  C_2
REMARK    2  A    between atoms: C_2  and  C_4
REMARK    3  A    between atoms: C_2  and  S_17
REMARK    4  A    between atoms: N_6  and  C_7
REMARK    5  A    between atoms: C_10  and  O_13
REMARK    6  A    between atoms: O_13  and  C_14
REMARK    7  A    between atoms: S_17  and  C_18
REMARK    8  A    between atoms: C_21  and  C_26
REMARK    9  A    between atoms: N_22  and  C_23
REMARK                            x       y       z     vdW  Elec       q    Type
REMARK                         _______ _______ _______ _____ _____    ______ ____
ROOT
ATOM      1  C   UNL     1      -0.027   1.791  -0.254  0.00  0.00    +0.029 C 
ATOM      2  C   UNL     1      -0.003   0.263  -0.181  0.00  0.00    +0.137 C 
ENDROOT
BRANCH   2   3
ATOM      3  C   UNL     1       0.760  -0.169   1.045  0.00  0.00    +0.230 C 
ATOM      4  O   UNL     1       1.939  -0.444   0.960  0.00  0.00    -0.274 OA
ATOM      5  N   UNL     1       0.133  -0.251   2.235  0.00  0.00    -0.285 N 
ATOM      6  H   UNL     1      -0.791   0.032   2.317  0.00  0.00    +0.155 HD
BRANCH   5   7
ATOM      7  C   UNL     1       0.816  -0.745   3.354  0.00  0.00    +0.034 A 
ATOM      8  C   UNL     1       0.142  -1.506   4.300  0.00  0.00    +0.027 A 
ATOM      9  C   UNL     1       0.816  -1.993   5.402  0.00  0.00    +0.047 A 
ATOM     10  C   UNL     1       2.166  -1.722   5.565  0.00  0.00    +0.127 A 
ATOM     11  C   UNL     1       2.841  -0.961   4.621  0.00  0.00    +0.047 A 
ATOM     12  C   UNL     1       2.170  -0.479   3.515  0.00  0.00    +0.027 A 
BRANCH  10  13
ATOM     13  O   UNL     1       2.829  -2.201   6.652  0.00  0.00    -0.434 OA
BRANCH  13  14
ATOM     14  C   UNL     1       4.218  -1.883   6.756  0.00  0.00    +0.541 C 
ATOM     15  F   UNL     1       4.898  -2.394   5.645  0.00  0.00    -0.166 F 
ATOM     16  F   UNL     1       4.377  -0.494   6.801  0.00  0.00    -0.166 F 
ENDBRANCH  13  14
ENDBRANCH  10  13
ENDBRANCH   5   7
ENDBRANCH   2   3
BRANCH   2  17
ATOM     17  S   UNL     1       0.806  -0.401  -1.662  0.00  0.00    -0.073 S 
BRANCH  17  18
ATOM     18  C   UNL     1      -0.271   0.059  -2.979  0.00  0.00    +0.193 A 
ATOM     19  N   UNL     1      -1.392   0.734  -2.868  0.00  0.00    -0.122 NA
ATOM     20  N   UNL     1      -1.928   0.896  -4.025  0.00  0.00    -0.128 NA
ATOM     21  C   UNL     1      -1.180   0.332  -4.948  0.00  0.00    +0.172 A 
ATOM     22  N   UNL     1      -0.092  -0.217  -4.306  0.00  0.00    -0.299 N 
BRANCH  21  23
ATOM     23  C   UNL     1      -1.452   0.299  -6.394  0.00  0.00    +0.056 A 
ATOM     24  C   UNL     1      -2.336   1.052  -7.125  0.00  0.00    +0.019 A 
ATOM     25  C   UNL     1      -2.416   0.842  -8.484  0.00  0.00    +0.008 A 
ATOM     26  C   UNL     1      -1.622  -0.099  -9.057  0.00  0.00    +0.046 A 
ATOM     27  S   UNL     1      -0.711  -0.725  -7.655  0.00  0.00    -0.094 S 
ENDBRANCH  21  23
BRANCH  22  28
ATOM     28  C   UNL     1       1.022  -0.945  -4.917  0.00  0.00    +0.091 C 
ATOM     29  C   UNL     1       1.901  -1.794  -3.997  0.00  0.00    +0.027 C 
ATOM     30  C   UNL     1       2.440  -0.485  -4.575  0.00  0.00    +0.027 C 
ENDBRANCH  22  28
ENDBRANCH  17  18
ENDBRANCH   2  17
TORSDOF 8
