REMARK  Name = ZINC20100588
REMARK  14 active torsions:
REMARK  status: ('A' for Active; 'I' for Inactive)
REMARK    1  A    between atoms: C_1  and  C_2
REMARK    2  A    between atoms: C_2  and  C_4
REMARK    3  A    between atoms: C_2  and  O_28
REMARK    4  A    between atoms: C_7  and  S_12
REMARK    5  A    between atoms: N_8  and  C_9
REMARK    6  A    between atoms: C_9  and  C_10
REMARK    7  A    between atoms: C_9  and  C_11
REMARK    8  A    between atoms: S_12  and  C_13
REMARK    9  A    between atoms: C_13  and  C_14
REMARK   10  A    between atoms: N_16  and  C_17
REMARK   11  A    between atoms: C_18  and  C_26
REMARK   12  A    between atoms: O_28  and  C_29
REMARK   13  A    between atoms: C_32  and  O_35
REMARK   14  A    between atoms: O_35  and  C_36
REMARK                            x       y       z     vdW  Elec       q    Type
REMARK                         _______ _______ _______ _____ _____    ______ ____
ROOT
ATOM      1  C   UNL     1      -1.469  -0.319   0.136  0.00  0.00    +0.175 A 
ATOM      2  N   UNL     1      -2.204  -0.124   1.194  0.00  0.00    -0.130 NA
ATOM      3  N   UNL     1      -3.413  -0.496   0.965  0.00  0.00    -0.122 NA
ATOM      4  C   UNL     1      -3.515  -0.952  -0.261  0.00  0.00    +0.192 A 
ATOM      5  N   UNL     1      -2.279  -0.849  -0.831  0.00  0.00    -0.300 N 
ENDROOT
BRANCH   5   6
ATOM      6  C   UNL     1      -1.898  -1.229  -2.193  0.00  0.00    +0.085 C 
ATOM      7  C   UNL     1      -2.166  -2.721  -2.400  0.00  0.00    +0.030 C 
ATOM      8  C   UNL     1      -2.720  -0.419  -3.198  0.00  0.00    +0.030 C 
ENDBRANCH   5   6
BRANCH   1  10
ATOM      9  C   UNL     1       0.195   1.500  -0.138  0.00  0.00    +0.060 C 
ATOM     10  C   UNL     1       0.000  -0.012   0.000  0.00  0.00    +0.238 C 
BRANCH  10  11
ATOM     11  O   UNL     1       0.693  -0.477   1.160  0.00  0.00    -0.481 OA
BRANCH  11  12
ATOM     12  C   UNL     1       2.015  -0.764   1.016  0.00  0.00    +0.122 A 
ATOM     13  C   UNL     1       2.720  -1.330   2.067  0.00  0.00    +0.049 A 
ATOM     14  C   UNL     1       4.062  -1.622   1.921  0.00  0.00    +0.049 A 
ATOM     15  C   UNL     1       4.705  -1.348   0.722  0.00  0.00    +0.120 A 
ATOM     16  C   UNL     1       3.999  -0.783  -0.330  0.00  0.00    +0.049 A 
ATOM     17  C   UNL     1       2.656  -0.495  -0.185  0.00  0.00    +0.049 A 
BRANCH  15  18
ATOM     18  O   UNL     1       6.026  -1.634   0.578  0.00  0.00    -0.495 OA
ATOM     19  C   UNL     1       6.623  -1.326  -0.683  0.00  0.00    +0.277 C 
ENDBRANCH  15  18
ENDBRANCH  11  12
ENDBRANCH  10  11
ENDBRANCH   1  10
BRANCH   4  20
ATOM     20  S   UNL     1      -4.974  -1.574  -1.030  0.00  0.00    -0.077 S 
BRANCH  20  21
ATOM     21  C   UNL     1      -6.245  -1.426   0.257  0.00  0.00    +0.173 C 
BRANCH  21  22
ATOM     22  C   UNL     1      -7.560  -1.931  -0.277  0.00  0.00    +0.228 C 
ATOM     23  O   UNL     1      -7.634  -2.349  -1.413  0.00  0.00    -0.275 OA
ATOM     24  N   UNL     1      -8.655  -1.918   0.509  0.00  0.00    -0.278 N 
ATOM     25  H   UNL     1      -8.597  -1.584   1.417  0.00  0.00    +0.155 HD
BRANCH  24  26
ATOM     26  C   UNL     1      -9.868  -2.383   0.017  0.00  0.00    +0.090 A 
ATOM     27  C   UNL     1     -11.087  -2.440   0.672  0.00  0.00    +0.084 A 
ATOM     28  C   UNL     1     -12.215  -2.973  -0.069  0.00  0.00    -0.018 A 
ATOM     29  C   UNL     1     -11.918  -3.353  -1.331  0.00  0.00    -0.004 A 
ATOM     30  S   UNL     1     -10.194  -2.999  -1.510  0.00  0.00    -0.077 S 
ATOM     31  C   UNL     1     -12.857  -3.939  -2.339  0.00  0.00    +0.043 C 
ATOM     32  C   UNL     1     -14.127  -4.396  -1.606  0.00  0.00    +0.005 C 
ATOM     33  C   UNL     1     -14.600  -3.269  -0.683  0.00  0.00    +0.005 C 
ATOM     34  C   UNL     1     -13.626  -3.110   0.486  0.00  0.00    +0.037 C 
BRANCH  27  35
ATOM     35  C   UNL     1     -11.228  -1.991   2.025  0.00  0.00    +0.102 C 
ATOM     36  N   UNL     1     -11.340  -1.635   3.098  0.00  0.00    -0.191 NA
ENDBRANCH  27  35
ENDBRANCH  24  26
ENDBRANCH  21  22
ENDBRANCH  20  21
ENDBRANCH   4  20
TORSDOF 10
