REMARK  Name = ZINC34114720
REMARK  3 active torsions:
REMARK  status: ('A' for Active; 'I' for Inactive)
REMARK    1  A    between atoms: C_3  and  C_7
REMARK    2  A    between atoms: C_7  and  O_8
REMARK    3  A    between atoms: O_8  and  N_9
REMARK                            x       y       z     vdW  Elec       q    Type
REMARK                         _______ _______ _______ _____ _____    ______ ____
ROOT
ATOM      1  C   UNL     1      -0.019   1.540   0.011  0.00  0.00    +0.031 C 
ATOM      2  C   UNL     1       1.494   1.890  -0.002  0.00  0.00    +0.036 C 
ATOM      3  C   UNL     1       2.056   0.734  -0.867  0.00  0.00    +0.146 C 
ATOM      4  O   UNL     1       1.275  -0.417  -0.510  0.00  0.00    -0.374 OA
ATOM      5  C   UNL     1       0.002  -0.004   0.002  0.00  0.00    +0.160 C 
ENDROOT
BRANCH   3   6
ATOM      6  C   UNL     1       3.533   0.497  -0.543  0.00  0.00    +0.216 C 
BRANCH   6   7
ATOM      7  O   UNL     1       4.063  -0.490  -1.429  0.00  0.00    -0.300 OA
BRANCH   7   8
ATOM      8  N   UNL     1       5.476  -0.794  -1.205  0.00  0.00    -0.215 NA
ATOM      9  H   UNL     1       5.637  -1.081  -0.251  0.00  0.00    +0.150 HD
ATOM     10  H   UNL     1       5.803  -1.494  -1.854  0.00  0.00    +0.150 HD
ENDBRANCH   7   8
ENDBRANCH   6   7
ENDBRANCH   3   6
TORSDOF 3
