REMARK  Name = ZINC43218787
REMARK  9 active torsions:
REMARK  status: ('A' for Active; 'I' for Inactive)
REMARK    1  A    between atoms: C_1  and  C_2
REMARK    2  A    between atoms: C_2  and  C_3
REMARK    3  A    between atoms: C_6  and  N_9
REMARK    4  A    between atoms: C_14  and  C_31
REMARK    5  A    between atoms: C_17  and  C_22
REMARK    6  A    between atoms: C_17  and  C_28
REMARK    7  A    between atoms: C_34  and  C_37
REMARK    8  A    between atoms: C_37  and  O_39
REMARK    9  A    between atoms: O_39  and  C_40
REMARK                            x       y       z     vdW  Elec       q    Type
REMARK                         _______ _______ _______ _____ _____    ______ ____
ROOT
ATOM      1  N   UNL     1       3.207  -1.881   4.438  0.00  0.00    -0.210 N 
ATOM      2  C   UNL     1       4.540  -2.132   4.649  0.00  0.00    +0.229 C 
ATOM      3  O   UNL     1       5.475  -1.792   3.957  0.00  0.00    -0.275 OA
ATOM      4  C   UNL     1       4.582  -2.890   5.875  0.00  0.00    +0.078 C 
ATOM      5  C   UNL     1       5.514  -3.251   6.957  0.00  0.00    -0.026 C 
ATOM      6  N   UNL     1       4.595  -3.884   7.965  0.00  0.00    +0.398 N 
ATOM      7  C   UNL     1       3.216  -3.369   7.714  0.00  0.00    +0.074 C 
ATOM      8  C   UNL     1       3.398  -2.236   6.693  0.00  0.00    +0.090 C 
ATOM      9  C   UNL     1       2.440  -2.142   5.538  0.00  0.00    +0.229 C 
ATOM     10  O   UNL     1       1.235  -2.274   5.576  0.00  0.00    -0.275 OA
ATOM     11  H   UNL     1       4.610  -4.887   7.859  0.00  0.00    -0.083 HD
ATOM     12  H   UNL     1       4.888  -3.634   8.898  0.00  0.00    -0.083 HD
ENDROOT
BRANCH   1  16
ATOM     13  C   UNL     1       1.667  -0.457   0.835  0.00  0.00    -0.048 A 
ATOM     14  C   UNL     1       3.024  -0.689   0.962  0.00  0.00    +0.005 A 
ATOM     15  C   UNL     1       3.537  -1.161   2.154  0.00  0.00    +0.024 A 
ATOM     16  C   UNL     1       2.689  -1.401   3.226  0.00  0.00    +0.044 A 
ATOM     17  C   UNL     1       1.327  -1.167   3.096  0.00  0.00    +0.024 A 
ATOM     18  C   UNL     1       0.820  -0.691   1.903  0.00  0.00    +0.005 A 
BRANCH  13  20
ATOM     19  C   UNL     1       1.118   1.587  -0.456  0.00  0.00    +0.009 C 
ATOM     20  C   UNL     1       1.110   0.058  -0.468  0.00  0.00    +0.032 C 
ENDBRANCH  13  20
ENDBRANCH   1  16
BRANCH   7  21
ATOM     21  C   UNL     1       2.342  -4.466   7.162  0.00  0.00    -0.047 A 
ATOM     22  C   UNL     1       0.984  -4.463   7.420  0.00  0.00    +0.003 A 
ATOM     23  C   UNL     1       0.183  -5.469   6.915  0.00  0.00    +0.000 A 
ATOM     24  C   UNL     1       0.739  -6.478   6.150  0.00  0.00    +0.000 A 
ATOM     25  C   UNL     1       2.097  -6.480   5.891  0.00  0.00    +0.000 A 
ATOM     26  C   UNL     1       2.898  -5.471   6.394  0.00  0.00    +0.003 A 
ENDBRANCH   7  21
BRANCH   5  27
ATOM     27  C   UNL     1       6.544  -4.238   6.473  0.00  0.00    -0.061 A 
ATOM     28  C   UNL     1       6.279  -5.595   6.531  0.00  0.00    +0.003 A 
ATOM     29  C   UNL     1       7.217  -6.504   6.090  0.00  0.00    +0.015 A 
ATOM     30  C   UNL     1       8.438  -6.053   5.583  0.00  0.00    +0.059 A 
ATOM     31  C   UNL     1       8.699  -4.682   5.527  0.00  0.00    +0.015 A 
ATOM     32  C   UNL     1       7.749  -3.784   5.966  0.00  0.00    +0.003 A 
BRANCH  30  33
ATOM     33  C   UNL     1       9.448  -7.021   5.109  0.00  0.00    +0.339 C 
ATOM     34  O   UNL     1       9.218  -8.212   5.159  0.00  0.00    -0.245 OA
BRANCH  33  35
ATOM     35  O   UNL     1      10.624  -6.582   4.620  0.00  0.00    -0.464 OA
ATOM     36  C   UNL     1      11.554  -7.573   4.179  0.00  0.00    +0.280 C 
ENDBRANCH  33  35
ENDBRANCH  30  33
ENDBRANCH   5  27
BRANCH   7  37
ATOM     37  C   UNL     1       2.624  -2.818   8.986  0.00  0.00    +0.350 C 
ATOM     38  O   UNL     1       3.261  -2.866  10.025  0.00  0.00    -0.248 OA
ATOM     39  O   UNL     1       1.509  -2.326   8.976  0.00  0.00    -0.248 OA
ENDBRANCH   7  37
TORSDOF 7
