REMARK  Name = ZINC20756710
REMARK  5 active torsions:
REMARK  status: ('A' for Active; 'I' for Inactive)
REMARK    1  A    between atoms: C_1  and  N_2
REMARK    2  A    between atoms: N_2  and  C_3
REMARK    3  A    between atoms: C_9  and  C_11
REMARK    4  A    between atoms: C_18  and  C_27
REMARK    5  A    between atoms: C_30  and  N_33
REMARK                            x       y       z     vdW  Elec       q    Type
REMARK                         _______ _______ _______ _____ _____    ______ ____
ROOT
ATOM      1  C   UNL     1      -1.971   5.399   5.670  0.00  0.00    +0.058 A 
ATOM      2  C   UNL     1      -3.197   5.293   6.323  0.00  0.00    +0.015 A 
ATOM      3  C   UNL     1      -3.417   5.981   7.496  0.00  0.00    +0.001 A 
ATOM      4  C   UNL     1      -2.417   6.783   8.022  0.00  0.00    +0.006 A 
ATOM      5  C   UNL     1      -1.198   6.897   7.392  0.00  0.00    -0.019 A 
ATOM      6  C   UNL     1      -0.948   6.214   6.198  0.00  0.00    +0.044 A 
ATOM      7  N   UNL     1       0.237   6.295   5.487  0.00  0.00    -0.336 N 
ATOM      8  C   UNL     1       1.322   7.085   6.090  0.00  0.00    +0.105 C 
ATOM      9  C   UNL     1       0.684   8.300   6.732  0.00  0.00    +0.029 C 
ATOM     10  C   UNL     1      -0.109   7.730   7.949  0.00  0.00    +0.049 C 
ATOM     11  C   UNL     1      -0.366   8.935   8.775  0.00  0.00    -0.023 C 
ATOM     12  C   UNL     1       0.608   9.812   8.557  0.00  0.00    -0.030 C 
ATOM     13  C   UNL     1       1.586   9.257   7.518  0.00  0.00    +0.033 C 
ATOM     14  H   UNL     1       0.390   5.803   4.515  0.00  0.00    +0.147 HD
ENDROOT
BRANCH   8  15
ATOM     15  C   UNL     1       2.034   6.266   7.136  0.00  0.00    -0.027 A 
ATOM     16  C   UNL     1       3.343   6.560   7.470  0.00  0.00    +0.008 A 
ATOM     17  C   UNL     1       3.994   5.811   8.433  0.00  0.00    +0.033 A 
ATOM     18  C   UNL     1       3.341   4.763   9.053  0.00  0.00    +0.126 A 
ATOM     19  C   UNL     1       2.034   4.466   8.714  0.00  0.00    +0.033 A 
ATOM     20  C   UNL     1       1.380   5.218   7.756  0.00  0.00    +0.008 A 
BRANCH  18  21
ATOM     21  N   UNL     1       4.040   3.958  10.079  0.00  0.00    +0.056 N 
ATOM     22  O   UNL     1       3.464   3.034  10.626  0.00  0.00    -0.126 OA
ATOM     23  O   UNL     1       5.192   4.220  10.378  0.00  0.00    -0.126 OA
ENDBRANCH  18  21
ENDBRANCH   8  15
BRANCH   1  26
ATOM     24  C   UNL     1      -4.148   4.702   4.021  0.00  0.00    +0.132 C 
ATOM     25  N   UNL     1      -2.790   4.298   3.646  0.00  0.00    -0.297 N 
ATOM     26  C   UNL     1      -1.744   4.660   4.415  0.00  0.00    +0.248 C 
ATOM     27  O   UNL     1      -0.612   4.376   4.073  0.00  0.00    -0.270 OA
BRANCH  25  28
ATOM     28  C   UNL     1      -2.571   3.501   2.437  0.00  0.00    +0.076 C 
ATOM     29  C   UNL     1      -3.331   2.178   2.553  0.00  0.00    +0.022 C 
ATOM     30  C   UNL     1      -3.101   1.345   1.290  0.00  0.00    +0.002 C 
ATOM     31  C   UNL     1      -3.606   2.119   0.070  0.00  0.00    +0.000 C 
ATOM     32  C   UNL     1      -2.846   3.442  -0.045  0.00  0.00    +0.002 C 
ATOM     33  C   UNL     1      -3.075   4.274   1.218  0.00  0.00    +0.022 C 
ENDBRANCH  25  28
ENDBRANCH   1  26
TORSDOF 4
