REMARK  Name = ZINC57945339
REMARK  14 active torsions:
REMARK  status: ('A' for Active; 'I' for Inactive)
REMARK    1  A    between atoms: C_1  and  C_2
REMARK    2  A    between atoms: C_2  and  C_3
REMARK    3  A    between atoms: C_6  and  O_9
REMARK    4  A    between atoms: O_9  and  C_10
REMARK    5  A    between atoms: C_10  and  C_11
REMARK    6  A    between atoms: C_11  and  C_13
REMARK    7  A    between atoms: C_11  and  O_29
REMARK    8  A    between atoms: C_13  and  N_14
REMARK    9  A    between atoms: N_14  and  C_15
REMARK   10  A    between atoms: N_14  and  C_16
REMARK   11  A    between atoms: C_16  and  C_18
REMARK   12  A    between atoms: C_16  and  C_19
REMARK   13  A    between atoms: C_22  and  S_25
REMARK   14  A    between atoms: S_25  and  N_28
REMARK                            x       y       z     vdW  Elec       q    Type
REMARK                         _______ _______ _______ _____ _____    ______ ____
ROOT
ATOM      1  N   UNL     1       6.625  -3.086  -7.114  0.00  0.00    +0.384 N 
ATOM      2  C   UNL     1       6.060  -4.409  -7.412  0.00  0.00    -0.095 C 
ATOM      3  H   UNL     1       6.312  -2.423  -7.807  0.00  0.00    -0.081 HD
ENDROOT
BRANCH   1   4
ATOM      4  C   UNL     1       8.091  -3.163  -7.137  0.00  0.00    -0.041 C 
ATOM      5  C   UNL     1       8.557  -3.616  -8.522  0.00  0.00    -0.008 C 
BRANCH   4   6
ATOM      6  C   UNL     1       8.670  -1.806  -6.831  0.00  0.00    -0.061 A 
ATOM      7  C   UNL     1       8.083  -0.669  -7.356  0.00  0.00    +0.004 A 
ATOM      8  C   UNL     1       8.614   0.576  -7.075  0.00  0.00    +0.029 A 
ATOM      9  C   UNL     1       9.732   0.685  -6.269  0.00  0.00    +0.105 A 
ATOM     10  C   UNL     1      10.319  -0.451  -5.744  0.00  0.00    +0.029 A 
ATOM     11  C   UNL     1       9.785  -1.696  -6.021  0.00  0.00    +0.004 A 
BRANCH   9  12
ATOM     12  S   UNL     1      10.409   2.272  -5.913  0.00  0.00    +0.056 S 
ATOM     13  O   UNL     1      11.776   2.065  -5.582  0.00  0.00    -0.153 OA
ATOM     14  O   UNL     1      10.002   3.133  -6.967  0.00  0.00    -0.153 OA
BRANCH  12  15
ATOM     15  N   UNL     1       9.668   2.823  -4.538  0.00  0.00    -0.204 NA
ATOM     16  H   UNL     1       8.996   2.279  -4.098  0.00  0.00    +0.144 HD
ATOM     17  H   UNL     1       9.905   3.690  -4.174  0.00  0.00    +0.144 HD
ENDBRANCH  12  15
ENDBRANCH   9  12
ENDBRANCH   4   6
ENDBRANCH   1   4
BRANCH   1  18
ATOM     18  C   UNL     1       6.177  -2.652  -5.784  0.00  0.00    -0.043 C 
BRANCH  18  19
ATOM     19  C   UNL     1       4.667  -2.408  -5.808  0.00  0.00    +0.135 C 
BRANCH  19  20
ATOM     20  O   UNL     1       3.987  -3.651  -5.994  0.00  0.00    -0.390 OA
ATOM     21  H   UNL     1       4.160  -4.302  -5.301  0.00  0.00    +0.210 HD
ENDBRANCH  19  20
BRANCH  19  22
ATOM     22  C   UNL     1       4.231  -1.782  -4.482  0.00  0.00    +0.258 C 
BRANCH  22  23
ATOM     23  O   UNL     1       2.843  -1.447  -4.547  0.00  0.00    -0.489 OA
BRANCH  23  27
ATOM     24  C   UNL     1       1.173   0.282  -1.194  0.00  0.00    -0.047 A 
ATOM     25  C   UNL     1       0.394   0.052  -2.313  0.00  0.00    +0.007 A 
ATOM     26  C   UNL     1       0.950  -0.527  -3.437  0.00  0.00    +0.046 A 
ATOM     27  C   UNL     1       2.293  -0.877  -3.443  0.00  0.00    +0.121 A 
ATOM     28  C   UNL     1       3.073  -0.645  -2.319  0.00  0.00    +0.046 A 
ATOM     29  C   UNL     1       2.512  -0.061  -1.200  0.00  0.00    +0.007 A 
BRANCH  24  31
ATOM     30  C   UNL     1       0.690   2.435  -0.063  0.00  0.00    +0.009 C 
ATOM     31  C   UNL     1       0.563   0.913   0.031  0.00  0.00    +0.032 C 
ENDBRANCH  24  31
ENDBRANCH  23  27
ENDBRANCH  22  23
ENDBRANCH  19  22
ENDBRANCH  18  19
ENDBRANCH   1  18
TORSDOF 11
