REMARK  Name = ZINC39521810
REMARK  5 active torsions:
REMARK  status: ('A' for Active; 'I' for Inactive)
REMARK    1  A    between atoms: C_1  and  O_2
REMARK    2  A    between atoms: O_2  and  N_3
REMARK    3  A    between atoms: C_4  and  O_23
REMARK    4  A    between atoms: C_13  and  C_16
REMARK    5  A    between atoms: C_16  and  C_17
REMARK                            x       y       z     vdW  Elec       q    Type
REMARK                         _______ _______ _______ _____ _____    ______ ____
ROOT
ATOM      1  N   UNL     1      -1.326  -0.617   0.011  0.00  0.00    -0.154 NA
ATOM      2  C   UNL     1      -1.499  -1.481   1.187  0.00  0.00    +0.210 C 
ATOM      3  C   UNL     1      -2.942  -1.988   1.241  0.00  0.00    +0.050 C 
ATOM      4  C   UNL     1      -3.252  -2.768  -0.039  0.00  0.00    +0.006 C 
ATOM      5  C   UNL     1      -3.018  -1.861  -1.250  0.00  0.00    +0.025 C 
ATOM      6  C   UNL     1      -1.573  -1.357  -1.233  0.00  0.00    +0.050 C 
ATOM      7  C   UNL     1      -1.343  -0.433  -2.431  0.00  0.00    +0.025 C 
ATOM      8  C   UNL     1       0.102   0.069  -2.418  0.00  0.00    +0.002 C 
ATOM      9  C   UNL     1       1.057  -1.123  -2.503  0.00  0.00    +0.004 C 
ATOM     10  C   UNL     1       0.828  -2.046  -1.305  0.00  0.00    -0.005 C 
ATOM     11  C   UNL     1      -0.617  -2.549  -1.317  0.00  0.00    +0.028 C 
ENDROOT
BRANCH   1  13
ATOM     12  C   UNL     1       0.010   1.372   0.388  0.00  0.00    +0.221 C 
ATOM     13  O   UNL     1       0.002  -0.004   0.002  0.00  0.00    -0.297 OA
ENDBRANCH   1  13
BRANCH   2  14
ATOM     14  O   UNL     1      -1.211  -0.735   2.371  0.00  0.00    -0.375 OA
ATOM     15  H   UNL     1      -1.305  -1.244   3.188  0.00  0.00    +0.212 HD
ENDBRANCH   2  14
BRANCH  10  16
ATOM     16  C   UNL     1       1.783  -3.238  -1.389  0.00  0.00    +0.038 C 
BRANCH  16  17
ATOM     17  C   UNL     1       3.204  -2.754  -1.253  0.00  0.00    -0.047 A 
ATOM     18  C   UNL     1       3.920  -2.389  -2.378  0.00  0.00    +0.003 A 
ATOM     19  C   UNL     1       5.223  -1.945  -2.253  0.00  0.00    +0.000 A 
ATOM     20  C   UNL     1       5.810  -1.865  -1.004  0.00  0.00    +0.000 A 
ATOM     21  C   UNL     1       5.093  -2.229   0.120  0.00  0.00    +0.000 A 
ATOM     22  C   UNL     1       3.789  -2.669  -0.004  0.00  0.00    +0.003 A 
ENDBRANCH  16  17
ENDBRANCH  10  16
TORSDOF 4
