REMARK  Name = ZINC14022329
REMARK  7 active torsions:
REMARK  status: ('A' for Active; 'I' for Inactive)
REMARK    1  A    between atoms: C_1  and  O_2
REMARK    2  A    between atoms: O_2  and  C_3
REMARK    3  A    between atoms: C_6  and  S_9
REMARK    4  A    between atoms: S_9  and  N_12
REMARK    5  A    between atoms: C_16  and  C_19
REMARK    6  A    between atoms: C_30  and  S_31
REMARK    7  A    between atoms: S_31  and  C_32
REMARK                            x       y       z     vdW  Elec       q    Type
REMARK                         _______ _______ _______ _____ _____    ______ ____
ROOT
ATOM      1  N   UNL     1       0.024  -0.502   1.581  0.00  0.00    -0.176 NA
ATOM      2  C   UNL     1       1.298  -0.716   2.281  0.00  0.00    +0.109 C 
ATOM      3  C   UNL     1       1.308  -2.123   2.877  0.00  0.00    +0.018 C 
ATOM      4  C   UNL     1       0.069  -2.312   3.755  0.00  0.00    +0.015 C 
ATOM      5  C   UNL     1      -1.192  -2.156   2.901  0.00  0.00    +0.091 C 
ATOM      6  C   UNL     1      -1.230  -0.745   2.307  0.00  0.00    +0.122 C 
ENDROOT
BRANCH   5   7
ATOM      7  C   UNL     1      -2.411  -2.374   3.759  0.00  0.00    +0.223 C 
ATOM      8  O   UNL     1      -3.230  -1.489   3.885  0.00  0.00    -0.275 OA
ATOM      9  N   UNL     1      -2.590  -3.553   4.388  0.00  0.00    -0.264 N 
ATOM     10  C   UNL     1      -3.712  -3.754   5.177  0.00  0.00    +0.165 A 
ATOM     11  N   UNL     1      -4.060  -4.821   5.856  0.00  0.00    -0.223 NA
ATOM     12  C   UNL     1      -5.191  -4.876   6.593  0.00  0.00    +0.094 A 
ATOM     13  C   UNL     1      -5.987  -3.710   6.580  0.00  0.00    +0.042 A 
ATOM     14  S   UNL     1      -5.055  -2.627   5.524  0.00  0.00    -0.052 S 
ATOM     15  C   UNL     1      -7.169  -3.610   7.275  0.00  0.00    +0.017 A 
ATOM     16  C   UNL     1      -7.617  -4.682   8.025  0.00  0.00    +0.002 A 
ATOM     17  C   UNL     1      -6.865  -5.846   8.064  0.00  0.00    +0.017 A 
ATOM     18  C   UNL     1      -5.679  -5.959   7.372  0.00  0.00    +0.034 A 
ATOM     19  H   UNL     1      -1.935  -4.261   4.287  0.00  0.00    +0.157 HD
BRANCH  18  20
ATOM     20  S   UNL     1      -4.759  -7.459   7.454  0.00  0.00    -0.126 S 
ATOM     21  C   UNL     1      -5.749  -8.523   8.539  0.00  0.00    +0.090 C 
ENDBRANCH  18  20
ENDBRANCH   5   7
BRANCH   1  22
ATOM     22  S   UNL     1       0.002  -0.004   0.002  0.00  0.00    +0.061 S 
ATOM     23  O   UNL     1      -1.243  -0.424  -0.539  0.00  0.00    -0.153 OA
ATOM     24  O   UNL     1       1.248  -0.390  -0.563  0.00  0.00    -0.153 OA
BRANCH  22  28
ATOM     25  C   UNL     1      -0.059   4.524   0.026  0.00  0.00    +0.120 A 
ATOM     26  C   UNL     1       1.151   3.845   0.011  0.00  0.00    +0.047 A 
ATOM     27  C   UNL     1       1.167   2.464   0.004  0.00  0.00    +0.032 A 
ATOM     28  C   UNL     1      -0.022   1.758   0.012  0.00  0.00    +0.106 A 
ATOM     29  C   UNL     1      -1.229   2.432   0.021  0.00  0.00    +0.032 A 
ATOM     30  C   UNL     1      -1.250   3.813   0.035  0.00  0.00    +0.047 A 
BRANCH  25  32
ATOM     31  C   UNL     1      -1.360   6.514   0.049  0.00  0.00    +0.277 C 
ATOM     32  O   UNL     1      -0.078   5.883   0.033  0.00  0.00    -0.495 OA
ENDBRANCH  25  32
ENDBRANCH  22  28
ENDBRANCH   1  22
TORSDOF 5
