REMARK  Name = ZINC38747520
REMARK  8 active torsions:
REMARK  status: ('A' for Active; 'I' for Inactive)
REMARK    1  A    between atoms: C_1  and  C_2
REMARK    2  A    between atoms: C_4  and  C_26
REMARK    3  A    between atoms: C_6  and  N_8
REMARK    4  A    between atoms: C_9  and  C_11
REMARK    5  A    between atoms: C_11  and  S_12
REMARK    6  A    between atoms: S_12  and  C_13
REMARK    7  A    between atoms: C_18  and  C_25
REMARK    8  A    between atoms: C_19  and  C_24
REMARK                            x       y       z     vdW  Elec       q    Type
REMARK                         _______ _______ _______ _____ _____    ______ ____
ROOT
ATOM      1  C   UNL     1       0.280  -2.900   4.854  0.00  0.00    +0.173 C 
ENDROOT
BRANCH   1   3
ATOM      2  N   UNL     1       0.052  -2.797   2.393  0.00  0.00    -0.285 N 
ATOM      3  C   UNL     1       0.150  -2.134   3.562  0.00  0.00    +0.227 C 
ATOM      4  O   UNL     1       0.134  -0.922   3.575  0.00  0.00    -0.275 OA
ATOM      5  H   UNL     1      -0.012  -3.765   2.388  0.00  0.00    +0.155 HD
BRANCH   2  11
ATOM      6  C   UNL     1      -1.512  -2.365  -2.248  0.00  0.00    +0.044 C 
ATOM      7  C   UNL     1      -0.707  -1.857  -1.080  0.00  0.00    -0.048 A 
ATOM      8  C   UNL     1       0.025  -0.690  -1.201  0.00  0.00    +0.006 A 
ATOM      9  C   UNL     1       0.765  -0.220  -0.131  0.00  0.00    -0.048 A 
ATOM     10  C   UNL     1       0.776  -0.917   1.061  0.00  0.00    +0.026 A 
ATOM     11  C   UNL     1       0.043  -2.089   1.186  0.00  0.00    +0.034 A 
ATOM     12  C   UNL     1      -0.704  -2.555   0.112  0.00  0.00    +0.026 A 
ATOM     13  C   UNL     1       1.561   1.052  -0.268  0.00  0.00    +0.044 C 
ENDBRANCH   2  11
ENDBRANCH   1   3
BRANCH   1  14
ATOM     14  S   UNL     1       0.391  -1.734   6.239  0.00  0.00    -0.079 S 
BRANCH  14  15
ATOM     15  C   UNL     1       0.536  -2.770   7.657  0.00  0.00    +0.182 C 
ATOM     16  N   UNL     1       0.544  -4.080   7.481  0.00  0.00    -0.151 NA
ATOM     17  C   UNL     1       0.651  -4.942   8.492  0.00  0.00    +0.272 C 
ATOM     18  O   UNL     1       0.655  -6.146   8.293  0.00  0.00    -0.268 OA
ATOM     19  C   UNL     1       0.765  -4.388   9.880  0.00  0.00    +0.071 C 
ATOM     20  C   UNL     1       0.881  -5.060  11.032  0.00  0.00    -0.045 C 
ATOM     21  C   UNL     1       0.981  -4.258  12.309  0.00  0.00    +0.076 C 
ATOM     22  S   UNL     1       0.893  -2.534  11.675  0.00  0.00    -0.098 S 
ATOM     23  C   UNL     1       0.744  -2.909   9.946  0.00  0.00    +0.112 C 
ATOM     24  N   UNL     1       0.638  -2.195   8.856  0.00  0.00    -0.217 NA
ATOM     25  C   UNL     1       2.315  -4.515  13.015  0.00  0.00    +0.024 C 
ATOM     26  C   UNL     1       0.910  -6.566  11.055  0.00  0.00    +0.041 C 
ENDBRANCH  14  15
ENDBRANCH   1  14
TORSDOF 4
