REMARK  Name = ZINC51147992
REMARK  6 active torsions:
REMARK  status: ('A' for Active; 'I' for Inactive)
REMARK    1  A    between atoms: C_4  and  O_8
REMARK    2  A    between atoms: O_8  and  C_9
REMARK    3  A    between atoms: C_9  and  C_10
REMARK    4  A    between atoms: C_12  and  N_18
REMARK    5  A    between atoms: C_15  and  N_16
REMARK    6  A    between atoms: N_16  and  N_17
REMARK                            x       y       z     vdW  Elec       q    Type
REMARK                         _______ _______ _______ _____ _____    ______ ____
ROOT
ATOM      1  C   UNL     1       5.469  -1.682   1.015  0.00  0.00    +0.014 A 
ATOM      2  C   UNL     1       5.921  -1.928  -0.267  0.00  0.00    +0.041 A 
ATOM      3  C   UNL     1       7.116  -2.595  -0.464  0.00  0.00    +0.127 A 
ATOM      4  C   UNL     1       7.863  -3.018   0.620  0.00  0.00    +0.034 A 
ATOM      5  C   UNL     1       7.417  -2.775   1.905  0.00  0.00    +0.027 A 
ATOM      6  C   UNL     1       6.220  -2.101   2.107  0.00  0.00    +0.047 A 
ENDROOT
BRANCH   3   7
ATOM      7  N   UNL     1       7.597  -2.857  -1.839  0.00  0.00    +0.056 N 
ATOM      8  O   UNL     1       6.945  -2.488  -2.788  0.00  0.00    -0.126 OA
ATOM      9  O   UNL     1       8.642  -3.439  -2.013  0.00  0.00    -0.126 OA
ENDBRANCH   3   7
BRANCH   6  10
ATOM     10  N   UNL     1       5.769  -1.849   3.404  0.00  0.00    -0.283 N 
ATOM     11  H   UNL     1       4.930  -1.381   3.544  0.00  0.00    +0.166 HD
BRANCH  10  12
ATOM     12  N   UNL     1       6.508  -2.261   4.476  0.00  0.00    -0.257 NA
ATOM     13  H   UNL     1       7.445  -1.889   4.434  0.00  0.00    +0.140 HD
ATOM     14  H   UNL     1       6.058  -2.010   5.344  0.00  0.00    +0.140 HD
ENDBRANCH  10  12
ENDBRANCH   6  10
BRANCH   1  15
ATOM     15  C   UNL     1       4.167  -0.955   1.230  0.00  0.00    +0.266 C 
BRANCH  15  16
ATOM     16  O   UNL     1       3.587  -0.632  -0.036  0.00  0.00    -0.484 OA
BRANCH  16  20
ATOM     17  C   UNL     1      -0.017   1.378   0.010  0.00  0.00    +0.003 A 
ATOM     18  C   UNL     1       1.170   2.088   0.002  0.00  0.00    +0.024 A 
ATOM     19  C   UNL     1       2.378   1.418  -0.013  0.00  0.00    +0.084 A 
ATOM     20  C   UNL     1       2.400   0.030  -0.021  0.00  0.00    +0.157 A 
ATOM     21  C   UNL     1       1.208  -0.680  -0.013  0.00  0.00    +0.084 A 
ATOM     22  C   UNL     1       0.002  -0.004   0.002  0.00  0.00    +0.024 A 
ATOM     23 CL   UNL     1       1.230  -2.416  -0.023  0.00  0.00    -0.080 Cl
ATOM     24 CL   UNL     1       3.867   2.310  -0.023  0.00  0.00    -0.080 Cl
ENDBRANCH  16  20
ENDBRANCH  15  16
ENDBRANCH   1  15
TORSDOF 6
