REMARK  Name = ZINC23192641
REMARK  12 active torsions:
REMARK  status: ('A' for Active; 'I' for Inactive)
REMARK    1  A    between atoms: C_1  and  C_2
REMARK    2  A    between atoms: C_2  and  C_3
REMARK    3  A    between atoms: C_2  and  C_4
REMARK    4  A    between atoms: C_2  and  C_5
REMARK    5  A    between atoms: N_13  and  C_17
REMARK    6  A    between atoms: C_17  and  C_18
REMARK    7  A    between atoms: N_20  and  C_21
REMARK    8  A    between atoms: C_21  and  C_22
REMARK    9  A    between atoms: C_22  and  C_24
REMARK   10  A    between atoms: C_22  and  N_31
REMARK   11  A    between atoms: N_31  and  C_32
REMARK   12  A    between atoms: N_31  and  C_33
REMARK                            x       y       z     vdW  Elec       q    Type
REMARK                         _______ _______ _______ _____ _____    ______ ____
ROOT
ATOM      1  C   UNL     1      -1.056  -1.754   0.581  0.00  0.00    +0.213 C 
ENDROOT
BRANCH   1  10
ATOM      2  C   UNL     1       3.354   2.389   0.865  0.00  0.00    -0.005 C 
ATOM      3  C   UNL     1       2.907   1.662  -0.405  0.00  0.00    +0.006 C 
ATOM      4  C   UNL     1       3.143   0.158  -0.240  0.00  0.00    +0.035 C 
ATOM      5  C   UNL     1       2.356  -0.352   0.962  0.00  0.00    +0.113 C 
ATOM      6  C   UNL     1       2.776   0.379   2.232  0.00  0.00    +0.035 C 
ATOM      7  C   UNL     1       2.542   1.881   2.058  0.00  0.00    +0.006 C 
ATOM      8  C   UNL     1       0.872  -0.190   0.727  0.00  0.00    +0.247 C 
ATOM      9  O   UNL     1       0.267   0.845   0.540  0.00  0.00    -0.273 OA
ATOM     10  N   UNL     1       0.362  -1.438   0.762  0.00  0.00    -0.215 N 
ATOM     11  C   UNL     1       1.314  -2.353   0.985  0.00  0.00    +0.310 C 
ATOM     12  O   UNL     1       1.100  -3.547   1.061  0.00  0.00    -0.252 OA
ATOM     13  N   UNL     1       2.536  -1.801   1.117  0.00  0.00    -0.285 N 
ATOM     14  H   UNL     1       3.538  -2.214   1.303  0.00  0.00    +0.151 HD
BRANCH   2  16
ATOM     15  C   UNL     1       1.643   4.162   0.452  0.00  0.00    +0.011 C 
ATOM     16  C   UNL     1       3.129   3.893   0.698  0.00  0.00    -0.035 C 
ATOM     17  C   UNL     1       3.576   4.620   1.967  0.00  0.00    +0.011 C 
ATOM     18  C   UNL     1       3.943   4.401  -0.494  0.00  0.00    +0.011 C 
ENDBRANCH   2  16
ENDBRANCH   1  10
BRANCH   1  19
ATOM     19  C   UNL     1      -1.336  -1.987  -0.882  0.00  0.00    +0.231 C 
ATOM     20  O   UNL     1      -0.438  -1.898  -1.692  0.00  0.00    -0.274 OA
ATOM     21  N   UNL     1      -2.583  -2.295  -1.289  0.00  0.00    -0.315 N 
ATOM     22  H   UNL     1      -3.397  -2.376  -0.554  0.00  0.00    +0.149 HD
BRANCH  21  23
ATOM     23  C   UNL     1      -2.855  -2.521  -2.711  0.00  0.00    +0.093 C 
BRANCH  23  24
ATOM     24  C   UNL     1      -4.337  -2.851  -2.901  0.00  0.00    -0.020 C 
BRANCH  24  25
ATOM     25  C   UNL     1      -4.592  -3.204  -4.343  0.00  0.00    -0.041 A 
ATOM     26  C   UNL     1      -3.580  -3.750  -5.111  0.00  0.00    +0.003 A 
ATOM     27  C   UNL     1      -3.815  -4.078  -6.433  0.00  0.00    +0.000 A 
ATOM     28  C   UNL     1      -5.059  -3.851  -6.991  0.00  0.00    +0.001 A 
ATOM     29  C   UNL     1      -6.070  -3.300  -6.227  0.00  0.00    +0.020 A 
ATOM     30  C   UNL     1      -5.837  -2.976  -4.902  0.00  0.00    +0.043 A 
ATOM     31 CL   UNL     1      -7.106  -2.284  -3.941  0.00  0.00    -0.083 Cl
ENDBRANCH  24  25
BRANCH  24  32
ATOM     32  N   UNL     1      -4.698  -3.990  -2.047  0.00  0.00    +0.382 N 
ATOM     33  C   UNL     1      -6.153  -4.189  -2.022  0.00  0.00    -0.096 C 
ATOM     34  C   UNL     1      -4.007  -5.213  -2.479  0.00  0.00    -0.096 C 
ATOM     35  H   UNL     1      -4.371  -3.761  -1.022  0.00  0.00    -0.082 HD
ENDBRANCH  24  32
ENDBRANCH  23  24
ENDBRANCH  21  23
ENDBRANCH   1  19
TORSDOF 7
