REMARK  Name = ZINC39127702
REMARK  9 active torsions:
REMARK  status: ('A' for Active; 'I' for Inactive)
REMARK    1  A    between atoms: C_1  and  C_2
REMARK    2  A    between atoms: C_3  and  C_26
REMARK    3  A    between atoms: C_4  and  O_25
REMARK    4  A    between atoms: C_5  and  C_24
REMARK    5  A    between atoms: N_11  and  C_12
REMARK    6  A    between atoms: C_12  and  C_13
REMARK    7  A    between atoms: C_16  and  N_19
REMARK    8  A    between atoms: N_19  and  S_20
REMARK    9  A    between atoms: S_20  and  C_23
REMARK                            x       y       z     vdW  Elec       q    Type
REMARK                         _______ _______ _______ _____ _____    ______ ____
ROOT
ATOM      1  C   UNL     1       0.607   0.826  -0.482  0.00  0.00    +0.046 C 
ATOM      2  C   UNL     1       0.539  -0.675  -0.362  0.00  0.00    -0.018 A 
ATOM      3  C   UNL     1       0.317  -1.435  -1.481  0.00  0.00    -0.004 A 
ATOM      4  C   UNL     1       0.247  -2.822  -1.414  0.00  0.00    +0.124 A 
ATOM      5  C   UNL     1       0.406  -3.450  -0.186  0.00  0.00    +0.007 A 
ATOM      6  C   UNL     1       0.628  -2.693   0.936  0.00  0.00    +0.047 A 
ATOM      7  C   UNL     1       0.710  -1.282   0.903  0.00  0.00    +0.084 A 
ATOM      8  N   UNL     1       0.939  -0.681   2.093  0.00  0.00    -0.225 NA
ATOM      9  C   UNL     1       1.081  -1.358   3.209  0.00  0.00    +0.159 A 
ATOM     10  S   UNL     1       0.882  -3.046   2.659  0.00  0.00    -0.052 S 
ATOM     11  N   UNL     1       1.318  -0.884   4.484  0.00  0.00    -0.319 N 
ATOM     12  C   UNL     1       0.334  -4.952  -0.087  0.00  0.00    +0.049 C 
ATOM     13  C   UNL     1       0.145  -0.752  -2.813  0.00  0.00    +0.048 C 
ATOM     14  H   UNL     1       1.399   0.070   4.640  0.00  0.00    +0.148 HD
ENDROOT
BRANCH   4  15
ATOM     15  O   UNL     1       0.025  -3.555  -2.538  0.00  0.00    -0.506 OA
ATOM     16  H   UNL     1       0.832  -3.818  -3.002  0.00  0.00    +0.292 HD
ENDBRANCH   4  15
BRANCH  11  17
ATOM     17  C   UNL     1       1.445  -1.823   5.602  0.00  0.00    +0.138 C 
BRANCH  17  18
ATOM     18  C   UNL     1       1.698  -1.057   6.875  0.00  0.00    -0.030 A 
ATOM     19  C   UNL     1       2.994  -0.771   7.262  0.00  0.00    +0.007 A 
ATOM     20  C   UNL     1       3.230  -0.069   8.428  0.00  0.00    +0.025 A 
ATOM     21  C   UNL     1       2.162   0.349   9.212  0.00  0.00    +0.048 A 
ATOM     22  C   UNL     1       0.861   0.060   8.820  0.00  0.00    +0.025 A 
ATOM     23  C   UNL     1       0.633  -0.637   7.650  0.00  0.00    +0.007 A 
BRANCH  21  24
ATOM     24  N   UNL     1       2.397   1.059  10.392  0.00  0.00    -0.221 N 
ATOM     25  H   UNL     1       2.291   0.620  11.251  0.00  0.00    +0.173 HD
BRANCH  24  26
ATOM     26  S   UNL     1       2.854   2.649  10.325  0.00  0.00    +0.040 S 
ATOM     27  O   UNL     1       3.028   3.034  11.682  0.00  0.00    -0.155 OA
ATOM     28  O   UNL     1       3.949   2.674   9.419  0.00  0.00    -0.155 OA
ATOM     29  C   UNL     1       1.430   3.514   9.608  0.00  0.00    +0.218 C 
ENDBRANCH  24  26
ENDBRANCH  21  24
ENDBRANCH  17  18
ENDBRANCH  11  17
TORSDOF 5
