REMARK  Name = ZINC59133691
REMARK  5 active torsions:
REMARK  status: ('A' for Active; 'I' for Inactive)
REMARK    1  A    between atoms: C_3  and  N_20
REMARK    2  A    between atoms: C_6  and  C_7
REMARK    3  A    between atoms: C_10  and  S_12
REMARK    4  A    between atoms: S_12  and  C_13
REMARK    5  A    between atoms: C_13  and  C_14
REMARK                            x       y       z     vdW  Elec       q    Type
REMARK                         _______ _______ _______ _____ _____    ______ ____
ROOT
ATOM      1  C   UNL     1      -1.265  -0.763   0.011  0.00  0.00    +0.249 A 
ATOM      2  N   UNL     1      -2.474  -0.256   0.019  0.00  0.00    -0.106 NA
ATOM      3  N   UNL     1      -3.338  -1.209   0.025  0.00  0.00    -0.101 NA
ATOM      4  C   UNL     1      -2.714  -2.365   0.020  0.00  0.00    +0.278 A 
ATOM      5  O   UNL     1      -1.392  -2.109   0.005  0.00  0.00    -0.411 OA
ENDROOT
BRANCH   1  11
ATOM      6  C   UNL     1      -0.017   1.392   0.010  0.00  0.00    +0.015 A 
ATOM      7  C   UNL     1       1.170   2.095   0.002  0.00  0.00    +0.033 A 
ATOM      8  C   UNL     1       2.378   1.419  -0.013  0.00  0.00    +0.126 A 
ATOM      9  C   UNL     1       2.404   0.036  -0.022  0.00  0.00    +0.033 A 
ATOM     10  C   UNL     1       1.224  -0.679  -0.014  0.00  0.00    +0.015 A 
ATOM     11  C   UNL     1       0.002  -0.004   0.002  0.00  0.00    +0.039 A 
BRANCH   8  12
ATOM     12  N   UNL     1       3.648   2.180  -0.022  0.00  0.00    +0.056 N 
ATOM     13  O   UNL     1       3.628   3.389  -0.015  0.00  0.00    -0.126 OA
ATOM     14  O   UNL     1       4.704   1.593  -0.036  0.00  0.00    -0.126 OA
ENDBRANCH   8  12
ENDBRANCH   1  11
BRANCH   4  15
ATOM     15  S   UNL     1      -3.468  -3.957   0.024  0.00  0.00    -0.065 S 
BRANCH  15  16
ATOM     16  C   UNL     1      -5.247  -3.600   0.036  0.00  0.00    +0.085 C 
BRANCH  16  17
ATOM     17  C   UNL     1      -6.030  -4.914   0.041  0.00  0.00    +0.038 C 
ATOM     18  C   UNL     1      -6.900  -5.214   1.264  0.00  0.00    +0.046 C 
ATOM     19  C   UNL     1      -7.554  -4.828  -0.065  0.00  0.00    +0.122 C 
ATOM     20 CL   UNL     1      -8.289  -3.186  -0.185  0.00  0.00    -0.101 Cl
ATOM     21 CL   UNL     1      -8.400  -6.128  -0.985  0.00  0.00    -0.101 Cl
ENDBRANCH  16  17
ENDBRANCH  15  16
ENDBRANCH   4  15
TORSDOF 5
