REMARK  Name = ZINC12624029
REMARK  6 active torsions:
REMARK  status: ('A' for Active; 'I' for Inactive)
REMARK    1  A    between atoms: C_1  and  C_2
REMARK    2  A    between atoms: C_3  and  C_14
REMARK    3  A    between atoms: N_5  and  C_7
REMARK    4  A    between atoms: C_14  and  N_15
REMARK    5  A    between atoms: C_18  and  C_22
REMARK    6  A    between atoms: C_18  and  C_23
REMARK                            x       y       z     vdW  Elec       q    Type
REMARK                         _______ _______ _______ _____ _____    ______ ____
ROOT
ATOM      1  N   UNL     1      -3.943   0.944  -1.762  0.00  0.00    -0.219 N 
ATOM      2  C   UNL     1      -3.591   1.737  -0.726  0.00  0.00    +0.251 C 
ATOM      3  O   UNL     1      -4.039   2.829  -0.450  0.00  0.00    -0.272 OA
ATOM      4  C   UNL     1      -2.513   0.975   0.019  0.00  0.00    +0.135 C 
ATOM      5  N   UNL     1      -2.372  -0.274  -0.750  0.00  0.00    -0.281 N 
ATOM      6  C   UNL     1      -3.247  -0.199  -1.769  0.00  0.00    +0.310 C 
ATOM      7  O   UNL     1      -3.390  -1.071  -2.603  0.00  0.00    -0.252 OA
ATOM      8  C   UNL     1      -2.958   0.677   1.452  0.00  0.00    +0.047 C 
ATOM      9  H   UNL     1      -1.766  -1.007  -0.559  0.00  0.00    +0.152 HD
ENDROOT
BRANCH   4  10
ATOM     10  C   UNL     1      -1.219   1.748   0.017  0.00  0.00    -0.015 A 
ATOM     11  C   UNL     1      -1.239   3.130   0.030  0.00  0.00    +0.006 A 
ATOM     12  C   UNL     1      -0.052   3.836   0.022  0.00  0.00    +0.004 A 
ATOM     13  C   UNL     1       1.159   3.164   0.008  0.00  0.00    -0.044 A 
ATOM     14  C   UNL     1       1.179   1.782   0.000  0.00  0.00    -0.044 A 
ATOM     15  C   UNL     1      -0.013   1.076   0.008  0.00  0.00    +0.010 A 
ATOM     16  C   UNL     1       2.610   1.291  -0.016  0.00  0.00    +0.036 C 
ATOM     17  C   UNL     1       3.450   2.509  -0.459  0.00  0.00    +0.009 C 
ATOM     18  C   UNL     1       2.576   3.696  -0.004  0.00  0.00    +0.036 C 
ENDBRANCH   4  10
BRANCH   1  19
ATOM     19  C   UNL     1      -4.965   1.292  -2.753  0.00  0.00    +0.158 C 
BRANCH  19  22
ATOM     20  C   UNL     1      -6.230  -1.544  -3.378  0.00  0.00    +0.068 C 
ATOM     21  C   UNL     1      -6.869  -0.453  -2.558  0.00  0.00    +0.067 A 
ATOM     22  C   UNL     1      -6.309   0.799  -2.282  0.00  0.00    +0.030 A 
ATOM     23  C   UNL     1      -7.191   1.494  -1.524  0.00  0.00    +0.138 A 
ATOM     24  N   UNL     1      -8.273   0.699  -1.321  0.00  0.00    -0.221 N 
ATOM     25  N   UNL     1      -8.041  -0.516  -1.978  0.00  0.00    -0.170 NA
ATOM     26 CL   UNL     1      -6.976   3.107  -0.920  0.00  0.00    -0.062 Cl
BRANCH  24  27
ATOM     27  C   UNL     1      -9.419   1.034  -0.587  0.00  0.00    +0.067 A 
ATOM     28  C   UNL     1      -9.310   1.829   0.547  0.00  0.00    +0.028 A 
ATOM     29  C   UNL     1     -10.441   2.162   1.266  0.00  0.00    +0.002 A 
ATOM     30  C   UNL     1     -11.680   1.697   0.864  0.00  0.00    +0.000 A 
ATOM     31  C   UNL     1     -11.791   0.901  -0.261  0.00  0.00    +0.002 A 
ATOM     32  C   UNL     1     -10.664   0.569  -0.988  0.00  0.00    +0.028 A 
ENDBRANCH  24  27
ENDBRANCH  19  22
ENDBRANCH   1  19
TORSDOF 4
