REMARK  Name = ZINC38885803
REMARK  10 active torsions:
REMARK  status: ('A' for Active; 'I' for Inactive)
REMARK    1  A    between atoms: C_1  and  C_2
REMARK    2  A    between atoms: C_2  and  C_3
REMARK    3  A    between atoms: C_3  and  C_5
REMARK    4  A    between atoms: C_3  and  C_12
REMARK    5  A    between atoms: C_5  and  C_6
REMARK    6  A    between atoms: C_12  and  N_13
REMARK    7  A    between atoms: C_14  and  C_16
REMARK    8  A    between atoms: N_21  and  C_23
REMARK    9  A    between atoms: C_23  and  C_24
REMARK   10  A    between atoms: C_26  and  C_29
REMARK                            x       y       z     vdW  Elec       q    Type
REMARK                         _______ _______ _______ _____ _____    ______ ____
ROOT
ATOM      1  C   UNL     1      -2.988  -3.759  -1.972  0.00  0.00    +0.058 C 
ATOM      2  C   UNL     1      -3.572  -2.963  -3.142  0.00  0.00    +0.009 C 
ATOM      3  C   UNL     1      -5.058  -3.304  -3.288  0.00  0.00    -0.018 C 
ATOM      4  C   UNL     1      -5.212  -4.814  -3.479  0.00  0.00    -0.078 C 
ATOM      5  N   UNL     1      -4.659  -5.518  -2.316  0.00  0.00    +0.386 N 
ATOM      6  C   UNL     1      -3.219  -5.253  -2.211  0.00  0.00    -0.065 C 
ATOM      7  H   UNL     1      -5.121  -5.196  -1.479  0.00  0.00    -0.081 HD
ENDROOT
BRANCH   1   9
ATOM      8  N   UNL     1      -1.067  -2.233  -1.658  0.00  0.00    -0.315 N 
ATOM      9  C   UNL     1      -1.509  -3.489  -1.867  0.00  0.00    +0.214 C 
ATOM     10  O   UNL     1      -0.717  -4.402  -1.973  0.00  0.00    -0.276 OA
ATOM     11  H   UNL     1      -1.700  -1.504  -1.574  0.00  0.00    +0.149 HD
BRANCH   8  12
ATOM     12  C   UNL     1       0.371  -1.971  -1.557  0.00  0.00    +0.108 C 
BRANCH  12  13
ATOM     13  C   UNL     1       0.602  -0.477  -1.320  0.00  0.00    +0.010 C 
BRANCH  13  15
ATOM     14  C   UNL     1       0.121   1.436   0.214  0.00  0.00    +0.004 C 
ATOM     15  C   UNL     1       0.021  -0.081   0.039  0.00  0.00    +0.002 C 
ENDBRANCH  13  15
BRANCH  13  16
ATOM     16  C   UNL     1       2.103  -0.183  -1.338  0.00  0.00    +0.040 C 
BRANCH  16  17
ATOM     17  C   UNL     1       2.648  -0.443  -2.719  0.00  0.00    -0.047 A 
ATOM     18  C   UNL     1       3.231  -1.661  -3.014  0.00  0.00    +0.003 A 
ATOM     19  C   UNL     1       3.732  -1.899  -4.280  0.00  0.00    +0.000 A 
ATOM     20  C   UNL     1       3.649  -0.919  -5.252  0.00  0.00    +0.000 A 
ATOM     21  C   UNL     1       3.066   0.299  -4.957  0.00  0.00    +0.000 A 
ATOM     22  C   UNL     1       2.561   0.535  -3.692  0.00  0.00    +0.003 A 
ENDBRANCH  16  17
ENDBRANCH  13  16
ENDBRANCH  12  13
ENDBRANCH   8  12
ENDBRANCH   1   9
BRANCH   5  23
ATOM     23  C   UNL     1      -4.879  -6.962  -2.469  0.00  0.00    +0.022 C 
BRANCH  23  24
ATOM     24  C   UNL     1      -6.358  -7.250  -2.443  0.00  0.00    +0.211 A 
ATOM     25  N   UNL     1      -7.145  -7.284  -3.481  0.00  0.00    -0.193 NA
ATOM     26  C   UNL     1      -8.402  -7.570  -3.096  0.00  0.00    +0.202 A 
ATOM     27  N   UNL     1      -8.418  -7.722  -1.795  0.00  0.00    -0.056 NA
ATOM     28  O   UNL     1      -7.084  -7.521  -1.351  0.00  0.00    -0.340 OA
BRANCH  26  29
ATOM     29  C   UNL     1      -9.576  -7.693  -3.997  0.00  0.00    +0.022 A 
ATOM     30  C   UNL     1      -9.425  -7.512  -5.370  0.00  0.00    +0.012 A 
ATOM     31  C   UNL     1     -10.520  -7.628  -6.202  0.00  0.00    +0.001 A 
ATOM     32  C   UNL     1     -11.765  -7.922  -5.676  0.00  0.00    +0.000 A 
ATOM     33  C   UNL     1     -11.920  -8.102  -4.313  0.00  0.00    +0.001 A 
ATOM     34  C   UNL     1     -10.831  -7.995  -3.472  0.00  0.00    +0.012 A 
ENDBRANCH  26  29
ENDBRANCH  23  24
ENDBRANCH   5  23
TORSDOF 9
