REMARK  Name = ZINC14466004
REMARK  2 active torsions:
REMARK  status: ('A' for Active; 'I' for Inactive)
REMARK    1  A    between atoms: C_5  and  C_7
REMARK    2  A    between atoms: C_17  and  N_24
REMARK                            x       y       z     vdW  Elec       q    Type
REMARK                         _______ _______ _______ _____ _____    ______ ____
ROOT
ATOM      1  C   UNL     1      -3.097   3.722   0.715  0.00  0.00    +0.106 C 
ATOM      2  C   UNL     1      -3.536   3.715  -0.735  0.00  0.00    +0.029 C 
ATOM      3  C   UNL     1      -4.048   2.396  -1.325  0.00  0.00    +0.033 C 
ATOM      4  C   UNL     1      -5.048   2.918  -2.380  0.00  0.00    -0.030 C 
ATOM      5  C   UNL     1      -5.485   4.127  -2.045  0.00  0.00    -0.023 C 
ATOM      6  C   UNL     1      -4.884   4.502  -0.742  0.00  0.00    +0.051 C 
ATOM      7  C   UNL     1      -4.562   5.901  -0.385  0.00  0.00    +0.014 A 
ATOM      8  C   UNL     1      -5.269   6.964  -0.906  0.00  0.00    +0.132 A 
ATOM      9  C   UNL     1      -4.956   8.260  -0.544  0.00  0.00    +0.036 A 
ATOM     10  C   UNL     1      -3.926   8.491   0.349  0.00  0.00    +0.042 A 
ATOM     11  C   UNL     1      -3.210   7.435   0.871  0.00  0.00    +0.145 A 
ATOM     12  C   UNL     1      -3.510   6.119   0.507  0.00  0.00    +0.069 A 
ATOM     13  N   UNL     1      -2.717   5.105   1.047  0.00  0.00    -0.334 N 
ATOM     14  F   UNL     1      -2.207   7.675   1.743  0.00  0.00    -0.204 F 
ATOM     15  H   UNL     1      -2.608   5.220   2.043  0.00  0.00    +0.147 HD
ENDROOT
BRANCH   1  20
ATOM     16  C   UNL     1      -0.095   1.558  -0.032  0.00  0.00    +0.000 A 
ATOM     17  C   UNL     1       0.256   1.125   1.233  0.00  0.00    +0.001 A 
ATOM     18  C   UNL     1      -0.478   1.532   2.331  0.00  0.00    +0.020 A 
ATOM     19  C   UNL     1      -1.568   2.369   2.163  0.00  0.00    +0.046 A 
ATOM     20  C   UNL     1      -1.915   2.806   0.898  0.00  0.00    -0.009 A 
ATOM     21  C   UNL     1      -1.180   2.399  -0.200  0.00  0.00    +0.007 A 
ATOM     22 CL   UNL     1      -2.494   2.875   3.541  0.00  0.00    -0.083 Cl
ENDBRANCH   1  20
BRANCH   8  23
ATOM     23  N   UNL     1      -6.372   6.714  -1.861  0.00  0.00    +0.057 N 
ATOM     24  O   UNL     1      -6.402   7.308  -2.925  0.00  0.00    -0.126 OA
ATOM     25  O   UNL     1      -7.249   5.916  -1.584  0.00  0.00    -0.126 OA
ENDBRANCH   8  23
TORSDOF 2
