REMARK  Name = ZINC32817720
REMARK  7 active torsions:
REMARK  status: ('A' for Active; 'I' for Inactive)
REMARK    1  A    between atoms: C_1  and  C_2
REMARK    2  A    between atoms: C_2  and  C_3
REMARK    3  A    between atoms: C_2  and  C_4
REMARK    4  A    between atoms: C_2  and  C_5
REMARK    5  A    between atoms: C_9  and  N_14
REMARK    6  A    between atoms: N_14  and  S_15
REMARK    7  A    between atoms: S_15  and  C_18
REMARK                            x       y       z     vdW  Elec       q    Type
REMARK                         _______ _______ _______ _____ _____    ______ ____
ROOT
ATOM      1  N   UNL     1       1.760   8.172   1.612  0.00  0.00    -0.216 N 
ATOM      2  H   UNL     1       0.993   8.074   2.394  0.00  0.00    +0.174 HD
ENDROOT
BRANCH   1   7
ATOM      3  C   UNL     1       7.244   8.418   3.589  0.00  0.00    +0.202 A 
ATOM      4  N   UNL     1       6.163   9.138   3.616  0.00  0.00    -0.213 NA
ATOM      5  C   UNL     1       5.184   8.485   2.933  0.00  0.00    +0.111 A 
ATOM      6  C   UNL     1       3.850   8.778   2.643  0.00  0.00    +0.056 A 
ATOM      7  C   UNL     1       3.098   7.883   1.904  0.00  0.00    +0.050 A 
ATOM      8  C   UNL     1       3.665   6.693   1.455  0.00  0.00    +0.028 A 
ATOM      9  C   UNL     1       4.982   6.399   1.732  0.00  0.00    +0.050 A 
ATOM     10  C   UNL     1       5.749   7.287   2.472  0.00  0.00    +0.155 A 
ATOM     11  O   UNL     1       7.031   7.285   2.902  0.00  0.00    -0.439 OA
BRANCH   3  13
ATOM     12  C   UNL     1       8.342   8.973   5.741  0.00  0.00    +0.020 C 
ATOM     13  C   UNL     1       8.550   8.800   4.235  0.00  0.00    +0.039 C 
ATOM     14  C   UNL     1       9.584   7.701   3.986  0.00  0.00    +0.020 C 
ATOM     15  C   UNL     1       9.050  10.116   3.635  0.00  0.00    +0.020 C 
ENDBRANCH   3  13
ENDBRANCH   1   7
BRANCH   1  16
ATOM     16  S   UNL     1       1.333   8.661   0.088  0.00  0.00    +0.072 S 
ATOM     17  O   UNL     1      -0.060   8.941   0.128  0.00  0.00    -0.150 OA
ATOM     18  O   UNL     1       1.896   7.719  -0.814  0.00  0.00    -0.150 OA
BRANCH  16  19
ATOM     19  C   UNL     1       2.146  10.195  -0.213  0.00  0.00    +0.109 A 
ATOM     20  C   UNL     1       1.574  11.377   0.222  0.00  0.00    +0.030 A 
ATOM     21  C   UNL     1       2.209  12.581  -0.013  0.00  0.00    +0.025 A 
ATOM     22  C   UNL     1       3.422  12.603  -0.687  0.00  0.00    +0.037 A 
ATOM     23  C   UNL     1       3.994  11.415  -1.123  0.00  0.00    -0.024 A 
ATOM     24  C   UNL     1       3.354  10.215  -0.886  0.00  0.00    +0.034 A 
ATOM     25  C   UNL     1       5.311  11.441  -1.855  0.00  0.00    +0.046 C 
ATOM     26  C   UNL     1       5.396  12.711  -2.706  0.00  0.00    +0.101 C 
ATOM     27  C   UNL     1       5.025  13.908  -1.873  0.00  0.00    +0.218 C 
ATOM     28  O   UNL     1       5.588  14.966  -2.058  0.00  0.00    -0.275 OA
ATOM     29  N   UNL     1       4.070  13.819  -0.928  0.00  0.00    -0.285 N 
ATOM     30  H   UNL     1       3.801  14.711  -0.343  0.00  0.00    +0.155 HD
ENDBRANCH  16  19
ENDBRANCH   1  16
TORSDOF 4
