REMARK  Name = ZINC24279975
REMARK  9 active torsions:
REMARK  status: ('A' for Active; 'I' for Inactive)
REMARK    1  A    between atoms: C_1  and  C_2
REMARK    2  A    between atoms: C_2  and  N_3
REMARK    3  A    between atoms: N_6  and  C_9
REMARK    4  A    between atoms: C_9  and  N_10
REMARK    5  A    between atoms: N_10  and  C_11
REMARK    6  A    between atoms: N_10  and  C_12
REMARK    7  A    between atoms: C_12  and  C_13
REMARK    8  A    between atoms: N_15  and  C_24
REMARK    9  A    between atoms: C_17  and  C_18
REMARK                            x       y       z     vdW  Elec       q    Type
REMARK                         _______ _______ _______ _____ _____    ______ ____
ROOT
ATOM      1  N   UNL     1       1.046   1.975   0.138  0.00  0.00    +0.394 N 
ATOM      2  C   UNL     1      -0.201   2.349  -0.544  0.00  0.00    -0.093 C 
ATOM      3  H   UNL     1       0.937   2.226   1.203  0.00  0.00    -0.079 HD
ENDROOT
BRANCH   1   4
ATOM      4  C   UNL     1       2.184   2.737  -0.392  0.00  0.00    +0.072 C 
BRANCH   4   8
ATOM      5  N   UNL     1       1.462   6.256  -0.157  0.00  0.00    -0.292 N 
ATOM      6  C   UNL     1       2.143   6.052   1.021  0.00  0.00    +0.218 A 
ATOM      7  N   UNL     1       2.483   4.798   1.093  0.00  0.00    -0.136 NA
ATOM      8  N   UNL     1       2.019   4.155  -0.062  0.00  0.00    -0.256 N 
ATOM      9  C   UNL     1       1.397   5.083  -0.818  0.00  0.00    +0.178 A 
ATOM     10  S   UNL     1       0.655   4.819  -2.338  0.00  0.00    -0.011 S 
ATOM     11  N   UNL     1       2.419   7.021   1.974  0.00  0.00    -0.295 N 
ATOM     12  C   UNL     1       3.537   7.875   1.547  0.00  0.00    +0.136 C 
ATOM     13  C   UNL     1       3.769   8.965   2.597  0.00  0.00    +0.179 C 
ATOM     14  O   UNL     1       4.010   8.353   3.867  0.00  0.00    -0.377 OA
ATOM     15  C   UNL     1       2.941   7.514   4.313  0.00  0.00    +0.179 C 
ATOM     16  C   UNL     1       2.701   6.410   3.281  0.00  0.00    +0.136 C 
BRANCH   5  18
ATOM     17  C   UNL     1       1.890   8.194  -1.585  0.00  0.00    +0.027 C 
ATOM     18  C   UNL     1       0.908   7.532  -0.617  0.00  0.00    +0.124 C 
ENDBRANCH   5  18
ENDBRANCH   4   8
ENDBRANCH   1   4
BRANCH   1  19
ATOM     19  C   UNL     1       1.287   0.529   0.037  0.00  0.00    -0.037 C 
BRANCH  19  20
ATOM     20  C   UNL     1       0.309  -0.206   0.917  0.00  0.00    -0.018 A 
ATOM     21  C   UNL     1      -0.768  -0.905   0.498  0.00  0.00    +0.116 A 
ATOM     22  N   UNL     1      -1.385  -1.416   1.595  0.00  0.00    -0.239 N 
ATOM     23  N   UNL     1      -0.667  -1.008   2.726  0.00  0.00    -0.166 NA
ATOM     24  C   UNL     1       0.353  -0.280   2.324  0.00  0.00    +0.094 A 
BRANCH  24  25
ATOM     25  C   UNL     1       1.372   0.352   3.198  0.00  0.00    +0.002 A 
ATOM     26  C   UNL     1       2.717   0.328   2.836  0.00  0.00    +0.010 A 
ATOM     27  C   UNL     1       3.659   0.922   3.650  0.00  0.00    +0.001 A 
ATOM     28  C   UNL     1       3.272   1.532   4.830  0.00  0.00    +0.000 A 
ATOM     29  C   UNL     1       1.938   1.554   5.197  0.00  0.00    +0.001 A 
ATOM     30  C   UNL     1       0.987   0.968   4.388  0.00  0.00    +0.010 A 
ENDBRANCH  24  25
BRANCH  22  31
ATOM     31  C   UNL     1      -2.541  -2.208   1.595  0.00  0.00    +0.065 A 
ATOM     32  C   UNL     1      -3.160  -2.535   0.396  0.00  0.00    +0.028 A 
ATOM     33  C   UNL     1      -4.297  -3.321   0.399  0.00  0.00    +0.002 A 
ATOM     34  C   UNL     1      -4.824  -3.771   1.595  0.00  0.00    +0.000 A 
ATOM     35  C   UNL     1      -4.213  -3.442   2.792  0.00  0.00    +0.002 A 
ATOM     36  C   UNL     1      -3.073  -2.662   2.795  0.00  0.00    +0.028 A 
ENDBRANCH  22  31
ENDBRANCH  19  20
ENDBRANCH   1  19
TORSDOF 7
