REMARK  Name = ZINC39584158
REMARK  6 active torsions:
REMARK  status: ('A' for Active; 'I' for Inactive)
REMARK    1  A    between atoms: C_1  and  C_2
REMARK    2  A    between atoms: C_5  and  N_8
REMARK    3  A    between atoms: C_9  and  C_26
REMARK    4  A    between atoms: C_13  and  S_15
REMARK    5  A    between atoms: S_15  and  C_16
REMARK    6  A    between atoms: C_16  and  C_17
REMARK                            x       y       z     vdW  Elec       q    Type
REMARK                         _______ _______ _______ _____ _____    ______ ____
ROOT
ATOM      1  N   UNL     1      -0.162  -4.331  -0.089  0.00  0.00    -0.282 N 
ATOM      2  C   UNL     1       0.173  -5.057   1.153  0.00  0.00    +0.207 C 
ATOM      3  N   UNL     1      -0.234  -6.460   0.878  0.00  0.00    -0.229 NA
ATOM      4  N   UNL     1       0.130  -6.638  -0.536  0.00  0.00    -0.225 NA
ATOM      5  C   UNL     1      -0.196  -5.338  -1.165  0.00  0.00    +0.218 C 
ATOM      6  H   UNL     1      -1.227  -6.581   1.014  0.00  0.00    +0.143 HD
ATOM      7  H   UNL     1      -0.405  -7.384  -0.956  0.00  0.00    +0.143 HD
ENDROOT
BRANCH   1  12
ATOM      8  C   UNL     1      -1.144   1.230  -0.611  0.00  0.00    +0.044 C 
ATOM      9  C   UNL     1      -0.883  -0.248  -0.472  0.00  0.00    -0.050 A 
ATOM     10  C   UNL     1      -1.911  -1.152  -0.671  0.00  0.00    +0.005 A 
ATOM     11  C   UNL     1      -1.675  -2.506  -0.545  0.00  0.00    +0.023 A 
ATOM     12  C   UNL     1      -0.404  -2.961  -0.218  0.00  0.00    +0.033 A 
ATOM     13  C   UNL     1       0.626  -2.051  -0.019  0.00  0.00    +0.023 A 
ATOM     14  C   UNL     1       0.385  -0.697  -0.153  0.00  0.00    +0.005 A 
ENDBRANCH   1  12
BRANCH   2  15
ATOM     15  C   UNL     1      -0.605  -4.497   2.316  0.00  0.00    +0.077 A 
ATOM     16  C   UNL     1      -1.065  -5.349   3.303  0.00  0.00    +0.026 A 
ATOM     17  C   UNL     1      -1.779  -4.824   4.369  0.00  0.00    +0.003 A 
ATOM     18  C   UNL     1      -2.006  -3.456   4.402  0.00  0.00    +0.020 A 
ATOM     19  C   UNL     1      -1.516  -2.667   3.379  0.00  0.00    +0.111 A 
ATOM     20  N   UNL     1      -0.835  -3.201   2.383  0.00  0.00    -0.257 NA
ENDBRANCH   2  15
BRANCH   5  21
ATOM     21  S   UNL     1       1.039  -4.936  -2.431  0.00  0.00    -0.114 S 
BRANCH  21  22
ATOM     22  C   UNL     1       2.614  -4.961  -1.531  0.00  0.00    +0.146 C 
BRANCH  22  23
ATOM     23  C   UNL     1       3.740  -4.640  -2.480  0.00  0.00    +0.118 A 
ATOM     24  N   UNL     1       4.187  -3.443  -2.728  0.00  0.00    -0.232 NA
ATOM     25  C   UNL     1       5.202  -3.512  -3.627  0.00  0.00    +0.089 A 
ATOM     26  C   UNL     1       6.022  -2.555  -4.230  0.00  0.00    +0.030 A 
ATOM     27  C   UNL     1       6.983  -2.945  -5.119  0.00  0.00    +0.002 A 
ATOM     28  C   UNL     1       7.156  -4.285  -5.433  0.00  0.00    +0.002 A 
ATOM     29  C   UNL     1       6.358  -5.247  -4.850  0.00  0.00    +0.028 A 
ATOM     30  C   UNL     1       5.377  -4.870  -3.944  0.00  0.00    +0.066 A 
ATOM     31  N   UNL     1       4.441  -5.559  -3.198  0.00  0.00    -0.341 N 
ATOM     32  H   UNL     1       4.306  -6.519  -3.189  0.00  0.00    +0.167 HD
ENDBRANCH  22  23
ENDBRANCH  21  22
ENDBRANCH   5  21
TORSDOF 5
