REMARK  Name = ZINC22839325
REMARK  7 active torsions:
REMARK  status: ('A' for Active; 'I' for Inactive)
REMARK    1  A    between atoms: C_1  and  C_2
REMARK    2  A    between atoms: C_8  and  C_34
REMARK    3  A    between atoms: C_13  and  C_20
REMARK    4  A    between atoms: N_24  and  C_25
REMARK    5  A    between atoms: C_25  and  O_26
REMARK    6  A    between atoms: O_26  and  C_27
REMARK    7  A    between atoms: N_37  and  C_39
REMARK                            x       y       z     vdW  Elec       q    Type
REMARK                         _______ _______ _______ _____ _____    ______ ____
ROOT
ATOM      1  C   UNL     1      -0.018   1.503   0.010  0.00  0.00    +0.063 C 
ATOM      2  C   UNL     1       0.002  -0.004   0.002  0.00  0.00    +0.051 C 
ATOM      3  N   UNL     1       0.008  -0.775  -1.037  0.00  0.00    -0.155 NA
ATOM      4  N   UNL     1       0.057  -2.127  -0.698  0.00  0.00    -0.115 NA
ATOM      5  C   UNL     1       0.128  -2.303   0.571  0.00  0.00    +0.227 C 
ATOM      6  C   UNL     1       0.026  -0.917   1.205  0.00  0.00    +0.135 C 
ATOM      7  C   UNL     1       1.316  -0.740   2.012  0.00  0.00    +0.078 C 
ATOM      8  C   UNL     1       1.622  -2.017   2.746  0.00  0.00    +0.067 A 
ATOM      9  C   UNL     1       2.471  -1.982   3.871  0.00  0.00    +0.167 A 
ATOM     10  N   UNL     1       3.103  -1.004   4.471  0.00  0.00    -0.205 NA
ATOM     11  C   UNL     1       3.792  -1.490   5.512  0.00  0.00    +0.200 A 
ATOM     12  N   UNL     1       3.608  -2.800   5.590  0.00  0.00    -0.142 NA
ATOM     13  N   UNL     1       2.762  -3.152   4.548  0.00  0.00    -0.201 N 
ATOM     14  C   UNL     1       2.241  -4.338   4.146  0.00  0.00    +0.229 A 
ATOM     15  N   UNL     1       1.453  -4.344   3.099  0.00  0.00    -0.201 NA
ATOM     16  C   UNL     1       1.130  -3.244   2.399  0.00  0.00    +0.231 A 
ATOM     17  O   UNL     1       0.280  -3.403   1.335  0.00  0.00    -0.421 OA
ENDROOT
BRANCH   7  18
ATOM     18  C   UNL     1       1.139   0.381   3.003  0.00  0.00    -0.001 A 
ATOM     19  C   UNL     1       0.190   0.430   4.029  0.00  0.00    +0.138 A 
ATOM     20  N   UNL     1       0.347   1.556   4.677  0.00  0.00    -0.180 NA
ATOM     21  N   UNL     1       1.402   2.260   4.083  0.00  0.00    -0.274 N 
ATOM     22  C   UNL     1       1.875   1.515   3.062  0.00  0.00    +0.112 A 
ATOM     23  C   UNL     1       1.907   3.570   4.500  0.00  0.00    +0.172 C 
ENDBRANCH   7  18
BRANCH  11  24
ATOM     24  C   UNL     1       4.631  -0.689   6.432  0.00  0.00    +0.111 A 
ATOM     25  C   UNL     1       4.832   0.661   6.375  0.00  0.00    +0.052 A 
ATOM     26  C   UNL     1       5.684   1.011   7.422  0.00  0.00    +0.135 A 
ATOM     27  N   UNL     1       5.992  -0.072   8.090  0.00  0.00    -0.176 NA
ATOM     28  N   UNL     1       5.340  -1.161   7.496  0.00  0.00    -0.225 N 
BRANCH  28  29
ATOM     29  C   UNL     1       5.411  -2.556   7.938  0.00  0.00    +0.374 C 
BRANCH  29  30
ATOM     30  O   UNL     1       6.500  -3.209   7.282  0.00  0.00    -0.470 OA
BRANCH  30  31
ATOM     31  C   UNL     1       6.706  -4.518   7.582  0.00  0.00    +0.123 A 
ATOM     32  C   UNL     1       5.873  -5.163   8.485  0.00  0.00    +0.047 A 
ATOM     33  C   UNL     1       6.083  -6.494   8.789  0.00  0.00    +0.023 A 
ATOM     34  C   UNL     1       7.125  -7.184   8.194  0.00  0.00    +0.041 A 
ATOM     35  C   UNL     1       7.957  -6.543   7.294  0.00  0.00    +0.023 A 
ATOM     36  C   UNL     1       7.745  -5.213   6.982  0.00  0.00    +0.047 A 
ATOM     37 CL   UNL     1       7.388  -8.856   8.579  0.00  0.00    -0.084 Cl
ENDBRANCH  30  31
ENDBRANCH  29  30
ENDBRANCH  28  29
ENDBRANCH  11  24
TORSDOF 5
