REMARK  Name = ZINC44949867
REMARK  11 active torsions:
REMARK  status: ('A' for Active; 'I' for Inactive)
REMARK    1  A    between atoms: C_1  and  C_2
REMARK    2  A    between atoms: N_6  and  C_7
REMARK    3  A    between atoms: C_12  and  C_13
REMARK    4  A    between atoms: C_13  and  N_14
REMARK    5  A    between atoms: C_15  and  C_17
REMARK    6  A    between atoms: C_17  and  C_18
REMARK    7  A    between atoms: C_18  and  C_19
REMARK    8  A    between atoms: C_19  and  N_20
REMARK    9  A    between atoms: N_20  and  C_21
REMARK   10  A    between atoms: N_20  and  S_29
REMARK   11  A    between atoms: S_29  and  C_32
REMARK                            x       y       z     vdW  Elec       q    Type
REMARK                         _______ _______ _______ _____ _____    ______ ____
ROOT
ATOM      1  N   UNL     1      -3.264   0.282   1.311  0.00  0.00    -0.311 N 
ATOM      2  C   UNL     1      -4.431   0.079   0.667  0.00  0.00    +0.213 C 
ATOM      3  O   UNL     1      -4.918   0.968   0.001  0.00  0.00    -0.276 OA
ATOM      4  H   UNL     1      -2.874  -0.429   1.843  0.00  0.00    +0.149 HD
ENDROOT
BRANCH   1   5
ATOM      5  C   UNL     1      -2.585   1.575   1.206  0.00  0.00    +0.141 C 
BRANCH   5  11
ATOM      6  C   UNL     1      -0.175   0.941   1.490  0.00  0.00    +0.052 A 
ATOM      7  C   UNL     1       0.997   0.916   2.233  0.00  0.00    +0.026 A 
ATOM      8  C   UNL     1       1.027   1.483   3.492  0.00  0.00    +0.002 A 
ATOM      9  C   UNL     1      -0.109   2.076   4.012  0.00  0.00    +0.000 A 
ATOM     10  C   UNL     1      -1.278   2.102   3.274  0.00  0.00    +0.007 A 
ATOM     11  C   UNL     1      -1.312   1.541   2.012  0.00  0.00    -0.006 A 
BRANCH   6  17
ATOM     12  C   UNL     1      -0.607   2.505  -1.120  0.00  0.00    +0.084 C 
ATOM     13  C   UNL     1      -0.396   1.021  -0.964  0.00  0.00    +0.088 A 
ATOM     14  N   UNL     1      -0.358   0.150  -1.936  0.00  0.00    -0.350 N 
ATOM     15  C   UNL     1      -0.153  -1.074  -1.427  0.00  0.00    +0.102 A 
ATOM     16  C   UNL     1      -0.060  -0.964  -0.089  0.00  0.00    +0.110 A 
ATOM     17  N   UNL     1      -0.208   0.366   0.211  0.00  0.00    -0.305 N 
ATOM     18  H   UNL     1      -0.461   0.356  -2.878  0.00  0.00    +0.166 HD
ENDBRANCH   6  17
ENDBRANCH   5  11
ENDBRANCH   1   5
BRANCH   2  19
ATOM     19  C   UNL     1      -5.130  -1.252   0.775  0.00  0.00    +0.097 C 
BRANCH  19  20
ATOM     20  C   UNL     1      -6.422  -1.217  -0.044  0.00  0.00    +0.030 C 
BRANCH  20  21
ATOM     21  C   UNL     1      -7.132  -2.568   0.066  0.00  0.00    +0.132 C 
BRANCH  21  22
ATOM     22  N   UNL     1      -8.369  -2.535  -0.718  0.00  0.00    -0.206 N 
BRANCH  22  23
ATOM     23  C   UNL     1      -8.336  -2.814  -2.087  0.00  0.00    +0.071 A 
ATOM     24  C   UNL     1      -8.053  -1.804  -2.997  0.00  0.00    +0.046 A 
ATOM     25  C   UNL     1      -8.022  -2.083  -4.350  0.00  0.00    +0.043 A 
ATOM     26  C   UNL     1      -8.273  -3.368  -4.799  0.00  0.00    +0.021 A 
ATOM     27  C   UNL     1      -8.556  -4.376  -3.896  0.00  0.00    +0.023 A 
ATOM     28  C   UNL     1      -8.582  -4.104  -2.541  0.00  0.00    +0.064 A 
ATOM     29 CL   UNL     1      -8.930  -5.372  -1.407  0.00  0.00    -0.082 Cl
ATOM     30 CL   UNL     1      -7.668  -0.821  -5.488  0.00  0.00    -0.083 Cl
ENDBRANCH  22  23
BRANCH  22  31
ATOM     31  S   UNL     1      -9.806  -2.167   0.018  0.00  0.00    +0.043 S 
ATOM     32  O   UNL     1     -10.792  -2.832  -0.758  0.00  0.00    -0.155 OA
ATOM     33  O   UNL     1      -9.610  -2.504   1.385  0.00  0.00    -0.155 OA
ATOM     34  C   UNL     1      -9.976  -0.370  -0.163  0.00  0.00    +0.218 C 
ENDBRANCH  22  31
ENDBRANCH  21  22
ENDBRANCH  20  21
ENDBRANCH  19  20
ENDBRANCH   2  19
TORSDOF 9
