REMARK  Name = ZINC01067039
REMARK  8 active torsions:
REMARK  status: ('A' for Active; 'I' for Inactive)
REMARK    1  A    between atoms: C_1  and  C_2
REMARK    2  A    between atoms: C_2  and  C_4
REMARK    3  A    between atoms: C_2  and  O_23
REMARK    4  A    between atoms: N_6  and  C_7
REMARK    5  A    between atoms: C_10  and  S_13
REMARK    6  A    between atoms: S_13  and  C_14
REMARK    7  A    between atoms: C_17  and  N_20
REMARK    8  A    between atoms: O_23  and  C_24
REMARK                            x       y       z     vdW  Elec       q    Type
REMARK                         _______ _______ _______ _____ _____    ______ ____
ROOT
ATOM      1  C   UNL     1      -2.529   0.393   3.019  0.00  0.00    +0.034 A 
ATOM      2  C   UNL     1      -1.845   1.040   4.040  0.00  0.00    +0.024 A 
ATOM      3  C   UNL     1      -2.329   0.996   5.332  0.00  0.00    +0.017 A 
ATOM      4  C   UNL     1      -3.496   0.296   5.612  0.00  0.00    +0.013 A 
ATOM      5  C   UNL     1      -4.178  -0.356   4.591  0.00  0.00    +0.017 A 
ATOM      6  C   UNL     1      -3.695  -0.307   3.299  0.00  0.00    +0.024 A 
ENDROOT
BRANCH   1   9
ATOM      7  C   UNL     1      -2.897   0.447   0.667  0.00  0.00    +0.258 C 
ATOM      8  O   UNL     1      -4.092   0.501   0.867  0.00  0.00    -0.271 OA
ATOM      9  N   UNL     1      -2.039   0.442   1.707  0.00  0.00    -0.282 N 
ATOM     10  H   UNL     1      -1.083   0.472   1.547  0.00  0.00    +0.155 HD
BRANCH   7  12
ATOM     11  C   UNL     1      -1.675  -0.960  -0.970  0.00  0.00    +0.062 C 
ATOM     12  C   UNL     1      -2.370   0.384  -0.743  0.00  0.00    +0.256 C 
BRANCH  12  13
ATOM     13  O   UNL     1      -3.456   0.520  -1.663  0.00  0.00    -0.480 OA
BRANCH  13  14
ATOM     14  C   UNL     1      -3.160   0.996  -2.901  0.00  0.00    +0.122 A 
ATOM     15  C   UNL     1      -1.840   1.222  -3.261  0.00  0.00    +0.045 A 
ATOM     16  C   UNL     1      -1.541   1.702  -4.522  0.00  0.00    +0.004 A 
ATOM     17  C   UNL     1      -2.558   1.967  -5.420  0.00  0.00    +0.000 A 
ATOM     18  C   UNL     1      -3.876   1.747  -5.062  0.00  0.00    +0.004 A 
ATOM     19  C   UNL     1      -4.179   1.263  -3.804  0.00  0.00    +0.045 A 
ENDBRANCH  13  14
ENDBRANCH  12  13
ENDBRANCH   7  12
ENDBRANCH   1   9
BRANCH   4  20
ATOM     20  S   UNL     1      -4.112   0.234   7.262  0.00  0.00    -0.089 S 
BRANCH  20  21
ATOM     21  C   UNL     1      -3.264  -1.132   7.983  0.00  0.00    +0.013 A 
ATOM     22  C   UNL     1      -2.280  -1.799   7.264  0.00  0.00    +0.017 A 
ATOM     23  C   UNL     1      -1.615  -2.866   7.834  0.00  0.00    +0.034 A 
ATOM     24  C   UNL     1      -1.933  -3.277   9.115  0.00  0.00    +0.126 A 
ATOM     25  C   UNL     1      -2.916  -2.619   9.832  0.00  0.00    +0.034 A 
ATOM     26  C   UNL     1      -3.582  -1.548   9.270  0.00  0.00    +0.017 A 
BRANCH  24  27
ATOM     27  N   UNL     1      -1.221  -4.425   9.721  0.00  0.00    +0.056 N 
ATOM     28  O   UNL     1      -1.500  -4.788  10.850  0.00  0.00    -0.126 OA
ATOM     29  O   UNL     1      -0.355  -5.006   9.091  0.00  0.00    -0.126 OA
ENDBRANCH  24  27
ENDBRANCH  20  21
ENDBRANCH   4  20
TORSDOF 7
