REMARK  Name = ZINC33507907
REMARK  4 active torsions:
REMARK  status: ('A' for Active; 'I' for Inactive)
REMARK    1  A    between atoms: C_3  and  S_16
REMARK    2  A    between atoms: C_6  and  N_7
REMARK    3  A    between atoms: C_10  and  C_13
REMARK    4  A    between atoms: S_16  and  C_17
REMARK                            x       y       z     vdW  Elec       q    Type
REMARK                         _______ _______ _______ _____ _____    ______ ____
ROOT
ATOM      1  N   UNK     1       1.274   3.403   0.008  0.00  0.00    -0.294 N 
ATOM      2  C   UNK     1       1.009   2.268  -0.741  0.00  0.00    +0.163 A 
ATOM      3  N   UNK     1      -0.116   1.592  -0.856  0.00  0.00    -0.218 NA
ATOM      4  C   UNK     1      -0.194   0.508  -1.631  0.00  0.00    +0.161 A 
ATOM      5  C   UNK     1       0.922   0.098  -2.318  0.00  0.00    +0.083 A 
ATOM      6  S   UNK     1       2.103   1.338  -1.805  0.00  0.00    -0.060 S 
ATOM      7  H   UNK     1       0.458   3.915   0.538  0.00  0.00    +0.154 HD
ENDROOT
BRANCH   1  13
ATOM      8  C   UNK     1       3.658   3.020   0.074  0.00  0.00    +0.024 A 
ATOM      9  C   UNK     1       4.947   3.508   0.151  0.00  0.00    +0.017 A 
ATOM     10  C   UNK     1       5.167   4.876   0.255  0.00  0.00    +0.023 A 
ATOM     11  C   UNK     1       4.090   5.753   0.278  0.00  0.00    +0.017 A 
ATOM     12  C   UNK     1       2.801   5.265   0.196  0.00  0.00    +0.024 A 
ATOM     13  C   UNK     1       2.581   3.897   0.091  0.00  0.00    +0.033 A 
BRANCH  10  14
ATOM     14  S   UNK     1       6.812   5.498   0.360  0.00  0.00    -0.010 S 
BRANCH  14  15
ATOM     15  C   UNK     1       7.741   3.947   0.284  0.00  0.00    +0.138 C 
ATOM     16  N   UNK     1       8.323   2.973   0.236  0.00  0.00    -0.183 NA
ENDBRANCH  14  15
ENDBRANCH  10  14
ENDBRANCH   1  13
BRANCH   4  17
ATOM     17  C   UNK     1      -1.457  -0.235  -1.749  0.00  0.00    +0.405 C 
ATOM     18  O   UNK     1      -1.519  -1.221  -2.458  0.00  0.00    -0.239 OA
ATOM     19  O   UNK     1      -2.547   0.176  -1.070  0.00  0.00    -0.239 OA
ENDBRANCH   4  17
TORSDOF 4
