REMARK  Name = ZINC12656799
REMARK  8 active torsions:
REMARK  status: ('A' for Active; 'I' for Inactive)
REMARK    1  A    between atoms: C_1  and  C_2
REMARK    2  A    between atoms: C_2  and  C_5
REMARK    3  A    between atoms: N_3  and  O_4
REMARK    4  A    between atoms: C_10  and  C_32
REMARK    5  A    between atoms: C_21  and  C_31
REMARK    6  A    between atoms: C_24  and  O_27
REMARK    7  A    between atoms: O_27  and  C_28
REMARK    8  A    between atoms: C_28  and  C_30
REMARK                            x       y       z     vdW  Elec       q    Type
REMARK                         _______ _______ _______ _____ _____    ______ ____
ROOT
ATOM      1  C   UNL     1       1.587   1.319   1.457  0.00  0.00    -0.021 C 
ATOM      2  C   UNL     1       0.371   1.318   2.031  0.00  0.00    -0.021 C 
ATOM      3  C   UNL     1      -0.701   1.576   0.970  0.00  0.00    +0.032 C 
ATOM      4  C   UNL     1       0.023   1.086  -0.295  0.00  0.00    +0.006 C 
ATOM      5  C   UNL     1       1.422   1.667  -0.003  0.00  0.00    -0.002 C 
ATOM      6  C   UNL     1       2.436   1.091  -0.959  0.00  0.00    +0.012 C 
ATOM      7  C   UNL     1       1.718   0.684  -2.264  0.00  0.00    +0.005 C 
ATOM      8  C   UNL     1       0.637   1.705  -2.594  0.00  0.00    -0.001 C 
ATOM      9  C   UNL     1      -0.532   1.572  -1.624  0.00  0.00    -0.003 C 
ATOM     10  C   UNL     1      -1.537   0.504  -2.072  0.00  0.00    +0.004 C 
ATOM     11  C   UNL     1      -1.938   0.648  -3.533  0.00  0.00    +0.004 C 
ATOM     12  C   UNL     1      -0.684   0.564  -4.404  0.00  0.00    -0.001 C 
ATOM     13  C   UNL     1       0.241   1.723  -4.061  0.00  0.00    -0.026 C 
ATOM     14  C   UNL     1       1.491   1.653  -4.944  0.00  0.00    +0.011 C 
ATOM     15  C   UNL     1       1.105   1.696  -6.421  0.00  0.00    +0.045 C 
ATOM     16  C   UNL     1       0.176   0.531  -6.756  0.00  0.00    +0.177 C 
ATOM     17  C   UNL     1      -1.074   0.585  -5.878  0.00  0.00    +0.048 C 
ATOM     18  C   UNL     1      -0.463   3.060  -4.334  0.00  0.00    +0.012 C 
ATOM     19  C   UNL     1       1.433   3.196  -0.071  0.00  0.00    +0.016 C 
ENDROOT
BRANCH   1  21
ATOM     20  C   UNL     1       2.873   0.703   3.601  0.00  0.00    +0.069 C 
ATOM     21  C   UNL     1       2.857   1.037   2.131  0.00  0.00    +0.080 C 
ATOM     22  N   UNL     1       3.967   1.075   1.464  0.00  0.00    -0.092 NA
BRANCH  22  23
ATOM     23  O   UNL     1       5.194   0.802   2.115  0.00  0.00    -0.409 OA
ATOM     24  H   UNL     1       5.967   0.854   1.536  0.00  0.00    +0.328 HD
ENDBRANCH  22  23
ENDBRANCH   1  21
BRANCH  16  25
ATOM     25  O   UNL     1       0.870  -0.725  -6.542  0.00  0.00    -0.462 OA
BRANCH  25  26
ATOM     26  C   UNL     1       1.545  -1.234  -7.585  0.00  0.00    +0.304 C 
ATOM     27  O   UNL     1       1.555  -0.647  -8.642  0.00  0.00    -0.251 OA
ATOM     28  C   UNL     1       2.290  -2.535  -7.439  0.00  0.00    +0.136 C 
ENDBRANCH  25  26
ENDBRANCH  16  25
TORSDOF 4
