REMARK  Name = ZINC35101553
REMARK  5 active torsions:
REMARK  status: ('A' for Active; 'I' for Inactive)
REMARK    1  A    between atoms: C_1  and  C_2
REMARK    2  A    between atoms: C_8  and  N_10
REMARK    3  A    between atoms: N_10  and  S_11
REMARK    4  A    between atoms: S_11  and  C_14
REMARK    5  A    between atoms: C_16  and  N_21
REMARK                            x       y       z     vdW  Elec       q    Type
REMARK                         _______ _______ _______ _____ _____    ______ ____
ROOT
ATOM      1  S   UNL     1       2.821   0.509   2.640  0.00  0.00    +0.060 S 
ATOM      2  O   UNL     1       2.799  -0.512   3.627  0.00  0.00    -0.153 OA
ATOM      3  O   UNL     1       4.030   1.088   2.169  0.00  0.00    -0.153 OA
ENDROOT
BRANCH   1   4
ATOM      4  C   UNL     1       1.838   1.832   3.262  0.00  0.00    +0.126 A 
ATOM      5  C   UNL     1       1.252   1.731   4.510  0.00  0.00    +0.062 A 
ATOM      6  C   UNL     1       0.480   2.769   4.998  0.00  0.00    +0.128 A 
ATOM      7  C   UNL     1       0.294   3.909   4.238  0.00  0.00    +0.034 A 
ATOM      8  C   UNL     1       0.880   4.012   2.990  0.00  0.00    +0.024 A 
ATOM      9  C   UNL     1       1.657   2.975   2.504  0.00  0.00    +0.067 A 
ATOM     10 CL   UNL     1       2.399   3.107   0.940  0.00  0.00    -0.082 Cl
BRANCH   6  11
ATOM     11  N   UNL     1      -0.147   2.659   6.334  0.00  0.00    +0.056 N 
ATOM     12  O   UNL     1       0.015   1.663   6.998  0.00  0.00    -0.126 OA
ATOM     13  O   UNL     1      -0.822   3.567   6.761  0.00  0.00    -0.126 OA
ENDBRANCH   6  11
ENDBRANCH   1   4
BRANCH   1  14
ATOM     14  N   UNL     1       2.039  -0.100   1.313  0.00  0.00    -0.187 NA
ATOM     15  H   UNL     1       2.441  -0.020   0.434  0.00  0.00    +0.148 HD
BRANCH  14  22
ATOM     16  C   UNL     1      -0.336   1.047   0.114  0.00  0.00    +0.009 C 
ATOM     17  C   UNL     1      -0.130  -0.464   0.242  0.00  0.00    +0.005 C 
ATOM     18  C   UNL     1      -1.487  -1.152   0.402  0.00  0.00    +0.005 C 
ATOM     19  C   UNL     1      -1.281  -2.662   0.529  0.00  0.00    +0.000 C 
ATOM     20  C   UNL     1      -0.412  -2.957   1.754  0.00  0.00    +0.002 C 
ATOM     21  C   UNL     1       0.945  -2.269   1.593  0.00  0.00    +0.020 C 
ATOM     22  C   UNL     1       0.739  -0.758   1.466  0.00  0.00    +0.079 C 
ENDBRANCH  14  22
ENDBRANCH   1  14
TORSDOF 4
