REMARK  Name = ZINC66893476
REMARK  5 active torsions:
REMARK  status: ('A' for Active; 'I' for Inactive)
REMARK    1  A    between atoms: C_1  and  C_2
REMARK    2  A    between atoms: C_8  and  N_10
REMARK    3  A    between atoms: C_11  and  C_13
REMARK    4  A    between atoms: C_13  and  N_14
REMARK    5  A    between atoms: C_19  and  C_21
REMARK                            x       y       z     vdW  Elec       q    Type
REMARK                         _______ _______ _______ _____ _____    ______ ____
ROOT
ATOM      1  N   UNL     1       0.983   0.639   5.955  0.00  0.00    +0.393 N 
ATOM      2  C   UNL     1       2.078   1.555   5.614  0.00  0.00    -0.077 C 
ATOM      3  C   UNL     1       3.119   1.551   6.736  0.00  0.00    -0.019 C 
ATOM      4  C   UNL     1       2.457   2.006   8.040  0.00  0.00    -0.003 C 
ATOM      5  C   UNL     1       1.270   1.088   8.346  0.00  0.00    -0.006 C 
ATOM      6  C   UNL     1       0.298   1.109   7.165  0.00  0.00    +0.020 C 
ATOM      7  H   UNL     1       1.358  -0.284   6.118  0.00  0.00    -0.080 HD
ENDROOT
BRANCH   6   8
ATOM      8  C   UNL     1      -0.872   0.207   7.461  0.00  0.00    +0.202 C 
ATOM      9  O   UNL     1      -0.869  -0.940   7.067  0.00  0.00    -0.277 OA
ATOM     10  N   UNL     1      -1.922   0.675   8.165  0.00  0.00    -0.298 N 
ATOM     11  C   UNL     1      -2.002   2.091   8.555  0.00  0.00    +0.136 C 
ATOM     12  C   UNL     1      -3.376   2.630   8.140  0.00  0.00    +0.179 C 
ATOM     13  O   UNL     1      -4.394   1.771   8.658  0.00  0.00    -0.377 OA
ATOM     14  C   UNL     1      -4.347   0.435   8.151  0.00  0.00    +0.179 C 
ATOM     15  C   UNL     1      -3.026  -0.215   8.560  0.00  0.00    +0.136 C 
ENDBRANCH   6   8
BRANCH   1  16
ATOM     16  C   UNL     1       0.026   0.586   4.841  0.00  0.00    +0.020 C 
BRANCH  16  18
ATOM     17  N   UNL     1      -0.011  -0.212   2.500  0.00  0.00    -0.314 N 
ATOM     18  C   UNL     1       0.681  -0.057   3.646  0.00  0.00    +0.197 C 
ATOM     19  O   UNL     1       1.832  -0.435   3.715  0.00  0.00    -0.278 OA
ATOM     20  H   UNL     1      -0.931   0.090   2.445  0.00  0.00    +0.149 HD
BRANCH  17  27
ATOM     21  C   UNL     1       0.057   1.161  -0.049  0.00  0.00    +0.009 C 
ATOM     22  C   UNL     1      -0.066  -0.360   0.060  0.00  0.00    +0.006 C 
ATOM     23  C   UNL     1       0.599  -1.014  -1.154  0.00  0.00    +0.005 C 
ATOM     24  C   UNL     1       0.477  -2.535  -1.045  0.00  0.00    +0.000 C 
ATOM     25  C   UNL     1       1.168  -3.012   0.234  0.00  0.00    +0.002 C 
ATOM     26  C   UNL     1       0.503  -2.359   1.447  0.00  0.00    +0.022 C 
ATOM     27  C   UNL     1       0.625  -0.838   1.338  0.00  0.00    +0.076 C 
ENDBRANCH  17  27
ENDBRANCH  16  18
ENDBRANCH   1  16
TORSDOF 4
