REMARK  Name = ZINC13102808
REMARK  13 active torsions:
REMARK  status: ('A' for Active; 'I' for Inactive)
REMARK    1  A    between atoms: C_1  and  C_2
REMARK    2  A    between atoms: C_2  and  N_3
REMARK    3  A    between atoms: N_3  and  C_4
REMARK    4  A    between atoms: N_3  and  S_6
REMARK    5  A    between atoms: C_4  and  C_5
REMARK    6  A    between atoms: S_6  and  C_9
REMARK    7  A    between atoms: C_13  and  C_15
REMARK    8  A    between atoms: N_17  and  C_18
REMARK    9  A    between atoms: C_18  and  C_20
REMARK   10  A    between atoms: C_18  and  C_23
REMARK   11  A    between atoms: C_20  and  C_21
REMARK   12  A    between atoms: C_20  and  C_22
REMARK   13  A    between atoms: C_32  and  N_36
REMARK                            x       y       z     vdW  Elec       q    Type
REMARK                         _______ _______ _______ _____ _____    ______ ____
ROOT
ATOM      1  C   UNL     1       6.245  -4.975  -1.921  0.00  0.00    +0.163 C 
ENDROOT
BRANCH   1   2
ATOM      2  C   UNL     1       7.321  -5.096  -2.970  0.00  0.00    +0.249 C 
ATOM      3  O   UNL     1       7.290  -4.391  -3.951  0.00  0.00    -0.273 OA
ATOM      4  N   UNL     1       8.318  -5.989  -2.813  0.00  0.00    -0.170 N 
ATOM      5  C   UNL     1       9.350  -6.135  -3.664  0.00  0.00    +0.260 C 
ATOM      6  O   UNL     1       9.528  -5.494  -4.679  0.00  0.00    -0.269 OA
ATOM      7  C   UNL     1      10.231  -7.205  -3.153  0.00  0.00    +0.052 A 
ATOM      8  C   UNL     1      11.412  -7.778  -3.592  0.00  0.00    +0.014 A 
ATOM      9  C   UNL     1      11.999  -8.801  -2.860  0.00  0.00    +0.003 A 
ATOM     10  C   UNL     1      11.417  -9.256  -1.696  0.00  0.00    +0.023 A 
ATOM     11  C   UNL     1      10.226  -8.691  -1.234  0.00  0.00    +0.038 A 
ATOM     12  C   UNL     1       9.627  -7.664  -1.961  0.00  0.00    +0.070 A 
ATOM     13  C   UNL     1       8.409  -6.856  -1.788  0.00  0.00    +0.262 C 
ATOM     14  O   UNL     1       7.618  -6.955  -0.872  0.00  0.00    -0.269 OA
BRANCH  11  15
ATOM     15  N   UNL     1       9.644  -9.150  -0.062  0.00  0.00    -0.357 N 
ATOM     16  H   UNL     1       8.816  -8.756   0.255  0.00  0.00    +0.142 HD
ATOM     17  H   UNL     1      10.064  -9.866   0.441  0.00  0.00    +0.142 HD
ENDBRANCH  11  15
ENDBRANCH   1   2
BRANCH   1  20
ATOM     18  C   UNL     1       3.935  -4.201  -1.923  0.00  0.00    +0.245 C 
ATOM     19  O   UNL     1       3.684  -5.043  -1.082  0.00  0.00    -0.270 OA
ATOM     20  N   UNL     1       5.187  -4.086  -2.407  0.00  0.00    -0.300 N 
ATOM     21  H   UNL     1       5.388  -3.414  -3.078  0.00  0.00    +0.150 HD
BRANCH  18  26
ATOM     22  C   UNL     1       0.578  -2.580  -2.374  0.00  0.00    +0.106 A 
ATOM     23  C   UNL     1       0.866  -1.626  -3.334  0.00  0.00    +0.028 A 
ATOM     24  C   UNL     1       2.152  -1.502  -3.830  0.00  0.00    +0.003 A 
ATOM     25  C   UNL     1       3.153  -2.336  -3.377  0.00  0.00    +0.013 A 
ATOM     26  C   UNL     1       2.867  -3.304  -2.413  0.00  0.00    +0.039 A 
ATOM     27  C   UNL     1       1.569  -3.420  -1.913  0.00  0.00    +0.041 A 
BRANCH  22  28
ATOM     28  S   UNL     1      -1.062  -2.726  -1.745  0.00  0.00    +0.061 S 
ATOM     29  O   UNL     1      -1.194  -4.055  -1.261  0.00  0.00    -0.153 OA
ATOM     30  O   UNL     1      -1.926  -2.185  -2.735  0.00  0.00    -0.153 OA
BRANCH  28  31
ATOM     31  N   UNL     1      -1.171  -1.729  -0.427  0.00  0.00    -0.177 NA
BRANCH  31  33
ATOM     32  C   UNL     1      -0.356   0.559  -0.712  0.00  0.00    +0.022 C 
ATOM     33  C   UNL     1      -1.591  -0.336  -0.594  0.00  0.00    +0.106 C 
ENDBRANCH  31  33
BRANCH  31  34
ATOM     34  C   UNL     1      -0.846  -2.241   0.907  0.00  0.00    +0.106 C 
ATOM     35  C   UNL     1      -2.129  -2.699   1.604  0.00  0.00    +0.022 C 
ENDBRANCH  31  34
ENDBRANCH  28  31
ENDBRANCH  22  28
ENDBRANCH  18  26
ENDBRANCH   1  20
BRANCH   1  36
ATOM     36  C   UNL     1       6.847  -4.399  -0.638  0.00  0.00    +0.012 C 
ATOM     37  C   UNL     1       7.360  -2.982  -0.906  0.00  0.00    +0.009 C 
ATOM     38  C   UNL     1       5.774  -4.354   0.452  0.00  0.00    +0.009 C 
ENDBRANCH   1  36
TORSDOF 9
