REMARK  Name = ZINC41269851
REMARK  8 active torsions:
REMARK  status: ('A' for Active; 'I' for Inactive)
REMARK    1  A    between atoms: C_1  and  C_2
REMARK    2  A    between atoms: C_4  and  C_21
REMARK    3  A    between atoms: C_7  and  N_8
REMARK    4  A    between atoms: C_9  and  C_11
REMARK    5  A    between atoms: N_13  and  C_14
REMARK    6  A    between atoms: C_14  and  C_15
REMARK    7  A    between atoms: C_14  and  C_18
REMARK    8  A    between atoms: N_23  and  C_24
REMARK                            x       y       z     vdW  Elec       q    Type
REMARK                         _______ _______ _______ _____ _____    ______ ____
ROOT
ATOM      1  N   UNL     1      -0.766  -0.112   2.418  0.00  0.00    -0.278 N 
ATOM      2  C   UNL     1      -0.466  -0.734   3.575  0.00  0.00    +0.303 C 
ATOM      3  O   UNL     1      -0.116  -1.896   3.566  0.00  0.00    -0.265 OA
ATOM      4  H   UNL     1      -0.980   0.834   2.417  0.00  0.00    +0.155 HD
ENDROOT
BRANCH   1  11
ATOM      5  C   UNL     1      -2.670   0.613   0.438  0.00  0.00    +0.045 C 
ATOM      6  C   UNL     1      -1.684  -0.507   0.225  0.00  0.00    -0.029 A 
ATOM      7  C   UNL     1      -1.687  -1.209  -0.960  0.00  0.00    +0.018 A 
ATOM      8  C   UNL     1      -0.772  -2.247  -1.157  0.00  0.00    +0.037 A 
ATOM      9  C   UNL     1       0.142  -2.570  -0.150  0.00  0.00    +0.015 A 
ATOM     10  C   UNL     1       0.139  -1.864   1.032  0.00  0.00    +0.024 A 
ATOM     11  C   UNL     1      -0.769  -0.827   1.223  0.00  0.00    +0.037 A 
BRANCH   8  12
ATOM     12  C   UNL     1      -0.772  -3.002  -2.425  0.00  0.00    +0.244 C 
ATOM     13  O   UNL     1      -1.569  -2.721  -3.300  0.00  0.00    -0.270 OA
ATOM     14  N   UNL     1       0.110  -4.003  -2.614  0.00  0.00    -0.314 N 
ATOM     15  C   UNL     1       0.110  -4.752  -3.873  0.00  0.00    +0.128 C 
ATOM     16  H   UNL     1       0.745  -4.228  -1.916  0.00  0.00    +0.149 HD
ENDBRANCH   8  12
ENDBRANCH   1  11
BRANCH   2  17
ATOM     17  C   UNL     1      -0.563   0.007   4.868  0.00  0.00    +0.300 C 
ATOM     18  O   UNL     1      -0.913   1.169   4.877  0.00  0.00    -0.265 OA
ATOM     19  N   UNL     1      -0.263  -0.616   6.026  0.00  0.00    -0.304 N 
ATOM     20  H   UNL     1       0.017  -1.544   6.018  0.00  0.00    +0.149 HD
BRANCH  19  21
ATOM     21  C   UNL     1      -0.358   0.111   7.294  0.00  0.00    +0.080 C 
BRANCH  21  22
ATOM     22  C   UNL     1      -0.924  -0.817   8.371  0.00  0.00    +0.010 C 
ATOM     23  C   UNL     1      -2.282  -0.452   8.975  0.00  0.00    +0.006 C 
ATOM     24  C   UNL     1      -1.006  -0.273   9.800  0.00  0.00    +0.006 C 
ENDBRANCH  21  22
BRANCH  21  25
ATOM     25  C   UNL     1       1.033   0.590   7.713  0.00  0.00    +0.010 C 
ATOM     26  C   UNL     1       1.192   2.068   8.073  0.00  0.00    +0.006 C 
ATOM     27  C   UNL     1       1.772   1.533   6.762  0.00  0.00    +0.006 C 
ENDBRANCH  21  25
ENDBRANCH  19  21
ENDBRANCH   2  17
TORSDOF 6
