REMARK  Name = ZINC55611331
REMARK  7 active torsions:
REMARK  status: ('A' for Active; 'I' for Inactive)
REMARK    1  A    between atoms: C_1  and  C_2
REMARK    2  A    between atoms: C_2  and  N_3
REMARK    3  A    between atoms: C_4  and  C_6
REMARK    4  A    between atoms: C_9  and  C_26
REMARK    5  A    between atoms: C_10  and  N_12
REMARK    6  A    between atoms: N_12  and  S_13
REMARK    7  A    between atoms: S_13  and  C_16
REMARK                            x       y       z     vdW  Elec       q    Type
REMARK                         _______ _______ _______ _____ _____    ______ ____
ROOT
ATOM      1  N   UNL     1       2.451  -5.451  -4.260  0.00  0.00    -0.098 NA
ENDROOT
BRANCH   1   6
ATOM      2  C   UNL     1       1.519  -2.276  -2.642  0.00  0.00    +0.039 A 
ATOM      3  C   UNL     1       2.034  -1.358  -3.559  0.00  0.00    +0.013 A 
ATOM      4  C   UNL     1       2.680  -1.806  -4.694  0.00  0.00    +0.006 A 
ATOM      5  C   UNL     1       2.818  -3.161  -4.927  0.00  0.00    -0.026 A 
ATOM      6  C   UNL     1       2.309  -4.082  -4.020  0.00  0.00    +0.078 A 
ATOM      7  C   UNL     1       1.664  -3.643  -2.873  0.00  0.00    +0.040 A 
ATOM      8  C   UNL     1       3.524  -3.641  -6.169  0.00  0.00    +0.046 C 
BRANCH   2  10
ATOM      9  N   UNL     1       0.688  -0.476  -1.203  0.00  0.00    -0.312 N 
ATOM     10  C   UNL     1       0.827  -1.799  -1.425  0.00  0.00    +0.244 C 
ATOM     11  O   UNL     1       0.383  -2.599  -0.625  0.00  0.00    -0.270 OA
ATOM     12  H   UNL     1       1.042   0.162  -1.842  0.00  0.00    +0.149 HD
BRANCH   9  14
ATOM     13  C   UNL     1      -0.019   1.526   0.010  0.00  0.00    +0.024 C 
ATOM     14  C   UNL     1       0.002  -0.004   0.002  0.00  0.00    +0.101 C 
ENDBRANCH   9  14
ENDBRANCH   2  10
ENDBRANCH   1   6
BRANCH   1  15
ATOM     15  S   UNL     1       1.844  -6.549  -3.179  0.00  0.00    +0.088 S 
ATOM     16  O   UNL     1       2.598  -6.401  -1.983  0.00  0.00    -0.149 OA
ATOM     17  O   UNL     1       0.430  -6.411  -3.210  0.00  0.00    -0.149 OA
BRANCH  15  18
ATOM     18  C   UNL     1       2.207  -8.155  -3.807  0.00  0.00    +0.089 C 
ATOM     19  C   UNL     1       1.240  -8.872  -4.356  0.00  0.00    +0.032 C 
ATOM     20  C   UNL     1       1.528 -10.233  -4.852  0.00  0.00    -0.020 A 
ATOM     21  C   UNL     1       0.654 -10.875  -5.727  0.00  0.00    +0.008 A 
ATOM     22  C   UNL     1       0.956 -12.142  -6.186  0.00  0.00    +0.001 A 
ATOM     23  C   UNL     1       2.120 -12.769  -5.781  0.00  0.00    +0.000 A 
ATOM     24  C   UNL     1       2.988 -12.138  -4.907  0.00  0.00    +0.004 A 
ATOM     25  C   UNL     1       2.694 -10.877  -4.436  0.00  0.00    -0.040 A 
ATOM     26  C   UNL     1       3.607 -10.191  -3.454  0.00  0.00    +0.042 C 
ATOM     27  C   UNL     1       3.612  -8.683  -3.716  0.00  0.00    +0.061 C 
ENDBRANCH  15  18
ENDBRANCH   1  15
TORSDOF 5
