REMARK  Name = ZINC16457406
REMARK  11 active torsions:
REMARK  status: ('A' for Active; 'I' for Inactive)
REMARK    1  A    between atoms: C_1  and  O_2
REMARK    2  A    between atoms: O_2  and  C_3
REMARK    3  A    between atoms: C_3  and  C_4
REMARK    4  A    between atoms: C_4  and  C_5
REMARK    5  A    between atoms: C_5  and  N_6
REMARK    6  A    between atoms: C_7  and  N_17
REMARK    7  A    between atoms: N_17  and  C_18
REMARK    8  A    between atoms: C_21  and  C_24
REMARK    9  A    between atoms: N_26  and  C_27
REMARK   10  A    between atoms: C_27  and  C_28
REMARK   11  A    between atoms: C_27  and  C_34
REMARK                            x       y       z     vdW  Elec       q    Type
REMARK                         _______ _______ _______ _____ _____    ______ ____
ROOT
ATOM      1  C   UNL     1      -1.225   1.635  -0.100  0.00  0.00    +0.029 A 
ATOM      2  C   UNL     1      -1.244   3.011  -0.310  0.00  0.00    +0.024 A 
ATOM      3  C   UNL     1      -2.444   3.675  -0.423  0.00  0.00    +0.015 A 
ATOM      4  C   UNL     1      -3.645   2.968  -0.314  0.00  0.00    +0.037 A 
ATOM      5  C   UNL     1      -3.623   1.587  -0.097  0.00  0.00    +0.015 A 
ATOM      6  C   UNL     1      -2.420   0.928   0.009  0.00  0.00    +0.024 A 
ENDROOT
BRANCH   4   7
ATOM      7  C   UNL     1      -4.934   3.678  -0.429  0.00  0.00    +0.245 C 
ATOM      8  O   UNL     1      -5.978   3.061  -0.335  0.00  0.00    -0.270 OA
ATOM      9  N   UNL     1      -4.953   5.009  -0.638  0.00  0.00    -0.301 N 
ATOM     10  H   UNL     1      -4.120   5.500  -0.713  0.00  0.00    +0.150 HD
BRANCH   9  11
ATOM     11  C   UNL     1      -6.233   5.713  -0.752  0.00  0.00    +0.134 C 
BRANCH  11  12
ATOM     12  C   UNL     1      -6.045   7.159  -0.371  0.00  0.00    -0.023 A 
ATOM     13  C   UNL     1      -4.907   7.837  -0.766  0.00  0.00    +0.006 A 
ATOM     14  C   UNL     1      -4.737   9.164  -0.421  0.00  0.00    +0.000 A 
ATOM     15  C   UNL     1      -5.702   9.812   0.329  0.00  0.00    +0.000 A 
ATOM     16  C   UNL     1      -6.838   9.133   0.729  0.00  0.00    +0.000 A 
ATOM     17  C   UNL     1      -7.009   7.807   0.379  0.00  0.00    +0.006 A 
ENDBRANCH  11  12
BRANCH  11  18
ATOM     18  C   UNL     1      -6.728   5.629  -2.173  0.00  0.00    -0.023 A 
ATOM     19  C   UNL     1      -5.839   5.760  -3.224  0.00  0.00    +0.006 A 
ATOM     20  C   UNL     1      -6.293   5.678  -4.527  0.00  0.00    +0.000 A 
ATOM     21  C   UNL     1      -7.637   5.474  -4.779  0.00  0.00    +0.000 A 
ATOM     22  C   UNL     1      -8.526   5.347  -3.729  0.00  0.00    +0.000 A 
ATOM     23  C   UNL     1      -8.072   5.425  -2.425  0.00  0.00    +0.006 A 
ENDBRANCH  11  18
ENDBRANCH   9  11
ENDBRANCH   4   7
BRANCH   1  24
ATOM     24  N   UNL     1      -0.011   0.966   0.007  0.00  0.00    -0.322 N 
ATOM     25  H   UNL     1       0.007  -0.003   0.050  0.00  0.00    +0.148 HD
BRANCH  24  27
ATOM     26  N   UNL     1       1.929   1.636  -1.243  0.00  0.00    -0.275 N 
ATOM     27  C   UNL     1       1.242   1.724   0.050  0.00  0.00    +0.193 C 
ATOM     28  C   UNL     1       2.178   1.121   1.068  0.00  0.00    +0.003 A 
ATOM     29  C   UNL     1       2.092   0.925   2.427  0.00  0.00    +0.008 A 
ATOM     30  C   UNL     1       3.141   0.330   3.107  0.00  0.00    +0.000 A 
ATOM     31  C   UNL     1       4.277  -0.068   2.424  0.00  0.00    +0.001 A 
ATOM     32  C   UNL     1       4.373   0.125   1.061  0.00  0.00    +0.013 A 
ATOM     33  C   UNL     1       3.319   0.724   0.368  0.00  0.00    +0.043 A 
ATOM     34  C   UNL     1       3.128   1.058  -1.056  0.00  0.00    +0.249 C 
ATOM     35  O   UNL     1       3.940   0.841  -1.935  0.00  0.00    -0.270 OA
BRANCH  26  36
ATOM     36  C   UNL     1       1.397   2.100  -2.526  0.00  0.00    +0.112 C 
BRANCH  36  37
ATOM     37  C   UNL     1       1.801   3.559  -2.748  0.00  0.00    +0.047 C 
BRANCH  37  38
ATOM     38  C   UNL     1       1.245   4.045  -4.088  0.00  0.00    +0.161 C 
BRANCH  38  40
ATOM     39  C   UNL     1       1.151   5.960  -5.525  0.00  0.00    +0.193 C 
ATOM     40  O   UNL     1       1.622   5.407  -4.295  0.00  0.00    -0.383 OA
ENDBRANCH  38  40
ENDBRANCH  37  38
ENDBRANCH  36  37
ENDBRANCH  26  36
ENDBRANCH  24  27
ENDBRANCH   1  24
TORSDOF 10
