REMARK  Name = ZINC11897810
REMARK  8 active torsions:
REMARK  status: ('A' for Active; 'I' for Inactive)
REMARK    1  A    between atoms: C_1  and  C_2
REMARK    2  A    between atoms: C_7  and  S_8
REMARK    3  A    between atoms: S_8  and  N_11
REMARK    4  A    between atoms: N_11  and  C_12
REMARK    5  A    between atoms: C_12  and  C_13
REMARK    6  A    between atoms: C_13  and  C_15
REMARK    7  A    between atoms: C_13  and  N_55
REMARK    8  A    between atoms: N_19  and  C_20
REMARK                            x       y       z     vdW  Elec       q    Type
REMARK                         _______ _______ _______ _____ _____    ______ ____
ROOT
ATOM      1  C   UNL     1      -0.890  -1.747   1.109  0.00  0.00    -0.005 C 
ENDROOT
BRANCH   1   8
ATOM      2  C   UNL     1      -0.013   0.303   0.149  0.00  0.00    -0.078 C 
ATOM      3  C   UNL     1       0.139   1.736   0.594  0.00  0.00    -0.019 C 
ATOM      4  C   UNL     1       1.615   2.168   0.621  0.00  0.00    -0.002 C 
ATOM      5  C   UNL     1       2.530   1.063   1.186  0.00  0.00    -0.002 C 
ATOM      6  C   UNL     1       1.930   0.370   2.383  0.00  0.00    -0.019 C 
ATOM      7  C   UNL     1       1.158  -0.880   1.908  0.00  0.00    -0.078 C 
ATOM      8  N   UNL     1      -0.116  -0.524   1.392  0.00  0.00    +0.386 N 
ATOM      9  H   UNL     1      -0.611   0.024   2.106  0.00  0.00    -0.081 HD
ENDBRANCH   1   8
BRANCH   1  10
ATOM     10  C   UNL     1      -1.276  -2.371   2.425  0.00  0.00    +0.006 A 
ATOM     11  C   UNL     1      -1.061  -1.840   3.645  0.00  0.00    +0.021 A 
ATOM     12  C   UNL     1      -1.575  -2.745   4.596  0.00  0.00    +0.019 A 
ATOM     13  C   UNL     1      -2.085  -3.794   3.919  0.00  0.00    +0.085 A 
ATOM     14  N   UNL     1      -1.910  -3.568   2.586  0.00  0.00    -0.355 N 
ATOM     15  C   UNL     1      -2.329  -4.464   1.506  0.00  0.00    +0.148 C 
ENDBRANCH   1  10
BRANCH   1  16
ATOM     16  C   UNL     1      -0.075  -2.749   0.288  0.00  0.00    +0.096 C 
BRANCH  16  17
ATOM     17  N   UNL     1       0.299  -2.143  -0.992  0.00  0.00    -0.191 NA
ATOM     18  H   UNL     1      -0.172  -1.359  -1.313  0.00  0.00    +0.148 HD
BRANCH  17  19
ATOM     19  S   UNL     1       1.526  -2.798  -1.890  0.00  0.00    +0.059 S 
ATOM     20  O   UNL     1       1.607  -2.033  -3.085  0.00  0.00    -0.153 OA
ATOM     21  O   UNL     1       2.632  -2.958  -1.012  0.00  0.00    -0.153 OA
BRANCH  19  28
ATOM     22  C   UNL     1      -0.827  -3.382  -3.698  0.00  0.00    +0.046 C 
ATOM     23  C   UNL     1      -0.071  -4.585  -3.196  0.00  0.00    -0.024 A 
ATOM     24  C   UNL     1      -0.469  -5.856  -3.567  0.00  0.00    +0.007 A 
ATOM     25  C   UNL     1       0.223  -6.960  -3.106  0.00  0.00    +0.020 A 
ATOM     26  C   UNL     1       1.315  -6.793  -2.273  0.00  0.00    +0.043 A 
ATOM     27  C   UNL     1       1.716  -5.521  -1.905  0.00  0.00    +0.048 A 
ATOM     28  C   UNL     1       1.019  -4.418  -2.363  0.00  0.00    +0.110 A 
ATOM     29 CL   UNL     1       2.185  -8.178  -1.693  0.00  0.00    -0.083 Cl
ENDBRANCH  19  28
ENDBRANCH  17  19
ENDBRANCH  16  17
ENDBRANCH   1  16
TORSDOF 6
