REMARK  Name = ZINC34774393
REMARK  8 active torsions:
REMARK  status: ('A' for Active; 'I' for Inactive)
REMARK    1  A    between atoms: C_1  and  C_2
REMARK    2  A    between atoms: C_2  and  N_3
REMARK    3  A    between atoms: C_11  and  C_23
REMARK    4  A    between atoms: C_16  and  S_18
REMARK    5  A    between atoms: S_18  and  C_19
REMARK    6  A    between atoms: C_19  and  C_20
REMARK    7  A    between atoms: C_20  and  C_21
REMARK    8  A    between atoms: C_20  and  C_22
REMARK                            x       y       z     vdW  Elec       q    Type
REMARK                         _______ _______ _______ _____ _____    ______ ____
ROOT
ATOM      1  N   UNL     1      -3.426   0.271   1.101  0.00  0.00    +0.382 N 
ATOM      2  C   UNL     1      -4.559  -0.551   1.545  0.00  0.00    -0.060 C 
ATOM      3  C   UNL     1      -4.343  -2.001   1.100  0.00  0.00    +0.088 C 
ATOM      4  N   UNL     1      -4.117  -2.014  -0.354  0.00  0.00    -0.318 N 
ATOM      5  C   UNL     1      -3.107  -1.098  -0.906  0.00  0.00    +0.088 C 
ATOM      6  C   UNL     1      -3.382   0.310  -0.367  0.00  0.00    -0.060 C 
ATOM      7  C   UNL     1      -4.833  -2.864  -1.177  0.00  0.00    +0.134 A 
ATOM      8  C   UNL     1      -4.541  -4.254  -1.202  0.00  0.00    +0.055 A 
ATOM      9  C   UNL     1      -3.540  -5.007  -0.452  0.00  0.00    +0.002 A 
ATOM     10  C   UNL     1      -3.449  -6.343  -0.646  0.00  0.00    +0.056 A 
ATOM     11  S   UNL     1      -4.714  -6.674  -1.858  0.00  0.00    -0.076 S 
ATOM     12  C   UNL     1      -5.332  -5.027  -2.076  0.00  0.00    +0.115 A 
ATOM     13  N   UNL     1      -6.277  -4.479  -2.816  0.00  0.00    -0.215 NA
ATOM     14  C   UNL     1      -6.506  -3.174  -2.753  0.00  0.00    +0.191 A 
ATOM     15  N   UNL     1      -5.800  -2.390  -1.946  0.00  0.00    -0.206 NA
ATOM     16  H   UNL     1      -2.567  -0.127   1.451  0.00  0.00    -0.082 HD
ENDROOT
BRANCH   9  17
ATOM     17  C   UNL     1      -2.639  -4.321   0.504  0.00  0.00    -0.017 A 
ATOM     18  C   UNL     1      -1.784  -3.313   0.059  0.00  0.00    +0.008 A 
ATOM     19  C   UNL     1      -0.947  -2.677   0.954  0.00  0.00    +0.001 A 
ATOM     20  C   UNL     1      -0.956  -3.038   2.289  0.00  0.00    +0.000 A 
ATOM     21  C   UNL     1      -1.802  -4.037   2.736  0.00  0.00    +0.001 A 
ATOM     22  C   UNL     1      -2.647  -4.676   1.852  0.00  0.00    +0.008 A 
ENDBRANCH   9  17
BRANCH   1  24
ATOM     23  C   UNL     1      -3.501   1.611   3.149  0.00  0.00    -0.017 C 
ATOM     24  C   UNL     1      -3.579   1.636   1.621  0.00  0.00    -0.082 C 
ENDBRANCH   1  24
BRANCH  14  25
ATOM     25  S   UNL     1      -7.773  -2.468  -3.753  0.00  0.00    -0.086 S 
BRANCH  25  26
ATOM     26  C   UNL     1      -8.454  -3.882  -4.661  0.00  0.00    +0.080 C 
BRANCH  26  27
ATOM     27  C   UNL     1      -9.580  -3.404  -5.580  0.00  0.00    -0.007 C 
ATOM     28  C   UNL     1     -10.070  -4.573  -6.437  0.00  0.00    +0.008 C 
ATOM     29  C   UNL     1     -10.738  -2.872  -4.734  0.00  0.00    +0.008 C 
ENDBRANCH  26  27
ENDBRANCH  25  26
ENDBRANCH  14  25
TORSDOF 5
