REMARK  Name = ZINC36571265
REMARK  14 active torsions:
REMARK  status: ('A' for Active; 'I' for Inactive)
REMARK    1  A    between atoms: C_1  and  C_2
REMARK    2  A    between atoms: C_2  and  C_3
REMARK    3  A    between atoms: C_3  and  N_4
REMARK    4  A    between atoms: N_4  and  C_5
REMARK    5  A    between atoms: C_5  and  C_7
REMARK    6  A    between atoms: C_5  and  C_17
REMARK    7  A    between atoms: C_10  and  C_13
REMARK    8  A    between atoms: N_19  and  C_20
REMARK    9  A    between atoms: C_20  and  C_21
REMARK   10  A    between atoms: C_20  and  C_22
REMARK   11  A    between atoms: C_20  and  C_23
REMARK   12  A    between atoms: C_24  and  C_26
REMARK   13  A    between atoms: C_30  and  O_33
REMARK   14  A    between atoms: C_31  and  O_32
REMARK                            x       y       z     vdW  Elec       q    Type
REMARK                         _______ _______ _______ _____ _____    ______ ____
ROOT
ATOM      1  C   UNL     1       0.788  -3.212  -0.263  0.00  0.00    +0.192 C 
ENDROOT
BRANCH   1   2
ATOM      2  C   UNL     1       2.255  -2.866  -0.233  0.00  0.00    -0.018 A 
ATOM      3  C   UNL     1       2.669  -1.655   0.289  0.00  0.00    +0.006 A 
ATOM      4  C   UNL     1       4.015  -1.339   0.317  0.00  0.00    +0.013 A 
ATOM      5  C   UNL     1       4.946  -2.233  -0.177  0.00  0.00    +0.055 A 
ATOM      6  C   UNL     1       4.531  -3.445  -0.698  0.00  0.00    +0.013 A 
ATOM      7  C   UNL     1       3.186  -3.763  -0.722  0.00  0.00    +0.006 A 
BRANCH   5   8
ATOM      8  C   UNL     1       6.412  -1.887  -0.147  0.00  0.00    +0.417 C 
ATOM      9  F   UNL     1       6.971  -2.330   1.056  0.00  0.00    -0.166 F 
ATOM     10  F   UNL     1       7.060  -2.511  -1.220  0.00  0.00    -0.166 F 
ATOM     11  F   UNL     1       6.567  -0.501  -0.252  0.00  0.00    -0.166 F 
ENDBRANCH   5   8
ENDBRANCH   1   2
BRANCH   1  12
ATOM     12  C   UNL     1       0.454  -3.869  -1.577  0.00  0.00    +0.238 C 
ATOM     13  O   UNL     1       0.073  -3.197  -2.512  0.00  0.00    -0.273 OA
ATOM     14  N   UNL     1       0.578  -5.204  -1.713  0.00  0.00    -0.309 N 
ATOM     15  H   UNL     1       0.883  -5.742  -0.965  0.00  0.00    +0.149 HD
BRANCH  14  16
ATOM     16  C   UNL     1       0.254  -5.844  -2.991  0.00  0.00    +0.026 C 
ATOM     17  C   UNL     1       1.154  -5.275  -4.089  0.00  0.00    +0.031 C 
ATOM     18  C   UNL     1       0.479  -7.353  -2.877  0.00  0.00    +0.031 C 
ATOM     19  C   UNL     1      -1.211  -5.571  -3.339  0.00  0.00    +0.031 C 
ENDBRANCH  14  16
ENDBRANCH   1  12
BRANCH   1  20
ATOM     20  N   UNL     1      -0.004  -1.989  -0.114  0.00  0.00    -0.282 N 
ATOM     21  C   UNL     1      -0.813  -1.836   0.954  0.00  0.00    +0.251 C 
ATOM     22  O   UNL     1      -1.431  -0.800   1.105  0.00  0.00    -0.270 OA
BRANCH  21  23
ATOM     23  C   UNL     1      -0.948  -2.926   1.939  0.00  0.00    +0.082 A 
ATOM     24  C   UNL     1       0.190  -3.554   2.453  0.00  0.00    +0.017 A 
ATOM     25  C   UNL     1       0.060  -4.571   3.373  0.00  0.00    +0.005 A 
ATOM     26  C   UNL     1      -1.196  -4.978   3.793  0.00  0.00    +0.049 A 
ATOM     27  C   UNL     1      -2.333  -4.367   3.292  0.00  0.00    +0.159 A 
ATOM     28  C   UNL     1      -2.217  -3.334   2.367  0.00  0.00    +0.171 A 
BRANCH  28  29
ATOM     29  O   UNL     1      -3.329  -2.728   1.878  0.00  0.00    -0.503 OA
ATOM     30  H   UNL     1      -3.684  -3.143   1.079  0.00  0.00    +0.292 HD
ENDBRANCH  28  29
BRANCH  27  31
ATOM     31  O   UNL     1      -3.562  -4.773   3.708  0.00  0.00    -0.503 OA
ATOM     32  H   UNL     1      -3.890  -4.300   4.486  0.00  0.00    +0.292 HD
ENDBRANCH  27  31
ENDBRANCH  21  23
BRANCH  20  33
ATOM     33  C   UNL     1       0.082  -0.932  -1.124  0.00  0.00    +0.109 C 
BRANCH  33  35
ATOM     34  C   UNL     1      -1.156   0.241  -2.950  0.00  0.00    +0.005 C 
ATOM     35  C   UNL     1      -1.280  -0.759  -1.799  0.00  0.00    +0.016 C 
ENDBRANCH  33  35
ENDBRANCH  20  33
ENDBRANCH   1  20
TORSDOF 10
