REMARK  Name = ZINC43548747
REMARK  14 active torsions:
REMARK  status: ('A' for Active; 'I' for Inactive)
REMARK    1  A    between atoms: C_1  and  C_2
REMARK    2  A    between atoms: N_9  and  C_10
REMARK    3  A    between atoms: C_12  and  O_18
REMARK    4  A    between atoms: C_15  and  O_16
REMARK    5  A    between atoms: O_16  and  C_17
REMARK    6  A    between atoms: O_18  and  C_19
REMARK    7  A    between atoms: C_21  and  C_41
REMARK    8  A    between atoms: C_24  and  O_40
REMARK    9  A    between atoms: C_26  and  C_30
REMARK   10  A    between atoms: C_30  and  C_32
REMARK   11  A    between atoms: C_30  and  C_33
REMARK   12  A    between atoms: N_35  and  C_36
REMARK   13  A    between atoms: N_35  and  C_37
REMARK   14  A    between atoms: C_37  and  C_38
REMARK                            x       y       z     vdW  Elec       q    Type
REMARK                         _______ _______ _______ _____ _____    ______ ____
ROOT
ATOM      1  C   UNL     1       3.128   3.123   0.806  0.00  0.00    +0.014 C 
ATOM      2  C   UNL     1       2.260   1.889   1.056  0.00  0.00    +0.042 C 
ATOM      3  C   UNL     1       0.895   2.322   1.566  0.00  0.00    +0.057 A 
ATOM      4  C   UNL     1       0.281   1.639   2.564  0.00  0.00    +0.015 A 
ATOM      5  S   UNL     1      -1.235   2.530   2.769  0.00  0.00    -0.057 S 
ATOM      6  C   UNL     1      -0.969   3.693   1.579  0.00  0.00    +0.163 A 
ATOM      7  N   UNL     1       0.211   3.365   1.099  0.00  0.00    -0.229 NA
ATOM      8  N   UNL     1      -1.793   4.741   1.199  0.00  0.00    -0.291 N 
ATOM      9  C   UNL     1       0.789   0.439   3.288  0.00  0.00    +0.051 C 
ATOM     10  C   UNL     1       1.982  -0.134   2.519  0.00  0.00    -0.022 C 
ATOM     11  C   UNL     1       2.932   0.994   2.103  0.00  0.00    +0.033 C 
ATOM     12  C   UNL     1       4.168   0.350   1.453  0.00  0.00    +0.123 C 
ATOM     13  C   UNL     1       3.725  -0.407   0.199  0.00  0.00    +0.029 C 
ATOM     14  C   UNL     1       2.726  -1.502   0.575  0.00  0.00    +0.007 C 
ATOM     15  C   UNL     1       1.512  -0.879   1.272  0.00  0.00    +0.008 C 
ATOM     16  C   UNL     1       2.746  -1.101   3.425  0.00  0.00    +0.012 C 
ATOM     17  H   UNL     1      -1.475   5.403   0.565  0.00  0.00    +0.154 HD
ENDROOT
BRANCH   8  18
ATOM     18  C   UNL     1      -3.084   4.846   1.731  0.00  0.00    +0.078 A 
ATOM     19  C   UNL     1      -3.773   3.703   2.111  0.00  0.00    +0.072 A 
ATOM     20  C   UNL     1      -5.051   3.810   2.638  0.00  0.00    +0.122 A 
ATOM     21  C   UNL     1      -5.640   5.057   2.785  0.00  0.00    +0.049 A 
ATOM     22  C   UNL     1      -4.955   6.197   2.407  0.00  0.00    +0.051 A 
ATOM     23  C   UNL     1      -3.676   6.097   1.886  0.00  0.00    +0.141 A 
BRANCH  23  24
ATOM     24  O   UNL     1      -3.001   7.220   1.519  0.00  0.00    -0.493 OA
ATOM     25  C   UNL     1      -3.669   8.469   1.705  0.00  0.00    +0.277 C 
ENDBRANCH  23  24
BRANCH  20  26
ATOM     26  O   UNL     1      -5.728   2.691   3.011  0.00  0.00    -0.495 OA
ATOM     27  C   UNL     1      -7.040   2.874   3.546  0.00  0.00    +0.277 C 
ENDBRANCH  20  26
ENDBRANCH   8  18
BRANCH  13  28
ATOM     28  C   UNL     1       4.946  -1.044  -0.467  0.00  0.00    +0.078 C 
ATOM     29  C   UNL     1       4.498  -1.850  -1.688  0.00  0.00    +0.017 C 
BRANCH  28  30
ATOM     30  C   UNL     1       5.633  -1.959   0.514  0.00  0.00    +0.219 C 
ATOM     31  O   UNL     1       4.997  -2.481   1.405  0.00  0.00    -0.275 OA
ATOM     32  N   UNL     1       6.955  -2.198   0.401  0.00  0.00    -0.301 N 
ATOM     33  C   UNL     1       7.738  -1.508  -0.627  0.00  0.00    +0.132 C 
BRANCH  32  34
ATOM     34  C   UNL     1       7.608  -3.147   1.306  0.00  0.00    +0.134 C 
BRANCH  34  35
ATOM     35  C   UNL     1       7.563  -4.527   0.704  0.00  0.00    -0.016 C 
ATOM     36  C   UNL     1       8.671  -5.206   0.539  0.00  0.00    +0.005 C 
ENDBRANCH  34  35
ENDBRANCH  32  34
ENDBRANCH  28  30
ENDBRANCH  13  28
BRANCH  12  37
ATOM     37  O   UNL     1       5.106   1.367   1.097  0.00  0.00    -0.391 OA
ATOM     38  H   UNL     1       5.949   1.026   0.768  0.00  0.00    +0.210 HD
ENDBRANCH  12  37
TORSDOF 8
