REMARK  Name = ZINC57458093
REMARK  7 active torsions:
REMARK  status: ('A' for Active; 'I' for Inactive)
REMARK    1  A    between atoms: C_1  and  C_2
REMARK    2  A    between atoms: C_3  and  C_19
REMARK    3  A    between atoms: C_4  and  C_12
REMARK    4  A    between atoms: N_6  and  C_11
REMARK    5  A    between atoms: N_9  and  C_10
REMARK    6  A    between atoms: N_21  and  C_22
REMARK    7  A    between atoms: C_27  and  C_28
REMARK                            x       y       z     vdW  Elec       q    Type
REMARK                         _______ _______ _______ _____ _____    ______ ____
ROOT
ATOM      1  C   UNL     1      -0.800   1.078   0.133  0.00  0.00    +0.061 C 
ATOM      2  C   UNL     1      -0.636  -0.417   0.227  0.00  0.00    +0.022 C 
ATOM      3  C   UNL     1      -1.705  -1.215   0.021  0.00  0.00    +0.056 C 
ATOM      4  C   UNL     1      -1.497  -2.713   0.125  0.00  0.00    +0.147 C 
ATOM      5  N   UNL     1      -0.136  -3.177   0.444  0.00  0.00    -0.277 N 
ATOM      6  C   UNL     1       0.831  -2.255   0.623  0.00  0.00    +0.309 C 
ATOM      7  O   UNL     1       1.957  -2.628   0.887  0.00  0.00    -0.252 OA
ATOM      8  N   UNL     1       0.592  -0.942   0.514  0.00  0.00    -0.262 N 
ATOM      9  C   UNL     1       1.709  -0.017   0.719  0.00  0.00    +0.139 C 
ATOM     10  C   UNL     1       0.159  -4.607   0.565  0.00  0.00    +0.134 C 
ENDROOT
BRANCH   4  11
ATOM     11  C   UNL     1      -1.901  -3.330  -1.189  0.00  0.00    +0.013 A 
ATOM     12  C   UNL     1      -0.936  -3.668  -2.120  0.00  0.00    +0.008 A 
ATOM     13  C   UNL     1      -1.307  -4.234  -3.325  0.00  0.00    +0.001 A 
ATOM     14  C   UNL     1      -2.642  -4.463  -3.602  0.00  0.00    +0.003 A 
ATOM     15  C   UNL     1      -3.608  -4.126  -2.673  0.00  0.00    +0.039 A 
ATOM     16  C   UNL     1      -3.238  -3.563  -1.462  0.00  0.00    +0.129 A 
ATOM     17  F   UNL     1      -4.181  -3.238  -0.552  0.00  0.00    -0.205 F 
ENDBRANCH   4  11
BRANCH   3  18
ATOM     18  C   UNL     1      -2.977  -0.672  -0.281  0.00  0.00    +0.248 C 
ATOM     19  O   UNL     1      -3.844  -0.638   0.573  0.00  0.00    -0.270 OA
ATOM     20  N   UNL     1      -3.229  -0.192  -1.516  0.00  0.00    -0.281 N 
ATOM     21  H   UNL     1      -2.565  -0.284  -2.216  0.00  0.00    +0.155 HD
BRANCH  20  22
ATOM     22  C   UNL     1      -4.448   0.438  -1.785  0.00  0.00    +0.045 A 
ATOM     23  C   UNL     1      -5.239   0.899  -0.741  0.00  0.00    +0.024 A 
ATOM     24  C   UNL     1      -6.442   1.521  -1.011  0.00  0.00    +0.002 A 
ATOM     25  C   UNL     1      -6.860   1.685  -2.319  0.00  0.00    +0.001 A 
ATOM     26  C   UNL     1      -6.074   1.227  -3.361  0.00  0.00    +0.014 A 
ATOM     27  C   UNL     1      -4.867   0.610  -3.098  0.00  0.00    +0.076 A 
BRANCH  27  28
ATOM     28  C   UNL     1      -4.009   0.117  -4.234  0.00  0.00    +0.419 C 
ATOM     29  F   UNL     1      -4.620   0.435  -5.452  0.00  0.00    -0.166 F 
ATOM     30  F   UNL     1      -2.752   0.728  -4.169  0.00  0.00    -0.166 F 
ATOM     31  F   UNL     1      -3.858  -1.270  -4.137  0.00  0.00    -0.166 F 
ENDBRANCH  27  28
ENDBRANCH  20  22
ENDBRANCH   3  18
TORSDOF 4
