REMARK  Name = ZINC31877673
REMARK  13 active torsions:
REMARK  status: ('A' for Active; 'I' for Inactive)
REMARK    1  A    between atoms: C_1  and  C_2
REMARK    2  A    between atoms: C_2  and  C_3
REMARK    3  A    between atoms: C_3  and  C_4
REMARK    4  A    between atoms: C_4  and  N_5
REMARK    5  A    between atoms: N_5  and  C_6
REMARK    6  A    between atoms: C_7  and  N_19
REMARK    7  A    between atoms: N_8  and  C_15
REMARK    8  A    between atoms: C_15  and  C_16
REMARK    9  A    between atoms: C_16  and  C_17
REMARK   10  A    between atoms: C_16  and  C_18
REMARK   11  A    between atoms: C_20  and  C_22
REMARK   12  A    between atoms: N_27  and  C_29
REMARK   13  A    between atoms: C_32  and  C_36
REMARK                            x       y       z     vdW  Elec       q    Type
REMARK                         _______ _______ _______ _____ _____    ______ ____
ROOT
ATOM      1  N   UNL     1      -6.294  -0.713   1.498  0.00  0.00    -0.264 N 
ATOM      2  C   UNL     1      -5.650   0.273   2.157  0.00  0.00    +0.225 C 
ATOM      3  O   UNL     1      -6.227   0.907   3.016  0.00  0.00    -0.275 OA
ENDROOT
BRANCH   1   4
ATOM      4  C   UNL     1      -7.661  -0.953   1.749  0.00  0.00    +0.140 A 
ATOM      5  C   UNL     1      -8.078  -1.414   2.981  0.00  0.00    +0.127 A 
ATOM      6  N   UNL     1      -9.418  -1.635   3.197  0.00  0.00    -0.280 N 
ATOM      7  C   UNL     1     -10.312  -1.414   2.215  0.00  0.00    +0.331 A 
ATOM      8  O   UNL     1     -11.492  -1.619   2.424  0.00  0.00    -0.246 OA
ATOM      9  N   UNL     1      -9.923  -0.969   1.007  0.00  0.00    -0.273 N 
ATOM     10  H   UNL     1     -10.670  -0.795   0.218  0.00  0.00    +0.173 HD
ATOM     11  C   UNL     1      -8.623  -0.733   0.745  0.00  0.00    +0.277 A 
ATOM     12  O   UNL     1      -8.281  -0.330  -0.354  0.00  0.00    -0.266 OA
BRANCH   5  13
ATOM     13  N   UNL     1      -7.165  -1.645   3.982  0.00  0.00    -0.343 N 
ATOM     14  H   UNL     1      -7.505  -2.012   4.962  0.00  0.00    +0.144 HD
ATOM     15  H   UNL     1      -6.095  -1.462   3.804  0.00  0.00    +0.144 HD
ENDBRANCH   5  13
BRANCH   6  16
ATOM     16  C   UNL     1      -9.876  -2.119   4.502  0.00  0.00    +0.131 C 
BRANCH  16  17
ATOM     17  C   UNL     1      -9.877  -3.649   4.506  0.00  0.00    +0.003 C 
ATOM     18  C   UNL     1      -8.442  -4.161   4.364  0.00  0.00    +0.009 C 
ATOM     19  C   UNL     1     -10.472  -4.155   5.822  0.00  0.00    +0.009 C 
ENDBRANCH  16  17
ENDBRANCH   6  16
ENDBRANCH   1   4
BRANCH   2  20
ATOM     20  C   UNL     1      -4.213   0.587   1.827  0.00  0.00    +0.102 C 
ATOM     21  C   UNL     1      -4.114   1.435   0.538  0.00  0.00    +0.110 C 
ATOM     22  C   UNL     1      -2.979   2.397   0.811  0.00  0.00    +0.221 C 
ATOM     23  O   UNL     1      -2.399   3.045  -0.035  0.00  0.00    -0.275 OA
ATOM     24  N   UNL     1      -2.705   2.427   2.127  0.00  0.00    -0.268 N 
ATOM     25  C   UNL     1      -3.600   1.539   2.878  0.00  0.00    +0.127 C 
BRANCH  24  26
ATOM     26  C   UNL     1      -1.699   3.210   2.706  0.00  0.00    +0.072 A 
ATOM     27  C   UNL     1      -0.419   2.697   2.858  0.00  0.00    +0.026 A 
ATOM     28  C   UNL     1       0.573   3.474   3.425  0.00  0.00    +0.005 A 
ATOM     29  C   UNL     1       0.291   4.760   3.847  0.00  0.00    -0.048 A 
ATOM     30  C   UNL     1      -0.985   5.274   3.703  0.00  0.00    +0.043 A 
ATOM     31  C   UNL     1      -1.982   4.502   3.136  0.00  0.00    +0.145 A 
ATOM     32  F   UNL     1      -3.229   5.005   2.994  0.00  0.00    -0.204 F 
ATOM     33  C   UNL     1       1.376   5.604   4.465  0.00  0.00    +0.044 C 
ENDBRANCH  24  26
ENDBRANCH   2  20
BRANCH   1  34
ATOM     34  C   UNL     1      -5.573  -1.533   0.521  0.00  0.00    +0.114 C 
BRANCH  34  35
ATOM     35  C   UNL     1      -4.918  -2.717   1.235  0.00  0.00    +0.019 C 
BRANCH  35  37
ATOM     36  C   UNL     1      -3.510  -4.758   0.929  0.00  0.00    +0.004 C 
ATOM     37  C   UNL     1      -4.165  -3.574   0.215  0.00  0.00    -0.002 C 
ENDBRANCH  35  37
ENDBRANCH  34  35
ENDBRANCH   1  34
TORSDOF 9
