REMARK  Name = ZINC18350890
REMARK  11 active torsions:
REMARK  status: ('A' for Active; 'I' for Inactive)
REMARK    1  A    between atoms: C_1  and  C_2
REMARK    2  A    between atoms: C_4  and  N_30
REMARK    3  A    between atoms: C_7  and  N_8
REMARK    4  A    between atoms: C_9  and  C_11
REMARK    5  A    between atoms: C_11  and  N_12
REMARK    6  A    between atoms: C_15  and  C_19
REMARK    7  A    between atoms: C_15  and  C_20
REMARK    8  A    between atoms: C_23  and  C_26
REMARK    9  A    between atoms: C_26  and  C_27
REMARK   10  A    between atoms: C_26  and  C_28
REMARK   11  A    between atoms: C_26  and  C_29
REMARK                            x       y       z     vdW  Elec       q    Type
REMARK                         _______ _______ _______ _____ _____    ______ ____
ROOT
ATOM      1  N   UNL     1       1.308  -0.349  -0.014  0.00  0.00    -0.215 N 
ATOM      2  C   UNL     1       0.008   0.009  -0.016  0.00  0.00    +0.251 C 
ATOM      3  O   UNL     1      -0.954  -0.728  -0.027  0.00  0.00    -0.272 OA
ATOM      4  C   UNL     1       0.001   1.525  -0.002  0.00  0.00    +0.135 C 
ATOM      5  N   UNL     1       1.431   1.878   0.008  0.00  0.00    -0.281 N 
ATOM      6  C   UNL     1       2.113   0.719  -0.000  0.00  0.00    +0.310 C 
ATOM      7  O   UNL     1       3.327   0.650   0.004  0.00  0.00    -0.252 OA
ATOM      8  C   UNL     1      -0.692   2.048   1.259  0.00  0.00    +0.047 C 
ATOM      9  H   UNL     1       1.806   2.772   0.018  0.00  0.00    +0.152 HD
ENDROOT
BRANCH   4  10
ATOM     10  C   UNL     1      -0.671   2.063  -1.239  0.00  0.00    -0.015 A 
ATOM     11  C   UNL     1      -1.669   1.334  -1.856  0.00  0.00    +0.006 A 
ATOM     12  C   UNL     1      -2.288   1.831  -2.989  0.00  0.00    +0.004 A 
ATOM     13  C   UNL     1      -1.901   3.051  -3.509  0.00  0.00    -0.042 A 
ATOM     14  C   UNL     1      -0.899   3.778  -2.894  0.00  0.00    +0.004 A 
ATOM     15  C   UNL     1      -0.283   3.284  -1.759  0.00  0.00    +0.006 A 
BRANCH  13  16
ATOM     16  C   UNL     1      -2.572   3.590  -4.747  0.00  0.00    -0.013 C 
ATOM     17  C   UNL     1      -1.528   3.784  -5.848  0.00  0.00    +0.015 C 
ATOM     18  C   UNL     1      -3.636   2.599  -5.222  0.00  0.00    +0.015 C 
ATOM     19  C   UNL     1      -3.232   4.932  -4.426  0.00  0.00    +0.015 C 
ENDBRANCH  13  16
ENDBRANCH   4  10
BRANCH   1  20
ATOM     20  C   UNL     1       1.779  -1.736  -0.026  0.00  0.00    +0.214 C 
BRANCH  20  22
ATOM     21  N   UNL     1       2.375  -3.449  -1.708  0.00  0.00    -0.284 N 
ATOM     22  C   UNL     1       1.947  -2.197  -1.451  0.00  0.00    +0.235 C 
ATOM     23  O   UNL     1       1.698  -1.441  -2.366  0.00  0.00    -0.274 OA
ATOM     24  H   UNL     1       2.654  -4.025  -0.980  0.00  0.00    +0.155 HD
BRANCH  21  31
ATOM     25  C   UNL     1       4.186  -5.551  -2.328  0.00  0.00    +0.046 C 
ATOM     26  C   UNL     1       3.288  -4.943  -3.373  0.00  0.00    -0.028 A 
ATOM     27  C   UNL     1       3.330  -5.404  -4.674  0.00  0.00    +0.028 A 
ATOM     28  C   UNL     1       2.501  -4.843  -5.637  0.00  0.00    +0.030 A 
ATOM     29  C   UNL     1       1.630  -3.818  -5.291  0.00  0.00    +0.025 A 
ATOM     30  C   UNL     1       1.585  -3.360  -3.990  0.00  0.00    +0.025 A 
ATOM     31  C   UNL     1       2.417  -3.917  -3.028  0.00  0.00    +0.036 A 
BRANCH  28  32
ATOM     32  N   UNL     1       2.543  -5.311  -6.954  0.00  0.00    -0.330 N 
ATOM     33  C   UNL     1       1.187  -5.684  -7.431  0.00  0.00    +0.105 C 
ATOM     34  C   UNL     1       1.332  -5.656  -8.973  0.00  0.00    +0.020 C 
ATOM     35  C   UNL     1       2.274  -4.454  -9.210  0.00  0.00    +0.020 C 
ATOM     36  C   UNL     1       3.019  -4.257  -7.876  0.00  0.00    +0.105 C 
ENDBRANCH  28  32
ENDBRANCH  21  31
ENDBRANCH  20  22
ENDBRANCH   1  20
TORSDOF 6
