REMARK  Name = ZINC36534750
REMARK  16 active torsions:
REMARK  status: ('A' for Active; 'I' for Inactive)
REMARK    1  A    between atoms: C_1  and  C_2
REMARK    2  A    between atoms: C_2  and  C_3
REMARK    3  A    between atoms: C_2  and  C_4
REMARK    4  A    between atoms: C_2  and  C_5
REMARK    5  A    between atoms: C_5  and  C_6
REMARK    6  A    between atoms: C_6  and  C_7
REMARK    7  A    between atoms: C_6  and  C_8
REMARK    8  A    between atoms: C_6  and  N_9
REMARK    9  A    between atoms: C_10  and  C_12
REMARK   10  A    between atoms: C_12  and  C_14
REMARK   11  A    between atoms: C_12  and  N_23
REMARK   12  A    between atoms: N_23  and  C_24
REMARK   13  A    between atoms: C_25  and  C_27
REMARK   14  A    between atoms: C_27  and  C_28
REMARK   15  A    between atoms: C_27  and  C_34
REMARK   16  A    between atoms: C_27  and  O_40
REMARK                            x       y       z     vdW  Elec       q    Type
REMARK                         _______ _______ _______ _____ _____    ______ ____
ROOT
ATOM      1  C   UNL     1       5.311  -0.351  -4.157  0.00  0.00    +0.192 C 
ENDROOT
BRANCH   1   2
ATOM      2  C   UNL     1       5.205  -1.840  -4.364  0.00  0.00    -0.015 A 
ATOM      3  C   UNL     1       4.713  -2.337  -5.556  0.00  0.00    +0.010 A 
ATOM      4  C   UNL     1       4.614  -3.703  -5.751  0.00  0.00    +0.050 A 
ATOM      5  C   UNL     1       5.007  -4.576  -4.750  0.00  0.00    +0.166 A 
ATOM      6  C   UNL     1       5.502  -4.075  -3.548  0.00  0.00    +0.167 A 
ATOM      7  C   UNL     1       5.604  -2.706  -3.362  0.00  0.00    +0.055 A 
ATOM      8  O   UNL     1       5.816  -5.125  -2.734  0.00  0.00    -0.453 OA
ATOM      9  C   UNL     1       5.129  -6.261  -3.290  0.00  0.00    +0.466 C 
ATOM     10  O   UNL     1       5.011  -5.939  -4.689  0.00  0.00    -0.453 OA
ENDBRANCH   1   2
BRANCH   1  12
ATOM     11  N   UNL     1       3.236  -0.210  -2.818  0.00  0.00    -0.308 N 
ATOM     12  C   UNL     1       4.558   0.038  -2.911  0.00  0.00    +0.238 C 
ATOM     13  O   UNL     1       5.141   0.575  -1.993  0.00  0.00    -0.273 OA
ATOM     14  H   UNL     1       2.770  -0.639  -3.552  0.00  0.00    +0.149 HD
BRANCH  11  15
ATOM     15  C   UNL     1       2.504   0.169  -1.607  0.00  0.00    +0.030 C 
ATOM     16  C   UNL     1       2.742   1.651  -1.309  0.00  0.00    +0.031 C 
ATOM     17  C   UNL     1       2.997  -0.674  -0.428  0.00  0.00    +0.031 C 
BRANCH  15  18
ATOM     18  C   UNL     1       1.008  -0.075  -1.818  0.00  0.00    +0.031 C 
BRANCH  18  20
ATOM     19  C   UNL     1       0.957  -0.629  -4.254  0.00  0.00    +0.010 C 
ATOM     20  C   UNL     1       0.601   0.426  -3.205  0.00  0.00    -0.036 C 
ATOM     21  C   UNL     1       1.345   1.726  -3.516  0.00  0.00    +0.010 C 
ATOM     22  C   UNL     1      -0.907   0.683  -3.231  0.00  0.00    +0.010 C 
ENDBRANCH  18  20
ENDBRANCH  15  18
ENDBRANCH  11  15
ENDBRANCH   1  12
BRANCH   1  23
ATOM     23  N   UNL     1       6.720   0.022  -4.012  0.00  0.00    -0.286 N 
ATOM     24  C   UNL     1       7.536  -0.590  -2.960  0.00  0.00    +0.133 C 
ATOM     25  C   UNL     1       7.266   0.929  -4.846  0.00  0.00    +0.257 C 
ATOM     26  O   UNL     1       6.574   1.491  -5.669  0.00  0.00    -0.272 OA
BRANCH  25  27
ATOM     27  C   UNL     1       8.737   1.244  -4.758  0.00  0.00    +0.192 C 
BRANCH  27  28
ATOM     28  C   UNL     1       9.215   1.787  -6.080  0.00  0.00    -0.003 A 
ATOM     29  C   UNL     1       9.248   3.152  -6.296  0.00  0.00    +0.007 A 
ATOM     30  C   UNL     1       9.686   3.650  -7.509  0.00  0.00    +0.000 A 
ATOM     31  C   UNL     1      10.092   2.783  -8.506  0.00  0.00    +0.000 A 
ATOM     32  C   UNL     1      10.060   1.418  -8.290  0.00  0.00    +0.000 A 
ATOM     33  C   UNL     1       9.626   0.920  -7.076  0.00  0.00    +0.007 A 
ENDBRANCH  27  28
BRANCH  27  34
ATOM     34  C   UNL     1       8.967   2.273  -3.681  0.00  0.00    -0.003 A 
ATOM     35  C   UNL     1       8.029   3.265  -3.461  0.00  0.00    +0.007 A 
ATOM     36  C   UNL     1       8.240   4.208  -2.473  0.00  0.00    +0.000 A 
ATOM     37  C   UNL     1       9.387   4.159  -1.704  0.00  0.00    +0.000 A 
ATOM     38  C   UNL     1      10.324   3.167  -1.923  0.00  0.00    +0.000 A 
ATOM     39  C   UNL     1      10.112   2.221  -2.908  0.00  0.00    +0.007 A 
ENDBRANCH  27  34
BRANCH  27  40
ATOM     40  O   UNL     1       9.462   0.054  -4.442  0.00  0.00    -0.371 OA
ATOM     41  H   UNL     1       9.360  -0.653  -5.094  0.00  0.00    +0.212 HD
ENDBRANCH  27  40
ENDBRANCH  25  27
ENDBRANCH   1  23
TORSDOF 10
