REMARK  Name = ZINC28119233
REMARK  8 active torsions:
REMARK  status: ('A' for Active; 'I' for Inactive)
REMARK    1  A    between atoms: C_1  and  C_2
REMARK    2  A    between atoms: C_2  and  C_3
REMARK    3  A    between atoms: C_3  and  C_4
REMARK    4  A    between atoms: C_3  and  C_5
REMARK    5  A    between atoms: C_3  and  C_6
REMARK    6  A    between atoms: C_14  and  N_19
REMARK    7  A    between atoms: N_19  and  S_20
REMARK    8  A    between atoms: S_20  and  C_23
REMARK                            x       y       z     vdW  Elec       q    Type
REMARK                         _______ _______ _______ _____ _____    ______ ____
ROOT
ATOM      1  C   UNL     1       4.254  10.656   7.389  0.00  0.00    -0.000 C 
ATOM      2  C   UNL     1       5.725  10.233   7.324  0.00  0.00    +0.012 C 
ATOM      3  C   UNL     1       5.812   8.720   7.093  0.00  0.00    +0.075 C 
ATOM      4  C   UNL     1       4.926   8.360   5.922  0.00  0.00    +0.109 A 
ATOM      5  C   UNL     1       3.964   9.168   5.444  0.00  0.00    +0.002 A 
ATOM      6  C   UNL     1       3.344   8.464   4.323  0.00  0.00    +0.025 A 
ATOM      7  C   UNL     1       2.313   8.758   3.430  0.00  0.00    +0.036 A 
ATOM      8  C   UNL     1       1.970   7.839   2.456  0.00  0.00    +0.049 A 
ATOM      9  C   UNL     1       2.647   6.624   2.370  0.00  0.00    +0.028 A 
ATOM     10  C   UNL     1       3.669   6.329   3.245  0.00  0.00    +0.049 A 
ATOM     11  C   UNL     1       4.028   7.239   4.231  0.00  0.00    +0.136 A 
ATOM     12  O   UNL     1       4.961   7.225   5.207  0.00  0.00    -0.459 OA
ATOM     13  C   UNL     1       3.627  10.528   5.995  0.00  0.00    +0.043 C 
ENDROOT
BRANCH   1  14
ATOM     14  C   UNL     1       4.161  12.109   7.859  0.00  0.00    -0.032 C 
ATOM     15  C   UNL     1       4.908  13.012   6.876  0.00  0.00    +0.011 C 
ATOM     16  C   UNL     1       2.692  12.531   7.925  0.00  0.00    +0.011 C 
BRANCH  14  18
ATOM     17  C   UNL     1       4.698  13.690   9.718  0.00  0.00    +0.004 C 
ATOM     18  C   UNL     1       4.791  12.237   9.248  0.00  0.00    +0.003 C 
ENDBRANCH  14  18
ENDBRANCH   1  14
BRANCH   8  19
ATOM     19  N   UNL     1       0.937   8.128   1.557  0.00  0.00    -0.216 N 
ATOM     20  H   UNL     1      -0.038   7.629   1.662  0.00  0.00    +0.174 HD
BRANCH  19  21
ATOM     21  S   UNL     1       1.182   9.220   0.337  0.00  0.00    +0.072 S 
ATOM     22  O   UNL     1       1.726  10.386   0.938  0.00  0.00    -0.150 OA
ATOM     23  O   UNL     1      -0.014   9.245  -0.431  0.00  0.00    -0.150 OA
BRANCH  21  24
ATOM     24  C   UNL     1       2.438   8.560  -0.709  0.00  0.00    +0.109 A 
ATOM     25  C   UNL     1       3.763   8.946  -0.518  0.00  0.00    +0.029 A 
ATOM     26  C   UNL     1       4.757   8.456  -1.307  0.00  0.00    +0.010 A 
ATOM     27  C   UNL     1       4.445   7.545  -2.332  0.00  0.00    -0.018 A 
ATOM     28  C   UNL     1       5.444   7.017  -3.167  0.00  0.00    +0.008 A 
ATOM     29  C   UNL     1       5.106   6.137  -4.148  0.00  0.00    +0.001 A 
ATOM     30  C   UNL     1       3.780   5.754  -4.342  0.00  0.00    +0.001 A 
ATOM     31  C   UNL     1       2.787   6.240  -3.549  0.00  0.00    +0.008 A 
ATOM     32  C   UNL     1       3.098   7.152  -2.525  0.00  0.00    -0.016 A 
ATOM     33  C   UNL     1       2.099   7.680  -1.690  0.00  0.00    +0.037 A 
ENDBRANCH  21  24
ENDBRANCH  19  21
ENDBRANCH   8  19
TORSDOF 5
