REMARK  Name = ZINC23648761
REMARK  4 active torsions:
REMARK  status: ('A' for Active; 'I' for Inactive)
REMARK    1  A    between atoms: C_12  and  C_14
REMARK    2  A    between atoms: C_14  and  S_15
REMARK    3  A    between atoms: S_15  and  C_16
REMARK    4  A    between atoms: C_18  and  C_25
REMARK                            x       y       z     vdW  Elec       q    Type
REMARK                         _______ _______ _______ _____ _____    ______ ____
ROOT
ATOM      1  S   UNL     1       4.517  -0.809  -0.477  0.00  0.00    -0.096 S 
ENDROOT
BRANCH   1   2
ATOM      2  C   UNL     1       3.679   0.739  -0.413  0.00  0.00    +0.109 A 
ATOM      3  C   UNL     1       2.274   0.788  -0.201  0.00  0.00    +0.047 A 
ATOM      4  C   UNL     1       1.323  -0.302  -0.012  0.00  0.00    +0.001 A 
ATOM      5  C   UNL     1       0.016  -0.001   0.174  0.00  0.00    +0.056 A 
ATOM      6  S   UNL     1      -0.014   1.780   0.106  0.00  0.00    -0.076 S 
ATOM      7  C   UNL     1       1.711   2.080  -0.168  0.00  0.00    +0.113 A 
ATOM      8  N   UNL     1       2.456   3.158  -0.325  0.00  0.00    -0.228 NA
ATOM      9  C   UNL     1       3.756   3.050  -0.519  0.00  0.00    +0.223 A 
ATOM     10  N   UNL     1       4.350   1.871  -0.561  0.00  0.00    -0.229 NA
BRANCH   4  11
ATOM     11  C   UNL     1       1.778  -1.712  -0.024  0.00  0.00    -0.016 A 
ATOM     12  C   UNL     1       1.242  -2.613  -0.943  0.00  0.00    +0.011 A 
ATOM     13  C   UNL     1       1.673  -3.924  -0.953  0.00  0.00    +0.039 A 
ATOM     14  C   UNL     1       2.629  -4.348  -0.044  0.00  0.00    +0.123 A 
ATOM     15  C   UNL     1       3.161  -3.458   0.875  0.00  0.00    +0.039 A 
ATOM     16  C   UNL     1       2.740  -2.144   0.889  0.00  0.00    +0.011 A 
ATOM     17  F   UNL     1       3.043  -5.634  -0.054  0.00  0.00    -0.205 F 
ENDBRANCH   4  11
ENDBRANCH   1   2
BRANCH   1  18
ATOM     18  C   UNL     1       6.211  -0.238  -0.758  0.00  0.00    +0.172 C 
BRANCH  18  30
ATOM     19  C   UNL     1      11.106  -4.444  -1.334  0.00  0.00    +0.002 A 
ATOM     20  C   UNL     1       9.968  -4.564  -0.557  0.00  0.00    +0.002 A 
ATOM     21  C   UNL     1       9.079  -3.508  -0.459  0.00  0.00    +0.025 A 
ATOM     22  C   UNL     1       9.332  -2.332  -1.141  0.00  0.00    +0.058 A 
ATOM     23  C   UNL     1      10.477  -2.207  -1.934  0.00  0.00    +0.055 A 
ATOM     24  C   UNL     1      11.362  -3.269  -2.030  0.00  0.00    +0.025 A 
ATOM     25  N   UNL     1      10.718  -1.011  -2.618  0.00  0.00    -0.283 N 
ATOM     26  C   UNL     1      10.028   0.105  -2.316  0.00  0.00    +0.235 C 
ATOM     27  O   UNL     1      10.222   1.120  -2.952  0.00  0.00    -0.274 OA
ATOM     28  C   UNL     1       9.016   0.109  -1.199  0.00  0.00    +0.209 C 
ATOM     29  N   UNL     1       8.452  -1.241  -1.058  0.00  0.00    -0.260 N 
ATOM     30  C   UNL     1       7.134  -1.426  -0.849  0.00  0.00    +0.230 C 
ATOM     31  O   UNL     1       6.689  -2.549  -0.736  0.00  0.00    -0.274 OA
ATOM     32  H   UNL     1      11.478  -0.975  -3.412  0.00  0.00    +0.155 HD
ENDBRANCH  18  30
ENDBRANCH   1  18
TORSDOF 4
