REMARK  Name = ZINC51360829
REMARK  5 active torsions:
REMARK  status: ('A' for Active; 'I' for Inactive)
REMARK    1  A    between atoms: C_1  and  C_2
REMARK    2  A    between atoms: C_7  and  C_23
REMARK    3  A    between atoms: N_9  and  C_10
REMARK    4  A    between atoms: C_10  and  C_11
REMARK    5  A    between atoms: C_12  and  C_20
REMARK                            x       y       z     vdW  Elec       q    Type
REMARK                         _______ _______ _______ _____ _____    ______ ____
ROOT
ATOM      1  C   UNL     1      -1.391  -0.838   2.034  0.00  0.00    +0.104 A 
ATOM      2  C   UNL     1      -1.665  -2.016   2.663  0.00  0.00    +0.110 A 
ATOM      3  C   UNL     1      -3.051  -2.358   2.282  0.00  0.00    +0.035 A 
ATOM      4  C   UNL     1      -3.908  -3.412   2.582  0.00  0.00    +0.012 A 
ATOM      5  C   UNL     1      -5.178  -3.432   2.046  0.00  0.00    +0.001 A 
ATOM      6  C   UNL     1      -5.598  -2.406   1.212  0.00  0.00    +0.004 A 
ATOM      7  C   UNL     1      -4.757  -1.357   0.909  0.00  0.00    +0.047 A 
ATOM      8  C   UNL     1      -3.474  -1.320   1.440  0.00  0.00    +0.136 A 
ATOM      9  O   UNL     1      -2.455  -0.442   1.329  0.00  0.00    -0.461 OA
ENDROOT
BRANCH   2  10
ATOM     10  C   UNL     1      -0.771  -2.784   3.536  0.00  0.00    +0.390 C 
ATOM     11  O   UNL     1       0.360  -2.375   3.764  0.00  0.00    -0.240 OA
ATOM     12  O   UNL     1      -1.156  -3.833   4.036  0.00  0.00    -0.240 OA
ENDBRANCH   2  10
BRANCH   1  13
ATOM     13  C   UNL     1      -0.084  -0.092   2.123  0.00  0.00    -0.001 C 
BRANCH  13  20
ATOM     14  C   UNL     1       0.255   1.108  -0.469  0.00  0.00    -0.013 C 
ATOM     15  C   UNL     1       0.343  -0.398  -0.216  0.00  0.00    -0.071 C 
ATOM     16  C   UNL     1       1.282  -1.034  -1.243  0.00  0.00    -0.016 C 
ATOM     17  C   UNL     1       2.674  -0.410  -1.109  0.00  0.00    -0.003 C 
ATOM     18  C   UNL     1       3.171  -0.600   0.328  0.00  0.00    -0.016 C 
ATOM     19  C   UNL     1       2.162   0.020   1.297  0.00  0.00    -0.071 C 
ATOM     20  N   UNL     1       0.859  -0.636   1.137  0.00  0.00    +0.388 N 
ATOM     21  C   UNL     1       2.654  -0.168   2.733  0.00  0.00    -0.013 C 
ATOM     22  H   UNL     1       0.963  -1.629   1.287  0.00  0.00    -0.080 HD
ENDBRANCH  13  20
ENDBRANCH   1  13
TORSDOF 3
