REMARK  Name = ZINC40724208
REMARK  2 active torsions:
REMARK  status: ('A' for Active; 'I' for Inactive)
REMARK    1  A    between atoms: C_1  and  C_2
REMARK    2  A    between atoms: N_12  and  C_13
REMARK                            x       y       z     vdW  Elec       q    Type
REMARK                         _______ _______ _______ _____ _____    ______ ____
ROOT
ATOM      1  C   UNL     1      -0.912  -1.463  -1.952  0.00  0.00    +0.009 C 
ATOM      2  C   UNL     1       0.211  -0.874  -1.095  0.00  0.00    +0.005 C 
ATOM      3  C   UNL     1      -0.346  -0.356   0.257  0.00  0.00    +0.024 C 
ATOM      4  C   UNL     1       0.902  -0.464   1.169  0.00  0.00    +0.108 C 
ATOM      5  N   UNL     1       1.585  -1.695   0.729  0.00  0.00    -0.300 N 
ATOM      6  C   UNL     1       1.204  -1.975  -0.666  0.00  0.00    +0.111 C 
ATOM      7  C   UNL     1       2.446  -2.461   1.501  0.00  0.00    +0.218 A 
ATOM      8  N   UNL     1       2.772  -2.222   2.738  0.00  0.00    -0.137 NA
ATOM      9  N   UNL     1       3.660  -3.223   3.153  0.00  0.00    -0.253 N 
ATOM     10  C   UNL     1       3.842  -4.059   2.110  0.00  0.00    +0.177 A 
ATOM     11  N   UNL     1       3.093  -3.602   1.087  0.00  0.00    -0.288 N 
ATOM     12  S   UNL     1       4.838  -5.452   2.091  0.00  0.00    -0.011 S 
ATOM     13  H   UNL     1       4.069  -3.301   4.030  0.00  0.00    +0.191 HD
ENDROOT
BRANCH  11  14
ATOM     14  C   UNL     1       2.989  -4.213  -0.240  0.00  0.00    +0.092 C 
ATOM     15  C   UNL     1       2.396  -5.633  -0.122  0.00  0.00    +0.025 C 
ATOM     16  C   UNL     1       3.161  -6.454  -1.190  0.00  0.00    +0.002 C 
ATOM     17  C   UNL     1       4.597  -5.882  -1.096  0.00  0.00    +0.002 C 
ATOM     18  C   UNL     1       4.388  -4.372  -0.859  0.00  0.00    +0.025 C 
ENDBRANCH  11  14
TORSDOF 1
