REMARK  Name = ZINC45962092
REMARK  10 active torsions:
REMARK  status: ('A' for Active; 'I' for Inactive)
REMARK    1  A    between atoms: C_1  and  C_2
REMARK    2  A    between atoms: C_2  and  C_3
REMARK    3  A    between atoms: C_3  and  N_4
REMARK    4  A    between atoms: N_4  and  C_5
REMARK    5  A    between atoms: C_15  and  N_16
REMARK    6  A    between atoms: N_16  and  S_17
REMARK    7  A    between atoms: S_17  and  C_20
REMARK    8  A    between atoms: C_22  and  C_28
REMARK    9  A    between atoms: C_23  and  C_27
REMARK   10  A    between atoms: C_25  and  C_26
REMARK                            x       y       z     vdW  Elec       q    Type
REMARK                         _______ _______ _______ _____ _____    ______ ____
ROOT
ATOM      1  C   UNL     1      -2.597  -2.711   0.116  0.00  0.00    +0.068 A 
ATOM      2  C   UNL     1      -2.600  -4.181   0.175  0.00  0.00    +0.040 A 
ATOM      3  C   UNL     1      -1.405  -4.902   0.214  0.00  0.00    +0.013 A 
ATOM      4  C   UNL     1      -1.440  -6.277   0.269  0.00  0.00    +0.001 A 
ATOM      5  C   UNL     1      -2.655  -6.946   0.285  0.00  0.00    +0.004 A 
ATOM      6  C   UNL     1      -3.843  -6.246   0.246  0.00  0.00    +0.047 A 
ATOM      7  C   UNL     1      -3.830  -4.858   0.191  0.00  0.00    +0.141 A 
ATOM      8  O   UNL     1      -4.986  -4.161   0.152  0.00  0.00    -0.421 OA
ATOM      9  C   UNL     1      -5.004  -2.820   0.098  0.00  0.00    +0.362 A 
ATOM     10  O   UNL     1      -6.077  -2.242   0.066  0.00  0.00    -0.243 OA
ATOM     11  C   UNL     1      -3.819  -2.063   0.085  0.00  0.00    +0.154 A 
ENDROOT
BRANCH   1  12
ATOM     12  N   UNL     1      -1.411  -1.999   0.098  0.00  0.00    -0.342 N 
ATOM     13  H   UNL     1      -0.563  -2.470   0.060  0.00  0.00    +0.146 HD
BRANCH  12  14
ATOM     14  C   UNL     1      -1.434  -0.535   0.137  0.00  0.00    +0.101 C 
BRANCH  14  16
ATOM     15  C   UNL     1      -0.032   1.523   0.339  0.00  0.00    +0.005 C 
ATOM     16  C   UNL     1      -0.007  -0.006   0.298  0.00  0.00    +0.015 C 
ENDBRANCH  14  16
ENDBRANCH  12  14
ENDBRANCH   1  12
BRANCH  11  17
ATOM     17  N   UNL     1      -3.875  -0.658   0.034  0.00  0.00    -0.208 N 
ATOM     18  H   UNL     1      -3.061  -0.144  -0.089  0.00  0.00    +0.174 HD
BRANCH  17  19
ATOM     19  S   UNL     1      -5.330   0.118   0.183  0.00  0.00    +0.073 S 
ATOM     20  O   UNL     1      -6.003  -0.488   1.278  0.00  0.00    -0.150 OA
ATOM     21  O   UNL     1      -5.054   1.512   0.135  0.00  0.00    -0.150 OA
BRANCH  19  22
ATOM     22  C   UNL     1      -6.272  -0.258  -1.258  0.00  0.00    +0.112 A 
ATOM     23  C   UNL     1      -7.492  -0.897  -1.139  0.00  0.00    +0.032 A 
ATOM     24  C   UNL     1      -8.230  -1.193  -2.269  0.00  0.00    -0.046 A 
ATOM     25  C   UNL     1      -7.750  -0.848  -3.518  0.00  0.00    -0.047 A 
ATOM     26  C   UNL     1      -6.530  -0.208  -3.638  0.00  0.00    +0.009 A 
ATOM     27  C   UNL     1      -5.793   0.091  -2.507  0.00  0.00    -0.024 A 
ATOM     28  C   UNL     1      -4.467   0.794  -2.636  0.00  0.00    +0.046 C 
ATOM     29  C   UNL     1      -8.555  -1.171  -4.751  0.00  0.00    +0.044 C 
ATOM     30  C   UNL     1      -9.560  -1.891  -2.139  0.00  0.00    +0.044 C 
ENDBRANCH  19  22
ENDBRANCH  17  19
ENDBRANCH  11  17
TORSDOF 6
