REMARK  Name = ZINC06195949
REMARK  17 active torsions:
REMARK  status: ('A' for Active; 'I' for Inactive)
REMARK    1  A    between atoms: C_1  and  C_2
REMARK    2  A    between atoms: C_2  and  O_3
REMARK    3  A    between atoms: O_3  and  C_4
REMARK    4  A    between atoms: C_6  and  C_11
REMARK    5  A    between atoms: C_9  and  O_10
REMARK    6  A    between atoms: C_16  and  C_21
REMARK    7  A    between atoms: C_24  and  O_29
REMARK    8  A    between atoms: C_25  and  O_27
REMARK    9  A    between atoms: O_27  and  C_28
REMARK   10  A    between atoms: O_29  and  C_30
REMARK   11  A    between atoms: C_32  and  C_41
REMARK   12  A    between atoms: C_33  and  C_34
REMARK   13  A    between atoms: C_34  and  O_36
REMARK   14  A    between atoms: O_36  and  C_37
REMARK   15  A    between atoms: C_37  and  C_38
REMARK   16  A    between atoms: C_38  and  C_39
REMARK   17  A    between atoms: C_38  and  C_40
REMARK                            x       y       z     vdW  Elec       q    Type
REMARK                         _______ _______ _______ _____ _____    ______ ____
ROOT
ATOM      1  C   UNL     1       1.996  -1.450   3.497  0.00  0.00    +0.092 C 
ATOM      2  C   UNL     1       1.988  -2.078   4.870  0.00  0.00    +0.024 C 
ATOM      3  C   UNL     1       1.826  -3.410   5.017  0.00  0.00    +0.016 C 
ATOM      4  C   UNL     1       1.824  -4.047   6.385  0.00  0.00    +0.059 C 
ATOM      5  C   UNL     1       2.720  -3.240   7.328  0.00  0.00    +0.032 C 
ATOM      6  C   UNL     1       2.198  -1.801   7.382  0.00  0.00    +0.088 C 
ATOM      7  C   UNL     1       2.163  -1.241   5.986  0.00  0.00    +0.162 C 
ATOM      8  O   UNL     1       2.289  -0.044   5.819  0.00  0.00    -0.292 OA
ATOM      9  N   UNL     1       1.656  -4.215   3.922  0.00  0.00    -0.321 N 
ATOM     10  C   UNL     1       1.251  -3.688   2.727  0.00  0.00    +0.016 C 
ATOM     11  C   UNL     1       1.387  -2.373   2.482  0.00  0.00    +0.065 C 
ATOM     12  C   UNL     1       0.649  -4.587   1.679  0.00  0.00    +0.061 C 
ATOM     13  H   UNL     1       1.846  -5.295   3.999  0.00  0.00    +0.152 HD
ENDROOT
BRANCH   1  16
ATOM     14  C   UNL     1       5.099   0.450   2.484  0.00  0.00    +0.162 A 
ATOM     15  C   UNL     1       3.793   0.164   2.847  0.00  0.00    +0.054 A 
ATOM     16  C   UNL     1       3.415  -1.142   3.097  0.00  0.00    -0.032 A 
ATOM     17  C   UNL     1       4.336  -2.166   2.975  0.00  0.00    +0.008 A 
ATOM     18  C   UNL     1       5.639  -1.888   2.608  0.00  0.00    +0.049 A 
ATOM     19  C   UNL     1       6.026  -0.581   2.361  0.00  0.00    +0.158 A 
BRANCH  19  20
ATOM     20  O   UNL     1       7.308  -0.306   2.000  0.00  0.00    -0.503 OA
ATOM     21  H   UNL     1       8.039  -1.121   1.903  0.00  0.00    +0.292 HD
ENDBRANCH  19  20
BRANCH  14  22
ATOM     22  O   UNL     1       5.474   1.735   2.243  0.00  0.00    -0.489 OA
BRANCH  22  24
ATOM     23  C   UNL     1       5.074   4.113   2.079  0.00  0.00    +0.048 C 
ATOM     24  C   UNL     1       4.470   2.742   2.389  0.00  0.00    +0.226 C 
ENDBRANCH  22  24
ENDBRANCH  14  22
ENDBRANCH   1  16
BRANCH   5  25
ATOM     25  C   UNL     1       2.677  -3.846   8.708  0.00  0.00    -0.040 A 
ATOM     26  C   UNL     1       1.475  -3.935   9.385  0.00  0.00    +0.008 A 
ATOM     27  C   UNL     1       1.431  -4.489  10.651  0.00  0.00    +0.049 A 
ATOM     28  C   UNL     1       2.593  -4.958  11.243  0.00  0.00    +0.161 A 
ATOM     29  C   UNL     1       3.803  -4.869  10.561  0.00  0.00    +0.162 A 
ATOM     30  C   UNL     1       3.839  -4.317   9.290  0.00  0.00    +0.053 A 
BRANCH  29  31
ATOM     31  O   UNL     1       4.946  -5.327  11.138  0.00  0.00    -0.491 OA
ATOM     32  C   UNL     1       6.150  -5.202  10.379  0.00  0.00    +0.277 C 
ENDBRANCH  29  31
BRANCH  28  33
ATOM     33  O   UNL     1       2.551  -5.503  12.488  0.00  0.00    -0.491 OA
ATOM     34  C   UNL     1       1.275  -5.562  13.128  0.00  0.00    +0.277 C 
ENDBRANCH  28  33
ENDBRANCH   5  25
BRANCH  11  35
ATOM     35  C   UNL     1       0.954  -1.851   1.241  0.00  0.00    +0.338 C 
ATOM     36  O   UNL     1      -0.071  -1.197   1.181  0.00  0.00    -0.245 OA
BRANCH  35  37
ATOM     37  O   UNL     1       1.676  -2.077   0.124  0.00  0.00    -0.461 OA
BRANCH  37  38
ATOM     38  C   UNL     1       1.180  -1.519  -1.094  0.00  0.00    +0.235 C 
BRANCH  38  39
ATOM     39  C   UNL     1       2.125  -1.878  -2.242  0.00  0.00    +0.020 C 
ATOM     40  C   UNL     1       2.114  -3.393  -2.457  0.00  0.00    +0.010 C 
ATOM     41  C   UNL     1       1.662  -1.179  -3.522  0.00  0.00    +0.010 C 
ENDBRANCH  38  39
ENDBRANCH  37  38
ENDBRANCH  35  37
ENDBRANCH  11  35
TORSDOF 11
