REMARK  Name = ZINC51173078
REMARK  2 active torsions:
REMARK  status: ('A' for Active; 'I' for Inactive)
REMARK    1  A    between atoms: C_6  and  C_7
REMARK    2  A    between atoms: C_7  and  C_9
REMARK                            x       y       z     vdW  Elec       q    Type
REMARK                         _______ _______ _______ _____ _____    ______ ____
ROOT
ATOM      1  C   UNL     1      -0.017   1.378   0.010  0.00  0.00    +0.009 A 
ATOM      2  C   UNL     1       1.169   2.091   0.002  0.00  0.00    +0.048 A 
ATOM      3  C   UNL     1       2.378   1.419  -0.013  0.00  0.00    +0.142 A 
ATOM      4  C   UNL     1       2.397   0.025  -0.021  0.00  0.00    +0.076 A 
ATOM      5  C   UNL     1       1.207  -0.684  -0.013  0.00  0.00    +0.032 A 
ATOM      6  C   UNL     1       0.002  -0.004   0.002  0.00  0.00    -0.023 A 
ATOM      7  N   UNL     1       3.629  -0.644  -0.038  0.00  0.00    -0.280 N 
ATOM      8  C   UNL     1       4.751   0.043   0.269  0.00  0.00    +0.255 C 
ATOM      9  O   UNL     1       5.831  -0.507   0.231  0.00  0.00    -0.272 OA
ATOM     10  C   UNL     1       4.655   1.496   0.659  0.00  0.00    +0.325 C 
ATOM     11  O   UNL     1       3.552   2.104  -0.020  0.00  0.00    -0.481 OA
ATOM     12  H   UNL     1       3.675  -1.586  -0.267  0.00  0.00    +0.155 HD
ENDROOT
BRANCH   6  13
ATOM     13  C   UNL     1      -1.294  -0.773   0.011  0.00  0.00    +0.147 C 
ATOM     14 CL   UNL     1      -2.322  -0.234  -1.368  0.00  0.00    -0.111 Cl
BRANCH  13  15
ATOM     15  C   UNL     1      -2.019  -0.520   1.308  0.00  0.00    +0.013 A 
ATOM     16  C   UNL     1      -2.310  -1.388   2.306  0.00  0.00    +0.014 A 
ATOM     17  C   UNL     1      -2.993  -0.929   3.417  0.00  0.00    +0.028 A 
ATOM     18  C   UNL     1      -3.351   0.378   3.474  0.00  0.00    +0.078 A 
ATOM     19  S   UNL     1      -2.711   1.004   1.929  0.00  0.00    -0.080 S 
ATOM     20 CL   UNL     1      -4.204   1.225   4.727  0.00  0.00    -0.076 Cl
ENDBRANCH  13  15
ENDBRANCH   6  13
TORSDOF 2
