REMARK  Name = ZINC39972283
REMARK  15 active torsions:
REMARK  status: ('A' for Active; 'I' for Inactive)
REMARK    1  A    between atoms: C_1  and  C_2
REMARK    2  A    between atoms: C_3  and  C_30
REMARK    3  A    between atoms: C_4  and  N_11
REMARK    4  A    between atoms: C_6  and  C_7
REMARK    5  A    between atoms: C_7  and  O_9
REMARK    6  A    between atoms: O_9  and  C_10
REMARK    7  A    between atoms: C_12  and  C_14
REMARK    8  A    between atoms: C_14  and  N_15
REMARK    9  A    between atoms: N_18  and  C_21
REMARK   10  A    between atoms: C_21  and  C_22
REMARK   11  A    between atoms: C_23  and  C_29
REMARK   12  A    between atoms: N_25  and  C_28
REMARK   13  A    between atoms: C_26  and  C_27
REMARK   14  A    between atoms: C_30  and  O_32
REMARK   15  A    between atoms: O_32  and  C_33
REMARK                            x       y       z     vdW  Elec       q    Type
REMARK                         _______ _______ _______ _____ _____    ______ ____
ROOT
ATOM      1  N   UNL     1       0.033  -3.047  -2.112  0.00  0.00    -0.278 N 
ATOM      2  C   UNL     1       0.052  -4.365  -1.832  0.00  0.00    +0.232 C 
ATOM      3  O   UNL     1       0.063  -4.740  -0.679  0.00  0.00    -0.274 OA
ATOM      4  H   UNL     1       0.024  -2.747  -3.034  0.00  0.00    +0.155 HD
ENDROOT
BRANCH   1   8
ATOM      5  C   UNL     1      -0.018   1.503   0.010  0.00  0.00    +0.046 C 
ATOM      6  C   UNL     1       0.002  -0.004   0.002  0.00  0.00    -0.014 A 
ATOM      7  C   UNL     1       0.006  -0.730  -1.181  0.00  0.00    +0.091 A 
ATOM      8  C   UNL     1       0.025  -2.123  -1.085  0.00  0.00    +0.087 A 
ATOM      9  S   UNL     1       0.037  -2.413   0.569  0.00  0.00    -0.066 S 
ATOM     10  C   UNL     1       0.024  -0.733   1.162  0.00  0.00    +0.102 A 
BRANCH  10  11
ATOM     11  C   UNL     1       0.031  -0.252   2.543  0.00  0.00    +0.346 C 
ATOM     12  O   UNL     1       0.018   0.943   2.770  0.00  0.00    -0.244 OA
BRANCH  11  13
ATOM     13  O   UNL     1       0.053  -1.133   3.564  0.00  0.00    -0.464 OA
ATOM     14  C   UNL     1       0.060  -0.593   4.887  0.00  0.00    +0.280 C 
ENDBRANCH  11  13
ENDBRANCH  10  11
BRANCH   7  15
ATOM     15  C   UNL     1      -0.010  -0.058  -2.485  0.00  0.00    +0.342 C 
ATOM     16  O   UNL     1       1.036   0.236  -3.031  0.00  0.00    -0.245 OA
BRANCH  15  17
ATOM     17  O   UNL     1      -1.185   0.235  -3.078  0.00  0.00    -0.464 OA
ATOM     18  C   UNL     1      -1.126   0.890  -4.347  0.00  0.00    +0.280 C 
ENDBRANCH  15  17
ENDBRANCH   7  15
ENDBRANCH   1   8
BRANCH   2  19
ATOM     19  C   UNL     1       0.060  -5.373  -2.952  0.00  0.00    +0.180 C 
BRANCH  19  20
ATOM     20  N   UNL     1       0.081  -6.730  -2.389  0.00  0.00    -0.298 NA
ATOM     21  C   UNL     1      -1.168  -7.022  -1.672  0.00  0.00    +0.066 C 
ATOM     22  C   UNL     1      -1.081  -8.419  -1.052  0.00  0.00    -0.063 C 
ATOM     23  N   UNL     1      -0.861  -9.412  -2.111  0.00  0.00    +0.384 N 
ATOM     24  C   UNL     1       0.402  -9.121  -2.803  0.00  0.00    -0.063 C 
ATOM     25  C   UNL     1       0.328  -7.731  -3.437  0.00  0.00    +0.066 C 
ATOM     26  H   UNL     1      -1.623  -9.373  -2.772  0.00  0.00    -0.081 HD
BRANCH  23  27
ATOM     27  C   UNL     1      -0.797 -10.754  -1.518  0.00  0.00    -0.039 C 
BRANCH  27  28
ATOM     28  C   UNL     1      -0.694 -11.784  -2.614  0.00  0.00    -0.021 A 
ATOM     29  C   UNL     1      -1.766 -12.413  -3.255  0.00  0.00    +0.062 A 
ATOM     30  N   UNL     1      -1.281 -13.239  -4.146  0.00  0.00    -0.176 NA
ATOM     31  N   UNL     1       0.117 -13.162  -4.099  0.00  0.00    -0.271 N 
ATOM     32  C   UNL     1       0.452 -12.258  -3.155  0.00  0.00    +0.037 A 
ATOM     33  C   UNL     1       1.851 -11.853  -2.770  0.00  0.00    +0.065 C 
ATOM     34  C   UNL     1       1.050 -13.924  -4.933  0.00  0.00    +0.172 C 
ATOM     35  C   UNL     1      -3.227 -12.179  -2.970  0.00  0.00    +0.068 C 
ENDBRANCH  27  28
ENDBRANCH  23  27
ENDBRANCH  19  20
ENDBRANCH   2  19
TORSDOF 9
