REMARK  Name = ZINC16609309
REMARK  6 active torsions:
REMARK  status: ('A' for Active; 'I' for Inactive)
REMARK    1  A    between atoms: C_1  and  C_2
REMARK    2  A    between atoms: N_5  and  C_8
REMARK    3  A    between atoms: C_10  and  N_25
REMARK    4  A    between atoms: C_11  and  N_22
REMARK    5  A    between atoms: C_13  and  C_14
REMARK    6  A    between atoms: C_28  and  C_31
REMARK                            x       y       z     vdW  Elec       q    Type
REMARK                         _______ _______ _______ _____ _____    ______ ____
ROOT
ATOM      1  C   UNL     1       2.256  -3.468   0.174  0.00  0.00    +0.039 A 
ATOM      2  C   UNL     1       3.522  -2.908   0.240  0.00  0.00    +0.049 A 
ATOM      3  C   UNL     1       4.644  -3.726   0.205  0.00  0.00    +0.062 A 
ATOM      4  C   UNL     1       4.503  -5.109   0.103  0.00  0.00    +0.148 A 
ATOM      5  C   UNL     1       3.263  -5.675   0.037  0.00  0.00    +0.044 A 
ATOM      6  C   UNL     1       2.119  -4.867   0.078  0.00  0.00    -0.001 A 
ENDROOT
BRANCH   6   7
ATOM      7  C   UNL     1       0.787  -5.473   0.014  0.00  0.00    +0.030 C 
ATOM      8  C   UNL     1       0.639  -6.743  -0.447  0.00  0.00    +0.078 C 
ATOM      9  C   UNL     1      -0.556  -7.602  -0.451  0.00  0.00    +0.256 C 
ATOM     10  O   UNL     1      -1.618  -7.215   0.001  0.00  0.00    -0.269 OA
ATOM     11  N   UNL     1      -0.426  -8.812  -0.968  0.00  0.00    -0.261 N 
ATOM     12  C   UNL     1       0.786  -9.231  -1.476  0.00  0.00    +0.158 C 
ATOM     13  N   UNL     1       1.087 -10.380  -2.017  0.00  0.00    -0.279 NA
ATOM     14  S   UNL     1       1.843  -7.814  -1.220  0.00  0.00    -0.049 S 
ATOM     15  H   UNL     1      -1.190  -9.410  -0.990  0.00  0.00    +0.157 HD
ATOM     16  H   UNL     1       1.987 -10.545  -2.337  0.00  0.00    +0.189 HD
ENDBRANCH   6   7
BRANCH   1  21
ATOM     17  C   UNL     1      -0.522   1.260   0.442  0.00  0.00    +0.007 C 
ATOM     18  C   UNL     1      -0.369  -0.259   0.343  0.00  0.00    -0.011 C 
ATOM     19  C   UNL     1       0.422  -0.610  -0.919  0.00  0.00    +0.022 C 
ATOM     20  C   UNL     1       0.544  -2.133  -1.034  0.00  0.00    +0.105 C 
ATOM     21  N   UNL     1       1.129  -2.655   0.209  0.00  0.00    -0.329 N 
ATOM     22  C   UNL     1       0.499  -2.303   1.488  0.00  0.00    +0.105 C 
ATOM     23  C   UNL     1       0.377  -0.778   1.575  0.00  0.00    +0.022 C 
ENDBRANCH   1  21
BRANCH   3  24
ATOM     24  N   UNL     1       5.915  -3.162   0.271  0.00  0.00    -0.328 N 
ATOM     25  C   UNL     1       6.545  -2.887   1.569  0.00  0.00    +0.105 C 
ATOM     26  C   UNL     1       6.978  -1.418   1.607  0.00  0.00    +0.022 C 
ATOM     27  C   UNL     1       7.871  -1.122   0.399  0.00  0.00    -0.011 C 
ATOM     28  C   UNL     1       7.083  -1.361  -0.891  0.00  0.00    +0.022 C 
ATOM     29  C   UNL     1       6.654  -2.835  -0.956  0.00  0.00    +0.105 C 
ATOM     30  C   UNL     1       8.333   0.335   0.452  0.00  0.00    +0.007 C 
ENDBRANCH   3  24
BRANCH   4  31
ATOM     31  N   UNL     1       5.708  -5.970   0.067  0.00  0.00    +0.058 N 
ATOM     32  O   UNL     1       5.596  -7.157  -0.135  0.00  0.00    -0.126 OA
ATOM     33  O   UNL     1       6.802  -5.486   0.238  0.00  0.00    -0.126 OA
ENDBRANCH   4  31
TORSDOF 4
