REMARK  Name = ZINC43681738
REMARK  7 active torsions:
REMARK  status: ('A' for Active; 'I' for Inactive)
REMARK    1  A    between atoms: C_1  and  C_2
REMARK    2  A    between atoms: C_5  and  C_9
REMARK    3  A    between atoms: C_6  and  C_8
REMARK    4  A    between atoms: C_9  and  C_11
REMARK    5  A    between atoms: C_9  and  N_12
REMARK    6  A    between atoms: C_13  and  N_19
REMARK    7  A    between atoms: C_15  and  C_17
REMARK                            x       y       z     vdW  Elec       q    Type
REMARK                         _______ _______ _______ _____ _____    ______ ____
ROOT
ATOM      1  C   UNL     1       0.499  -4.236  -0.010  0.00  0.00    +0.136 C 
ATOM      2  C   UNL     1      -0.648  -4.944  -0.734  0.00  0.00    +0.038 C 
ENDROOT
BRANCH   1   7
ATOM      3  C   UNL     1      -0.458   1.463  -0.001  0.00  0.00    +0.044 C 
ATOM      4  C   UNL     1      -0.208  -0.023  -0.004  0.00  0.00    -0.050 A 
ATOM      5  C   UNL     1       0.027  -0.683  -1.196  0.00  0.00    +0.004 A 
ATOM      6  C   UNL     1       0.256  -2.046  -1.198  0.00  0.00    +0.006 A 
ATOM      7  C   UNL     1       0.250  -2.750  -0.008  0.00  0.00    -0.020 A 
ATOM      8  C   UNL     1       0.016  -2.090   1.184  0.00  0.00    -0.045 A 
ATOM      9  C   UNL     1      -0.208  -0.726   1.187  0.00  0.00    +0.007 A 
ATOM     10  C   UNL     1       0.010  -2.857   2.481  0.00  0.00    +0.044 C 
ENDBRANCH   1   7
BRANCH   1  11
ATOM     11  N   UNL     1       1.760  -4.519  -0.701  0.00  0.00    -0.243 N 
ATOM     12  C   UNL     1       2.844  -5.138  -0.165  0.00  0.00    +0.129 A 
ATOM     13  C   UNL     1       3.797  -5.204  -1.135  0.00  0.00    +0.075 A 
ATOM     14  C   UNL     1       3.278  -4.609  -2.288  0.00  0.00    +0.075 A 
ATOM     15  N   UNL     1       2.060  -4.205  -2.032  0.00  0.00    -0.173 NA
ATOM     16  C   UNL     1       3.997  -4.463  -3.604  0.00  0.00    +0.068 C 
ATOM     17  I   UNL     1       5.705  -6.046  -0.934  0.00  0.00    -0.038 I 
BRANCH  12  18
ATOM     18  N   UNL     1       2.958  -5.618   1.137  0.00  0.00    -0.342 N 
ATOM     19  H   UNL     1       2.218  -5.522   1.756  0.00  0.00    +0.144 HD
ATOM     20  H   UNL     1       3.779  -6.047   1.425  0.00  0.00    +0.144 HD
ENDBRANCH  12  18
ENDBRANCH   1  11
TORSDOF 3
