REMARK  Name = ZINC20440894
REMARK  11 active torsions:
REMARK  status: ('A' for Active; 'I' for Inactive)
REMARK    1  A    between atoms: C_1  and  C_2
REMARK    2  A    between atoms: C_2  and  C_3
REMARK    3  A    between atoms: C_3  and  C_4
REMARK    4  A    between atoms: C_4  and  C_5
REMARK    5  A    between atoms: C_4  and  C_13
REMARK    6  A    between atoms: C_4  and  O_28
REMARK    7  A    between atoms: C_8  and  C_11
REMARK    8  A    between atoms: C_11  and  C_12
REMARK    9  A    between atoms: C_13  and  C_15
REMARK   10  A    between atoms: C_13  and  C_22
REMARK   11  A    between atoms: C_15  and  N_16
REMARK                            x       y       z     vdW  Elec       q    Type
REMARK                         _______ _______ _______ _____ _____    ______ ____
ROOT
ATOM      1  C   UNL     1       0.924  -2.526   1.615  0.00  0.00    +0.099 C 
ENDROOT
BRANCH   1   2
ATOM      2  C   UNL     1       1.900  -3.080   0.608  0.00  0.00    -0.015 A 
ATOM      3  C   UNL     1       2.728  -4.131   0.954  0.00  0.00    +0.007 A 
ATOM      4  C   UNL     1       3.623  -4.639   0.031  0.00  0.00    +0.004 A 
ATOM      5  C   UNL     1       3.689  -4.096  -1.239  0.00  0.00    -0.048 A 
ATOM      6  C   UNL     1       2.860  -3.045  -1.585  0.00  0.00    +0.004 A 
ATOM      7  C   UNL     1       1.962  -2.540  -0.663  0.00  0.00    +0.007 A 
BRANCH   5   8
ATOM      8  C   UNL     1       4.665  -4.649  -2.245  0.00  0.00    +0.032 C 
ATOM      9  C   UNL     1       3.997  -5.774  -3.039  0.00  0.00    +0.009 C 
ENDBRANCH   5   8
ENDBRANCH   1   2
BRANCH   1  10
ATOM     10  O   UNL     1       0.274  -1.378   1.066  0.00  0.00    -0.383 OA
ATOM     11  H   UNL     1       0.877  -0.661   0.828  0.00  0.00    +0.211 HD
ENDBRANCH   1  10
BRANCH   1  12
ATOM     12  C   UNL     1      -0.120  -3.592   1.952  0.00  0.00    +0.040 C 
BRANCH  12  14
ATOM     13  C   UNL     1      -1.914  -5.058   1.017  0.00  0.00    +0.004 C 
ATOM     14  C   UNL     1      -0.869  -3.993   0.680  0.00  0.00    -0.000 C 
ENDBRANCH  12  14
ENDBRANCH   1  12
BRANCH   1  15
ATOM     15  C   UNL     1       1.676  -2.128   2.887  0.00  0.00    +0.069 C 
BRANCH  15  16
ATOM     16  C   UNL     1       0.688  -1.679   3.933  0.00  0.00    -0.040 A 
ATOM     17  C   UNL     1       0.523  -2.418   5.090  0.00  0.00    +0.004 A 
ATOM     18  C   UNL     1      -0.382  -2.007   6.050  0.00  0.00    +0.000 A 
ATOM     19  C   UNL     1      -1.122  -0.856   5.853  0.00  0.00    +0.000 A 
ATOM     20  C   UNL     1      -0.957  -0.116   4.697  0.00  0.00    +0.000 A 
ATOM     21  C   UNL     1      -0.048  -0.525   3.739  0.00  0.00    +0.004 A 
ENDBRANCH  15  16
BRANCH  15  22
ATOM     22  C   UNL     1       2.640  -0.983   2.571  0.00  0.00    +0.096 C 
BRANCH  22  23
ATOM     23  N   UNL     1       3.445  -0.679   3.762  0.00  0.00    -0.297 NA
ATOM     24  C   UNL     1       4.038   0.663   3.669  0.00  0.00    +0.112 C 
ATOM     25  C   UNL     1       4.817   0.962   4.953  0.00  0.00    +0.175 C 
ATOM     26  O   UNL     1       5.804  -0.054   5.153  0.00  0.00    -0.377 OA
ATOM     27  C   UNL     1       5.261  -1.373   5.249  0.00  0.00    +0.175 C 
ATOM     28  C   UNL     1       4.487  -1.695   3.968  0.00  0.00    +0.112 C 
ENDBRANCH  22  23
ENDBRANCH  15  22
ENDBRANCH   1  15
TORSDOF 9
