REMARK  Name = ZINC18195719
REMARK  5 active torsions:
REMARK  status: ('A' for Active; 'I' for Inactive)
REMARK    1  A    between atoms: C_1  and  N_2
REMARK    2  A    between atoms: N_2  and  C_3
REMARK    3  A    between atoms: N_2  and  C_4
REMARK    4  A    between atoms: C_7  and  C_10
REMARK    5  A    between atoms: N_16  and  C_19
REMARK                            x       y       z     vdW  Elec       q    Type
REMARK                         _______ _______ _______ _____ _____    ______ ____
ROOT
ATOM      1  C   UNL     1      -0.006  -2.813  -4.924  0.00  0.00    +0.092 C 
ATOM      2  C   UNL     1       1.212  -2.434  -5.718  0.00  0.00    +0.070 A 
ATOM      3  C   UNL     1       1.148  -1.618  -6.820  0.00  0.00    +0.125 A 
ATOM      4  N   UNL     1       2.409  -1.464  -7.308  0.00  0.00    -0.277 N 
ATOM      5  H   UNL     1       2.662  -0.935  -8.081  0.00  0.00    +0.189 HD
ATOM      6  N   UNL     1       3.280  -2.204  -6.492  0.00  0.00    -0.218 N 
ATOM      7  C   UNL     1       2.546  -2.795  -5.524  0.00  0.00    +0.278 A 
ATOM      8  O   UNL     1       2.973  -3.516  -4.639  0.00  0.00    -0.265 OA
ATOM      9  N   UNL     1      -0.047  -1.107  -7.265  0.00  0.00    -0.303 N 
ATOM     10  C   UNL     1      -1.217  -1.656  -6.792  0.00  0.00    +0.017 C 
ATOM     11  C   UNL     1      -1.252  -2.455  -5.707  0.00  0.00    +0.024 C 
ATOM     12  C   UNL     1      -2.467  -2.999  -5.248  0.00  0.00    +0.162 C 
ATOM     13  O   UNL     1      -2.461  -3.734  -4.280  0.00  0.00    -0.292 OA
ATOM     14  C   UNL     1      -3.772  -2.691  -5.928  0.00  0.00    +0.080 C 
ATOM     15  C   UNL     1      -3.671  -1.312  -6.591  0.00  0.00    +0.014 C 
ATOM     16  C   UNL     1      -2.482  -1.329  -7.552  0.00  0.00    +0.051 C 
ATOM     17  H   UNL     1      -0.066  -0.373  -7.899  0.00  0.00    +0.153 HD
ENDROOT
BRANCH   1  21
ATOM     18  C   UNL     1       0.000  -0.696  -1.211  0.00  0.00    +0.029 A 
ATOM     19  C   UNL     1       0.013  -2.085  -1.221  0.00  0.00    +0.023 A 
ATOM     20  C   UNL     1       0.010  -2.766  -2.422  0.00  0.00    +0.006 A 
ATOM     21  C   UNL     1      -0.005  -2.066  -3.615  0.00  0.00    -0.035 A 
ATOM     22  C   UNL     1      -0.018  -0.684  -3.609  0.00  0.00    +0.006 A 
ATOM     23  C   UNL     1      -0.021   0.004  -2.411  0.00  0.00    +0.023 A 
BRANCH  18  25
ATOM     24  C   UNL     1      -0.018   1.461   0.010  0.00  0.00    +0.129 C 
ATOM     25  N   UNL     1       0.002  -0.004   0.002  0.00  0.00    -0.336 N 
ATOM     26  C   UNL     1       0.024  -0.743   1.267  0.00  0.00    +0.129 C 
ENDBRANCH  18  25
ENDBRANCH   1  21
BRANCH   6  27
ATOM     27  C   UNL     1       4.665  -2.311  -6.654  0.00  0.00    +0.067 A 
ATOM     28  C   UNL     1       5.410  -3.086  -5.775  0.00  0.00    +0.028 A 
ATOM     29  C   UNL     1       6.778  -3.190  -5.937  0.00  0.00    +0.002 A 
ATOM     30  C   UNL     1       7.405  -2.523  -6.973  0.00  0.00    +0.000 A 
ATOM     31  C   UNL     1       6.666  -1.751  -7.851  0.00  0.00    +0.002 A 
ATOM     32  C   UNL     1       5.298  -1.647  -7.697  0.00  0.00    +0.028 A 
ENDBRANCH   6  27
TORSDOF 3
