REMARK  Name = ZINC08629167
REMARK  10 active torsions:
REMARK  status: ('A' for Active; 'I' for Inactive)
REMARK    1  A    between atoms: C_1  and  C_2
REMARK    2  A    between atoms: C_2  and  C_3
REMARK    3  A    between atoms: C_7  and  C_37
REMARK    4  A    between atoms: C_8  and  N_9
REMARK    5  A    between atoms: C_10  and  C_12
REMARK    6  A    between atoms: C_12  and  O_13
REMARK    7  A    between atoms: O_13  and  C_14
REMARK    8  A    between atoms: C_14  and  C_16
REMARK    9  A    between atoms: C_29  and  C_30
REMARK   10  A    between atoms: C_33  and  O_36
REMARK                            x       y       z     vdW  Elec       q    Type
REMARK                         _______ _______ _______ _____ _____    ______ ____
ROOT
ATOM      1  C   UNL     1      -0.652  -0.820  -0.767  0.00  0.00    +0.073 A 
ATOM      2  C   UNL     1      -1.456   0.319  -1.211  0.00  0.00    +0.015 A 
ATOM      3  C   UNL     1      -2.842   0.223  -1.367  0.00  0.00    +0.011 A 
ATOM      4  C   UNL     1      -3.550   1.312  -1.783  0.00  0.00    +0.001 A 
ATOM      5  C   UNL     1      -2.909   2.519  -2.053  0.00  0.00    +0.002 A 
ATOM      6  C   UNL     1      -1.562   2.646  -1.912  0.00  0.00    +0.028 A 
ATOM      7  C   UNL     1      -0.797   1.544  -1.484  0.00  0.00    +0.072 A 
ATOM      8  N   UNL     1       0.522   1.639  -1.336  0.00  0.00    -0.247 NA
ATOM      9  C   UNL     1       1.280   0.624  -0.935  0.00  0.00    +0.072 A 
ATOM     10  C   UNL     1       0.717  -0.629  -0.641  0.00  0.00    -0.007 A 
ATOM     11  C   UNL     1       1.801  -1.588  -0.213  0.00  0.00    +0.043 C 
ATOM     12  C   UNL     1       3.117  -0.801  -0.270  0.00  0.00    +0.042 C 
ATOM     13  C   UNL     1       2.740   0.585  -0.729  0.00  0.00    -0.021 C 
ATOM     14  C   UNL     1       3.590   1.610  -0.918  0.00  0.00    +0.013 C 
ENDROOT
BRANCH  14  15
ATOM     15  C   UNL     1       5.004   1.475  -0.532  0.00  0.00    -0.024 A 
ATOM     16  C   UNL     1       5.852   2.586  -0.573  0.00  0.00    +0.011 A 
ATOM     17  C   UNL     1       7.173   2.456  -0.206  0.00  0.00    +0.046 A 
ATOM     18  C   UNL     1       7.667   1.220   0.195  0.00  0.00    +0.117 A 
ATOM     19  C   UNL     1       6.830   0.112   0.233  0.00  0.00    +0.046 A 
ATOM     20  C   UNL     1       5.505   0.233  -0.128  0.00  0.00    +0.011 A 
BRANCH  18  21
ATOM     21  O   UNL     1       8.972   1.095   0.550  0.00  0.00    -0.507 OA
ATOM     22  H   UNL     1       9.560   0.871  -0.184  0.00  0.00    +0.292 HD
ENDBRANCH  18  21
ENDBRANCH  14  15
BRANCH   1  23
ATOM     23  C   UNL     1      -1.275  -2.126  -0.465  0.00  0.00    +0.341 C 
ATOM     24  O   UNL     1      -1.397  -2.958  -1.341  0.00  0.00    -0.245 OA
BRANCH  23  25
ATOM     25  O   UNL     1      -1.706  -2.393   0.783  0.00  0.00    -0.452 OA
BRANCH  25  26
ATOM     26  C   UNL     1      -2.308  -3.696   1.008  0.00  0.00    +0.328 C 
BRANCH  26  28
ATOM     27  N   UNL     1      -3.313  -4.944   2.892  0.00  0.00    -0.282 N 
ATOM     28  C   UNL     1      -2.727  -3.813   2.450  0.00  0.00    +0.255 C 
ATOM     29  O   UNL     1      -2.538  -2.890   3.214  0.00  0.00    -0.272 OA
ATOM     30  H   UNL     1      -3.390  -5.712   2.304  0.00  0.00    +0.155 HD
BRANCH  27  36
ATOM     31  C   UNL     1      -5.146  -5.318   4.420  0.00  0.00    -0.026 A 
ATOM     32  C   UNL     1      -5.632  -5.389   5.711  0.00  0.00    +0.005 A 
ATOM     33  C   UNL     1      -4.793  -5.142   6.781  0.00  0.00    +0.001 A 
ATOM     34  C   UNL     1      -3.463  -4.830   6.564  0.00  0.00    +0.005 A 
ATOM     35  C   UNL     1      -2.969  -4.763   5.276  0.00  0.00    -0.029 A 
ATOM     36  C   UNL     1      -3.810  -5.011   4.198  0.00  0.00    +0.040 A 
ATOM     37  C   UNL     1      -1.520  -4.423   5.040  0.00  0.00    +0.045 C 
BRANCH  31  39
ATOM     38  C   UNL     1      -5.946  -7.048   2.833  0.00  0.00    +0.009 C 
ATOM     39  C   UNL     1      -6.062  -5.581   3.253  0.00  0.00    +0.033 C 
ENDBRANCH  31  39
ENDBRANCH  27  36
ENDBRANCH  26  28
ENDBRANCH  25  26
ENDBRANCH  23  25
ENDBRANCH   1  23
TORSDOF 8
