REMARK  Name = ZINC36202550
REMARK  17 active torsions:
REMARK  status: ('A' for Active; 'I' for Inactive)
REMARK    1  A    between atoms: C_1  and  C_2
REMARK    2  A    between atoms: C_5  and  C_7
REMARK    3  A    between atoms: C_7  and  N_8
REMARK    4  A    between atoms: N_8  and  C_9
REMARK    5  A    between atoms: N_8  and  C_33
REMARK    6  A    between atoms: C_9  and  C_10
REMARK    7  A    between atoms: C_13  and  C_15
REMARK    8  A    between atoms: C_15  and  C_16
REMARK    9  A    between atoms: C_15  and  C_24
REMARK   10  A    between atoms: C_15  and  O_32
REMARK   11  A    between atoms: C_19  and  O_22
REMARK   12  A    between atoms: O_22  and  C_23
REMARK   13  A    between atoms: C_27  and  O_30
REMARK   14  A    between atoms: O_30  and  C_31
REMARK   15  A    between atoms: C_33  and  C_34
REMARK   16  A    between atoms: C_34  and  C_35
REMARK   17  A    between atoms: C_34  and  C_36
REMARK                            x       y       z     vdW  Elec       q    Type
REMARK                         _______ _______ _______ _____ _____    ______ ____
ROOT
ATOM      1  C   UNL     1       4.293  -5.049  -3.807  0.00  0.00    +0.089 A 
ATOM      2  C   UNL     1       5.116  -4.841  -4.849  0.00  0.00    +0.043 A 
ATOM      3  C   UNL     1       4.563  -5.531  -5.952  0.00  0.00    +0.048 A 
ATOM      4  C   UNL     1       3.434  -6.120  -5.518  0.00  0.00    +0.146 A 
ATOM      5  O   UNL     1       3.279  -5.829  -4.215  0.00  0.00    -0.463 OA
ENDROOT
BRANCH   1   6
ATOM      6  C   UNL     1       4.480  -4.505  -2.414  0.00  0.00    -0.003 C 
BRANCH   6   7
ATOM      7  N   UNL     1       3.812  -3.200  -2.304  0.00  0.00    +0.389 N 
ATOM      8  H   UNL     1       4.156  -2.585  -3.026  0.00  0.00    -0.081 HD
BRANCH   7   9
ATOM      9  C   UNL     1       4.095  -2.615  -0.987  0.00  0.00    -0.003 C 
BRANCH   9  14
ATOM     10  C   UNL     1       8.982  -3.151   0.140  0.00  0.00    +0.086 C 
ATOM     11  C   UNL     1       7.695  -2.563  -0.379  0.00  0.00    +0.102 A 
ATOM     12  C   UNL     1       7.565  -1.374  -0.994  0.00  0.00    +0.044 A 
ATOM     13  C   UNL     1       6.195  -1.224  -1.310  0.00  0.00    +0.043 A 
ATOM     14  C   UNL     1       5.570  -2.330  -0.869  0.00  0.00    +0.089 A 
ATOM     15  O   UNL     1       6.484  -3.141  -0.311  0.00  0.00    -0.467 OA
ENDBRANCH   9  14
ENDBRANCH   7   9
BRANCH   7  16
ATOM     16  C   UNL     1       2.363  -3.377  -2.461  0.00  0.00    -0.075 C 
BRANCH  16  17
ATOM     17  C   UNL     1       1.682  -2.007  -2.493  0.00  0.00    -0.034 C 
ATOM     18  C   UNL     1       2.126  -1.246  -3.743  0.00  0.00    +0.005 C 
ATOM     19  C   UNL     1       0.164  -2.193  -2.521  0.00  0.00    +0.005 C 
ENDBRANCH  16  17
ENDBRANCH   7  16
ENDBRANCH   6   7
ENDBRANCH   1   6
BRANCH   4  20
ATOM     20  C   UNL     1       2.505  -6.966  -6.349  0.00  0.00    +0.174 C 
BRANCH  20  21
ATOM     21  C   UNL     1       1.839  -7.993  -5.469  0.00  0.00    -0.004 A 
ATOM     22  C   UNL     1       2.054  -9.340  -5.698  0.00  0.00    +0.011 A 
ATOM     23  C   UNL     1       1.445 -10.284  -4.893  0.00  0.00    +0.046 A 
ATOM     24  C   UNL     1       0.618  -9.879  -3.856  0.00  0.00    +0.120 A 
ATOM     25  C   UNL     1       0.405  -8.527  -3.628  0.00  0.00    +0.046 A 
ATOM     26  C   UNL     1       1.020  -7.588  -4.432  0.00  0.00    +0.011 A 
BRANCH  24  27
ATOM     27  O   UNL     1       0.017 -10.806  -3.063  0.00  0.00    -0.495 OA
ATOM     28  C   UNL     1      -0.821 -10.317  -2.014  0.00  0.00    +0.277 C 
ENDBRANCH  24  27
ENDBRANCH  20  21
BRANCH  20  29
ATOM     29  C   UNL     1       1.454  -6.088  -6.979  0.00  0.00    -0.004 A 
ATOM     30  C   UNL     1       0.878  -5.067  -6.246  0.00  0.00    +0.011 A 
ATOM     31  C   UNL     1      -0.085  -4.261  -6.821  0.00  0.00    +0.046 A 
ATOM     32  C   UNL     1      -0.474  -4.477  -8.136  0.00  0.00    +0.120 A 
ATOM     33  C   UNL     1       0.106  -5.502  -8.868  0.00  0.00    +0.046 A 
ATOM     34  C   UNL     1       1.072  -6.302  -8.290  0.00  0.00    +0.011 A 
BRANCH  32  35
ATOM     35  O   UNL     1      -1.422  -3.686  -8.704  0.00  0.00    -0.495 OA
ATOM     36  C   UNL     1      -1.773  -3.966 -10.060  0.00  0.00    +0.277 C 
ENDBRANCH  32  35
ENDBRANCH  20  29
BRANCH  20  37
ATOM     37  O   UNL     1       3.250  -7.627  -7.373  0.00  0.00    -0.372 OA
ATOM     38  H   UNL     1       3.946  -8.210  -7.039  0.00  0.00    +0.212 HD
ENDBRANCH  20  37
ENDBRANCH   4  20
TORSDOF 12
