REMARK  Name = ZINC54581047
REMARK  7 active torsions:
REMARK  status: ('A' for Active; 'I' for Inactive)
REMARK    1  A    between atoms: C_1  and  C_2
REMARK    2  A    between atoms: C_5  and  C_8
REMARK    3  A    between atoms: C_10  and  C_27
REMARK    4  A    between atoms: C_11  and  C_26
REMARK    5  A    between atoms: C_16  and  S_18
REMARK    6  A    between atoms: S_18  and  C_19
REMARK    7  A    between atoms: C_19  and  C_20
REMARK                            x       y       z     vdW  Elec       q    Type
REMARK                         _______ _______ _______ _____ _____    ______ ____
ROOT
ATOM      1  C   UNL     1       0.059  -4.275  -0.021  0.00  0.00    +0.158 C 
ATOM      2  C   UNL     1       1.311  -4.781   0.705  0.00  0.00    +0.148 C 
ATOM      3  C   UNL     1       1.148  -4.692   2.195  0.00  0.00    +0.034 C 
ATOM      4  N   UNL     1       0.006  -4.837   2.786  0.00  0.00    -0.220 NA
ATOM      5  C   UNL     1      -1.105  -5.049   2.022  0.00  0.00    +0.250 A 
ATOM      6  N   UNL     1      -1.114  -4.789   0.685  0.00  0.00    -0.220 N 
ATOM      7  N   UNL     1      -2.386  -5.105   0.219  0.00  0.00    -0.141 NA
ATOM      8  C   UNL     1      -3.073  -5.535   1.258  0.00  0.00    +0.211 A 
ATOM      9  N   UNL     1      -2.291  -5.500   2.348  0.00  0.00    -0.184 NA
ATOM     10  C   UNL     1       2.368  -4.422   3.039  0.00  0.00    +0.062 C 
ENDROOT
BRANCH   1  15
ATOM     11  C   UNL     1      -0.018   1.503   0.010  0.00  0.00    +0.044 C 
ATOM     12  C   UNL     1       0.002  -0.004   0.002  0.00  0.00    -0.050 A 
ATOM     13  C   UNL     1       0.006  -0.689  -1.199  0.00  0.00    +0.004 A 
ATOM     14  C   UNL     1       0.025  -2.071  -1.206  0.00  0.00    +0.006 A 
ATOM     15  C   UNL     1       0.040  -2.768  -0.013  0.00  0.00    -0.022 A 
ATOM     16  C   UNL     1       0.037  -2.084   1.188  0.00  0.00    +0.006 A 
ATOM     17  C   UNL     1       0.023  -0.702   1.195  0.00  0.00    +0.004 A 
ENDBRANCH   1  15
BRANCH   2  18
ATOM     18  C   UNL     1       1.558  -6.217   0.321  0.00  0.00    +0.221 C 
ATOM     19  O   UNL     1       0.810  -6.775  -0.454  0.00  0.00    -0.275 OA
ATOM     20  N   UNL     1       2.611  -6.881   0.838  0.00  0.00    -0.329 N 
ATOM     21  H   UNL     1       3.209  -6.435   1.457  0.00  0.00    +0.145 HD
ATOM     22  H   UNL     1       2.770  -7.806   0.590  0.00  0.00    +0.145 HD
ENDBRANCH   2  18
BRANCH   8  23
ATOM     23  S   UNL     1      -4.751  -6.070   1.223  0.00  0.00    -0.080 S 
BRANCH  23  24
ATOM     24  C   UNL     1      -5.103  -6.529   2.942  0.00  0.00    +0.112 C 
BRANCH  24  25
ATOM     25  C   UNL     1      -6.526  -7.011   3.053  0.00  0.00    -0.037 A 
ATOM     26  C   UNL     1      -7.541  -6.112   3.323  0.00  0.00    +0.004 A 
ATOM     27  C   UNL     1      -8.847  -6.554   3.424  0.00  0.00    +0.000 A 
ATOM     28  C   UNL     1      -9.138  -7.894   3.255  0.00  0.00    +0.000 A 
ATOM     29  C   UNL     1      -8.123  -8.793   2.985  0.00  0.00    +0.000 A 
ATOM     30  C   UNL     1      -6.818  -8.351   2.879  0.00  0.00    +0.004 A 
ENDBRANCH  24  25
ENDBRANCH  23  24
ENDBRANCH   8  23
TORSDOF 5
