REMARK  Name = ZINC34015217
REMARK  11 active torsions:
REMARK  status: ('A' for Active; 'I' for Inactive)
REMARK    1  A    between atoms: C_1  and  C_2
REMARK    2  A    between atoms: C_4  and  C_7
REMARK    3  A    between atoms: C_8  and  C_9
REMARK    4  A    between atoms: C_8  and  C_10
REMARK    5  A    between atoms: C_14  and  C_39
REMARK    6  A    between atoms: C_18  and  C_38
REMARK    7  A    between atoms: C_20  and  O_37
REMARK    8  A    between atoms: C_22  and  C_36
REMARK    9  A    between atoms: C_26  and  C_34
REMARK   10  A    between atoms: C_26  and  C_35
REMARK   11  A    between atoms: C_27  and  O_33
REMARK                            x       y       z     vdW  Elec       q    Type
REMARK                         _______ _______ _______ _____ _____    ______ ____
ROOT
ATOM      1  C   UNL     1      -4.360  -3.595   0.204  0.00  0.00    +0.206 C 
ATOM      2  C   UNL     1      -4.942  -3.554   1.621  0.00  0.00    +0.076 C 
ATOM      3  C   UNL     1      -5.629  -2.237   1.857  0.00  0.00    -0.024 C 
ATOM      4  C   UNL     1      -6.223  -1.982   3.000  0.00  0.00    -0.076 C 
ATOM      5  C   UNL     1      -6.905  -0.655   3.208  0.00  0.00    +0.030 C 
ATOM      6  C   UNL     1      -8.399  -0.779   2.929  0.00  0.00    +0.005 C 
ATOM      7  C   UNL     1      -8.688  -0.417   1.467  0.00  0.00    +0.006 C 
ATOM      8  C   UNL     1      -9.504  -1.524   0.793  0.00  0.00    +0.015 C 
ATOM      9  C   UNL     1      -9.895  -1.063  -0.604  0.00  0.00    +0.127 C 
ATOM     10  C   UNL     1     -10.507  -2.200  -1.435  0.00  0.00    +0.081 C 
ATOM     11  C   UNL     1      -9.773  -2.292  -2.743  0.00  0.00    +0.147 C 
ATOM     12  O   UNL     1      -9.716  -1.295  -3.444  0.00  0.00    -0.296 OA
ATOM     13  C   UNL     1      -9.115  -3.551  -3.245  0.00  0.00    +0.050 C 
ATOM     14  C   UNL     1      -7.601  -3.461  -3.039  0.00  0.00    +0.138 C 
ATOM     15  C   UNL     1      -7.075  -4.491  -2.052  0.00  0.00    +0.152 C 
ATOM     16  C   UNL     1      -5.639  -4.156  -1.710  0.00  0.00    +0.310 C 
ATOM     17  O   UNL     1      -4.745  -4.693  -2.314  0.00  0.00    -0.251 OA
ATOM     18  O   UNL     1      -5.370  -3.261  -0.745  0.00  0.00    -0.457 OA
ATOM     19  C   UNL     1      -9.373  -3.645  -4.762  0.00  0.00    +0.021 C 
ATOM     20  C   UNL     1      -9.700  -4.792  -2.587  0.00  0.00    +0.021 C 
ATOM     21  C   UNL     1     -11.973  -1.835  -1.731  0.00  0.00    +0.018 C 
ATOM     22  C   UNL     1      -8.652  -2.792   0.724  0.00  0.00    +0.010 C 
ATOM     23  C   UNL     1      -6.230  -3.008   4.105  0.00  0.00    +0.039 C 
ENDROOT
BRANCH   1  25
ATOM     24  C   UNL     1      -1.983  -3.060  -0.100  0.00  0.00    +0.031 C 
ATOM     25  C   UNL     1      -3.217  -2.618   0.102  0.00  0.00    -0.030 C 
ATOM     26  C   UNL     1      -3.476  -1.139   0.231  0.00  0.00    +0.043 C 
BRANCH  24  30
ATOM     27  C   UNL     1       0.015   1.427   0.745  0.00  0.00    +0.073 C 
ATOM     28  C   UNL     1       0.015  -0.031   0.364  0.00  0.00    +0.076 A 
ATOM     29  N   UNL     1      -0.999  -0.854   0.316  0.00  0.00    -0.245 NA
ATOM     30  C   UNL     1      -0.843  -2.122  -0.042  0.00  0.00    +0.071 A 
ATOM     31  C   UNL     1       0.433  -2.514  -0.355  0.00  0.00    +0.074 A 
ATOM     32  S   UNL     1       1.319  -0.984  -0.107  0.00  0.00    -0.080 S 
ENDBRANCH  24  30
ENDBRANCH   1  25
BRANCH  14  33
ATOM     33  O   UNL     1      -7.259  -2.144  -2.590  0.00  0.00    -0.390 OA
ATOM     34  H   UNL     1      -6.312  -2.014  -2.438  0.00  0.00    +0.210 HD
ENDBRANCH  14  33
BRANCH   9  35
ATOM     35  O   UNL     1     -10.857  -0.007  -0.500  0.00  0.00    -0.391 OA
ATOM     36  H   UNL     1     -11.155   0.339  -1.353  0.00  0.00    +0.210 HD
ENDBRANCH   9  35
TORSDOF 4
