REMARK  Name = ZINC08968875
REMARK  10 active torsions:
REMARK  status: ('A' for Active; 'I' for Inactive)
REMARK    1  A    between atoms: C_1  and  N_2
REMARK    2  A    between atoms: N_2  and  C_3
REMARK    3  A    between atoms: C_11  and  C_13
REMARK    4  A    between atoms: N_15  and  C_16
REMARK    5  A    between atoms: C_16  and  C_17
REMARK    6  A    between atoms: C_17  and  C_19
REMARK    7  A    between atoms: C_17  and  S_27
REMARK    8  A    between atoms: C_22  and  O_25
REMARK    9  A    between atoms: O_25  and  C_26
REMARK   10  A    between atoms: S_27  and  C_30
REMARK                            x       y       z     vdW  Elec       q    Type
REMARK                         _______ _______ _______ _____ _____    ______ ____
ROOT
ATOM      1  C   UNL     1      -0.909  -4.405   0.637  0.00  0.00    +0.183 C 
ENDROOT
BRANCH   1   2
ATOM      2  C   UNL     1      -1.161  -2.929   0.802  0.00  0.00    -0.021 A 
ATOM      3  C   UNL     1      -2.453  -2.463   0.962  0.00  0.00    +0.009 A 
ATOM      4  C   UNL     1      -2.687  -1.110   1.113  0.00  0.00    +0.046 A 
ATOM      5  C   UNL     1      -1.624  -0.218   1.106  0.00  0.00    +0.120 A 
ATOM      6  C   UNL     1      -0.329  -0.688   0.941  0.00  0.00    +0.046 A 
ATOM      7  C   UNL     1      -0.100  -2.042   0.795  0.00  0.00    +0.009 A 
BRANCH   5   8
ATOM      8  O   UNL     1      -1.851   1.113   1.255  0.00  0.00    -0.495 OA
ATOM      9  C   UNL     1      -0.709   1.973   1.238  0.00  0.00    +0.277 C 
ENDBRANCH   5   8
ENDBRANCH   1   2
BRANCH   1  10
ATOM     10  S   UNL     1      -0.097  -4.705  -0.957  0.00  0.00    +0.011 S 
ATOM     11  O   UNL     1       0.308  -6.064  -1.052  0.00  0.00    -0.168 OA
ATOM     12  O   UNL     1      -0.837  -4.095  -2.006  0.00  0.00    -0.168 OA
BRANCH  10  13
ATOM     13  C   UNL     1       1.407  -3.792  -0.878  0.00  0.00    +0.126 A 
ATOM     14  C   UNL     1       2.625  -4.189  -0.434  0.00  0.00    +0.035 A 
ATOM     15  C   UNL     1       3.676  -3.292  -0.467  0.00  0.00    +0.009 A 
ATOM     16  C   UNL     1       3.458  -2.041  -0.942  0.00  0.00    +0.047 A 
ATOM     17  S   UNL     1       1.726  -2.106  -1.371  0.00  0.00    -0.078 S 
ENDBRANCH  10  13
ENDBRANCH   1  10
BRANCH   1  18
ATOM     18  C   UNL     1      -0.006  -4.898   1.770  0.00  0.00    +0.136 C 
BRANCH  18  21
ATOM     19  C   UNL     1       1.014  -6.989   2.497  0.00  0.00    +0.299 C 
ATOM     20  O   UNL     1       1.508  -6.389   3.429  0.00  0.00    -0.265 OA
ATOM     21  N   UNL     1       0.239  -6.334   1.609  0.00  0.00    -0.305 N 
ATOM     22  H   UNL     1      -0.156  -6.813   0.864  0.00  0.00    +0.149 HD
BRANCH  19  25
ATOM     23  C   UNL     1       2.766  -8.353   4.248  0.00  0.00    +0.133 C 
ATOM     24  N   UNL     1       2.130  -9.084   3.150  0.00  0.00    -0.292 N 
ATOM     25  C   UNL     1       1.264  -8.453   2.333  0.00  0.00    +0.302 C 
ATOM     26  O   UNL     1       0.686  -9.073   1.464  0.00  0.00    -0.265 OA
BRANCH  24  27
ATOM     27  C   UNL     1       2.436 -10.501   2.939  0.00  0.00    +0.099 C 
ATOM     28  C   UNL     1       3.940 -10.674   2.672  0.00  0.00    +0.046 C 
ATOM     29  C   UNL     1       4.324 -12.170   2.767  0.00  0.00    +0.168 C 
ATOM     30  S   UNL     1       3.077 -12.834   3.944  0.00  0.00    -0.029 S 
ATOM     31  O   UNL     1       2.279 -13.801   3.276  0.00  0.00    -0.174 OA
ATOM     32  O   UNL     1       3.727 -13.183   5.159  0.00  0.00    -0.174 OA
ATOM     33  C   UNL     1       2.074 -11.312   4.216  0.00  0.00    +0.188 C 
ENDBRANCH  24  27
ENDBRANCH  19  25
ENDBRANCH  18  21
ENDBRANCH   1  18
TORSDOF 8
