REMARK  Name = ZINC40504035
REMARK  3 active torsions:
REMARK  status: ('A' for Active; 'I' for Inactive)
REMARK    1  A    between atoms: C_4  and  S_11
REMARK    2  A    between atoms: S_11  and  N_14
REMARK    3  A    between atoms: N_14  and  C_15
REMARK                            x       y       z     vdW  Elec       q    Type
REMARK                         _______ _______ _______ _____ _____    ______ ____
ROOT
ATOM      1  S   UNL     1       4.465   3.320  -0.024  0.00  0.00    +0.094 S 
ATOM      2  O   UNL     1       3.805   4.035   1.012  0.00  0.00    -0.148 OA
ATOM      3  O   UNL     1       5.878   3.170  -0.066  0.00  0.00    -0.148 OA
ENDROOT
BRANCH   1   7
ATOM      4  C   UNL     1      -0.017   1.382   0.010  0.00  0.00    +0.020 A 
ATOM      5  C   UNL     1       1.178   2.077   0.002  0.00  0.00    +0.015 A 
ATOM      6  C   UNL     1       2.365   1.342  -0.013  0.00  0.00    +0.045 A 
ATOM      7  C   UNL     1       3.786   1.694  -0.025  0.00  0.00    +0.137 A 
ATOM      8  C   UNL     1       4.473   0.541  -0.038  0.00  0.00    +0.114 A 
ATOM      9  N   UNL     1       3.606  -0.519  -0.036  0.00  0.00    -0.344 N 
ATOM     10  H   UNL     1       3.868  -1.453  -0.043  0.00  0.00    +0.167 HD
ATOM     11  C   UNL     1       2.309  -0.065  -0.020  0.00  0.00    +0.140 A 
ATOM     12  N   UNL     1       1.132  -0.678  -0.012  0.00  0.00    -0.237 NA
ATOM     13  C   UNL     1       0.002  -0.004   0.002  0.00  0.00    +0.113 A 
ENDBRANCH   1   7
BRANCH   1  14
ATOM     14  N   UNL     1       4.023   4.036  -1.450  0.00  0.00    -0.096 NA
BRANCH  14  15
ATOM     15  C   UNL     1       4.425   5.349  -1.728  0.00  0.00    +0.090 A 
ATOM     16  C   UNL     1       5.203   6.057  -0.814  0.00  0.00    +0.031 A 
ATOM     17  C   UNL     1       5.577   7.350  -1.130  0.00  0.00    +0.043 A 
ATOM     18  C   UNL     1       5.168   7.897  -2.342  0.00  0.00    +0.094 A 
ATOM     19  N   UNL     1       4.430   7.195  -3.186  0.00  0.00    -0.348 N 
ATOM     20  C   UNL     1       4.059   5.957  -2.919  0.00  0.00    +0.110 A 
ATOM     21  N   UNL     1       5.540   9.199  -2.670  0.00  0.00    -0.345 N 
ATOM     22  H   UNL     1       6.081   9.719  -2.055  0.00  0.00    +0.144 HD
ATOM     23  H   UNL     1       5.258   9.586  -3.514  0.00  0.00    +0.144 HD
ATOM     24  H   UNL     1       4.157   7.600  -4.024  0.00  0.00    +0.167 HD
ENDBRANCH  14  15
ENDBRANCH   1  14
TORSDOF 3
