REMARK  Name = ZINC10549847
REMARK  9 active torsions:
REMARK  status: ('A' for Active; 'I' for Inactive)
REMARK    1  A    between atoms: C_1  and  S_2
REMARK    2  A    between atoms: S_2  and  N_5
REMARK    3  A    between atoms: N_5  and  C_6
REMARK    4  A    between atoms: C_9  and  N_12
REMARK    5  A    between atoms: C_13  and  C_15
REMARK    6  A    between atoms: C_15  and  S_16
REMARK    7  A    between atoms: S_16  and  C_17
REMARK    8  A    between atoms: C_20  and  C_28
REMARK    9  A    between atoms: N_21  and  C_22
REMARK                            x       y       z     vdW  Elec       q    Type
REMARK                         _______ _______ _______ _____ _____    ______ ____
ROOT
ATOM      1  S   UNL     1      -6.468   6.575   3.030  0.00  0.00    -0.076 S 
ENDROOT
BRANCH   1   2
ATOM      2  C   UNL     1      -8.136   7.123   3.178  0.00  0.00    +0.197 A 
ATOM      3  N   UNL     1      -9.174   6.646   2.529  0.00  0.00    -0.122 NA
ATOM      4  N   UNL     1     -10.240   7.274   2.875  0.00  0.00    -0.128 NA
ATOM      5  C   UNL     1      -9.950   8.193   3.767  0.00  0.00    +0.169 A 
ATOM      6  N   UNL     1      -8.593   8.121   3.994  0.00  0.00    -0.270 N 
BRANCH   6   7
ATOM      7  C   UNL     1      -7.838   8.908   4.875  0.00  0.00    +0.051 A 
ATOM      8  C   UNL     1      -8.057   8.825   6.244  0.00  0.00    +0.026 A 
ATOM      9  C   UNL     1      -7.309   9.598   7.110  0.00  0.00    +0.002 A 
ATOM     10  C   UNL     1      -6.350  10.462   6.614  0.00  0.00    +0.000 A 
ATOM     11  C   UNL     1      -6.133  10.551   5.251  0.00  0.00    +0.002 A 
ATOM     12  C   UNL     1      -6.875   9.777   4.381  0.00  0.00    +0.026 A 
ENDBRANCH   6   7
BRANCH   5  13
ATOM     13  C   UNL     1     -10.901   9.123   4.411  0.00  0.00    +0.020 A 
ATOM     14  C   UNL     1     -10.429  10.240   5.103  0.00  0.00    +0.011 A 
ATOM     15  C   UNL     1     -11.322  11.108   5.697  0.00  0.00    +0.001 A 
ATOM     16  C   UNL     1     -12.682  10.867   5.617  0.00  0.00    +0.000 A 
ATOM     17  C   UNL     1     -13.156   9.759   4.938  0.00  0.00    +0.001 A 
ATOM     18  C   UNL     1     -12.274   8.886   4.335  0.00  0.00    +0.011 A 
ENDBRANCH   5  13
ENDBRANCH   1   2
BRANCH   1  19
ATOM     19  C   UNL     1      -6.675   5.264   1.799  0.00  0.00    +0.173 C 
BRANCH  19  21
ATOM     20  N   UNL     1      -5.249   3.627   0.615  0.00  0.00    -0.285 N 
ATOM     21  C   UNL     1      -5.338   4.633   1.507  0.00  0.00    +0.227 C 
ATOM     22  O   UNL     1      -4.343   5.030   2.075  0.00  0.00    -0.275 OA
ATOM     23  H   UNL     1      -6.030   3.360   0.105  0.00  0.00    +0.155 HD
BRANCH  20  27
ATOM     24  C   UNL     1      -1.613   1.665   0.042  0.00  0.00    +0.048 A 
ATOM     25  C   UNL     1      -2.486   1.835  -1.025  0.00  0.00    +0.026 A 
ATOM     26  C   UNL     1      -3.692   2.478  -0.834  0.00  0.00    +0.025 A 
ATOM     27  C   UNL     1      -4.027   2.968   0.422  0.00  0.00    +0.034 A 
ATOM     28  C   UNL     1      -3.151   2.804   1.487  0.00  0.00    +0.025 A 
ATOM     29  C   UNL     1      -1.948   2.154   1.298  0.00  0.00    +0.026 A 
BRANCH  24  30
ATOM     30  N   UNL     1      -0.394   1.007  -0.150  0.00  0.00    -0.221 N 
ATOM     31  H   UNL     1       0.421   1.375   0.226  0.00  0.00    +0.173 HD
BRANCH  30  33
ATOM     32  C   UNL     1      -1.364  -1.568  -0.069  0.00  0.00    +0.218 C 
ATOM     33  S   UNL     1      -0.342  -0.405  -1.014  0.00  0.00    +0.040 S 
ATOM     34  O   UNL     1      -0.970  -0.096  -2.252  0.00  0.00    -0.155 OA
ATOM     35  O   UNL     1       1.020  -0.806  -0.974  0.00  0.00    -0.155 OA
ENDBRANCH  30  33
ENDBRANCH  24  30
ENDBRANCH  20  27
ENDBRANCH  19  21
ENDBRANCH   1  19
TORSDOF 8
