REMARK  Name = ZINC16577165
REMARK  4 active torsions:
REMARK  status: ('A' for Active; 'I' for Inactive)
REMARK    1  A    between atoms: C_1  and  C_2
REMARK    2  A    between atoms: C_9  and  S_11
REMARK    3  A    between atoms: S_11  and  C_12
REMARK    4  A    between atoms: C_12  and  C_13
REMARK                            x       y       z     vdW  Elec       q    Type
REMARK                         _______ _______ _______ _____ _____    ______ ____
ROOT
ATOM      1  C   UNL     1      -1.622  -3.407   0.001  0.00  0.00    +0.066 C 
ATOM      2  C   UNL     1      -0.588  -2.312  -0.004  0.00  0.00    +0.045 A 
ATOM      3  C   UNL     1      -0.984  -1.009   0.006  0.00  0.00    +0.073 A 
ATOM      4  C   UNL     1       0.002  -0.004   0.002  0.00  0.00    +0.184 A 
ATOM      5  N   UNL     1      -0.016   1.317   0.009  0.00  0.00    -0.108 NA
ATOM      6  N   UNL     1       1.185   1.778   0.000  0.00  0.00    -0.022 NA
ATOM      7  N   UNL     1       2.046   0.816  -0.013  0.00  0.00    -0.037 NA
ATOM      8  N   UNL     1       1.321  -0.381  -0.013  0.00  0.00    -0.169 N 
ATOM      9  C   UNL     1       1.646  -1.704  -0.023  0.00  0.00    +0.194 A 
ATOM     10  N   UNL     1       0.708  -2.627  -0.018  0.00  0.00    -0.227 NA
ENDROOT
BRANCH   9  11
ATOM     11  S   UNL     1       3.341  -2.184  -0.042  0.00  0.00    -0.081 S 
BRANCH  11  12
ATOM     12  C   UNL     1       3.158  -3.985  -0.050  0.00  0.00    +0.115 C 
BRANCH  12  13
ATOM     13  C   UNL     1       4.520  -4.629  -0.066  0.00  0.00    -0.001 A 
ATOM     14  C   UNL     1       5.132  -4.923  -1.271  0.00  0.00    +0.046 A 
ATOM     15  C   UNL     1       6.384  -5.511  -1.286  0.00  0.00    +0.020 A 
ATOM     16  C   UNL     1       7.021  -5.812  -0.096  0.00  0.00    +0.003 A 
ATOM     17  C   UNL     1       6.408  -5.522   1.109  0.00  0.00    +0.020 A 
ATOM     18  C   UNL     1       5.157  -4.931   1.124  0.00  0.00    +0.046 A 
ATOM     19 CL   UNL     1       4.387  -4.568   2.637  0.00  0.00    -0.083 Cl
ATOM     20 CL   UNL     1       4.330  -4.551  -2.765  0.00  0.00    -0.083 Cl
ENDBRANCH  12  13
ENDBRANCH  11  12
ENDBRANCH   9  11
TORSDOF 3
