REMARK  Name = ZINC04167676
REMARK  9 active torsions:
REMARK  status: ('A' for Active; 'I' for Inactive)
REMARK    1  A    between atoms: C_1  and  C_2
REMARK    2  A    between atoms: C_5  and  S_8
REMARK    3  A    between atoms: S_8  and  C_9
REMARK    4  A    between atoms: C_9  and  C_10
REMARK    5  A    between atoms: C_17  and  N_26
REMARK    6  A    between atoms: C_18  and  C_24
REMARK    7  A    between atoms: C_19  and  C_21
REMARK    8  A    between atoms: C_21  and  C_22
REMARK    9  A    between atoms: C_21  and  C_23
REMARK                            x       y       z     vdW  Elec       q    Type
REMARK                         _______ _______ _______ _____ _____    ______ ____
ROOT
ATOM      1  C   UNL     1       0.198  -6.405   1.530  0.00  0.00    +0.080 A 
ATOM      2  C   UNL     1      -0.913  -7.097   1.994  0.00  0.00    +0.046 A 
ATOM      3  C   UNL     1      -0.515  -8.360   2.333  0.00  0.00    +0.222 A 
ATOM      4  N   UNL     1       0.802  -8.451   2.085  0.00  0.00    -0.246 N 
ATOM      5  H   UNL     1       1.357  -9.233   2.228  0.00  0.00    +0.192 HD
ATOM      6  N   UNL     1       1.230  -7.214   1.577  0.00  0.00    -0.175 NA
ATOM      7  O   UNL     1      -1.370  -9.290   2.826  0.00  0.00    -0.423 OA
ATOM      8  C   UNL     1      -2.582  -8.867   3.240  0.00  0.00    +0.200 C 
ATOM      9  C   UNL     1      -3.089  -7.646   2.957  0.00  0.00    +0.094 C 
ATOM     10  C   UNL     1      -2.338  -6.628   2.136  0.00  0.00    +0.074 C 
ENDROOT
BRANCH  10  11
ATOM     11  C   UNL     1      -2.980  -6.504   0.753  0.00  0.00    -0.004 C 
ATOM     12  C   UNL     1      -3.093  -7.890   0.116  0.00  0.00    +0.008 C 
ATOM     13  C   UNL     1      -4.376  -5.892   0.892  0.00  0.00    +0.008 C 
ENDBRANCH  10  11
BRANCH   8  14
ATOM     14  N   UNL     1      -3.345  -9.726   3.991  0.00  0.00    -0.328 N 
ATOM     15  H   UNL     1      -3.007 -10.608   4.210  0.00  0.00    +0.145 HD
ATOM     16  H   UNL     1      -4.221  -9.450   4.303  0.00  0.00    +0.145 HD
ENDBRANCH   8  14
BRANCH   9  17
ATOM     17  C   UNL     1      -4.388  -7.308   3.456  0.00  0.00    +0.100 C 
ATOM     18  N   UNL     1      -5.419  -7.039   3.851  0.00  0.00    -0.191 NA
ENDBRANCH   9  17
BRANCH   1  19
ATOM     19  C   UNL     1       0.215  -4.977   1.050  0.00  0.00    +0.132 C 
BRANCH  19  20
ATOM     20  S   UNL     1       0.087  -4.945  -0.759  0.00  0.00    -0.119 S 
BRANCH  20  25
ATOM     21  C   UNL     1       0.195   0.932  -2.128  0.00  0.00    +0.044 C 
ATOM     22  C   UNL     1       0.169  -0.535  -1.786  0.00  0.00    -0.050 A 
ATOM     23  C   UNL     1       0.064  -1.476  -2.794  0.00  0.00    +0.004 A 
ATOM     24  C   UNL     1       0.039  -2.822  -2.485  0.00  0.00    +0.015 A 
ATOM     25  C   UNL     1       0.119  -3.230  -1.158  0.00  0.00    +0.008 A 
ATOM     26  C   UNL     1       0.224  -2.281  -0.148  0.00  0.00    +0.015 A 
ATOM     27  C   UNL     1       0.254  -0.937  -0.466  0.00  0.00    +0.004 A 
ENDBRANCH  20  25
ENDBRANCH  19  20
ENDBRANCH   1  19
TORSDOF 6
