REMARK  Name = ZINC27549914
REMARK  13 active torsions:
REMARK  status: ('A' for Active; 'I' for Inactive)
REMARK    1  A    between atoms: C_1  and  C_2
REMARK    2  A    between atoms: C_4  and  C_36
REMARK    3  A    between atoms: C_6  and  O_8
REMARK    4  A    between atoms: O_8  and  C_9
REMARK    5  A    between atoms: C_9  and  C_10
REMARK    6  A    between atoms: C_10  and  O_11
REMARK    7  A    between atoms: O_11  and  C_12
REMARK    8  A    between atoms: C_13  and  O_34
REMARK    9  A    between atoms: C_15  and  C_19
REMARK   10  A    between atoms: C_29  and  C_31
REMARK   11  A    between atoms: C_31  and  C_32
REMARK   12  A    between atoms: C_31  and  C_33
REMARK   13  A    between atoms: O_34  and  C_35
REMARK                            x       y       z     vdW  Elec       q    Type
REMARK                         _______ _______ _______ _____ _____    ______ ____
ROOT
ATOM      1  C   UNL     1       1.964  -5.113   5.351  0.00  0.00    +0.180 A 
ATOM      2  C   UNL     1       2.294  -4.475   6.547  0.00  0.00    +0.164 A 
ATOM      3  C   UNL     1       2.316  -5.189   7.728  0.00  0.00    +0.057 A 
ATOM      4  C   UNL     1       2.006  -6.556   7.722  0.00  0.00    -0.019 A 
ATOM      5  C   UNL     1       1.675  -7.191   6.516  0.00  0.00    +0.032 A 
ATOM      6  C   UNL     1       1.651  -6.468   5.344  0.00  0.00    +0.087 A 
ATOM      7 CL   UNL     1       1.235  -7.252   3.852  0.00  0.00    -0.080 Cl
ENDROOT
BRANCH   4   8
ATOM      8  C   UNL     1       2.027  -7.320   8.972  0.00  0.00    +0.024 C 
ATOM      9  C   UNL     1       1.098  -8.313   9.188  0.00  0.00    +0.081 C 
ATOM     10  C   UNL     1       1.191  -9.234  10.356  0.00  0.00    +0.152 C 
ATOM     11  N   UNL     1       1.671  -8.875  11.517  0.00  0.00    -0.283 NA
ATOM     12  N   UNL     1       0.708 -10.532  10.085  0.00  0.00    -0.152 N 
ATOM     13  C   UNL     1      -0.195 -10.673   9.053  0.00  0.00    +0.181 C 
ATOM     14  N   UNL     1      -0.599  -9.752   8.215  0.00  0.00    -0.152 NA
ATOM     15  C   UNL     1      -0.053  -8.519   8.275  0.00  0.00    +0.273 C 
ATOM     16  O   UNL     1      -0.489  -7.602   7.597  0.00  0.00    -0.268 OA
ATOM     17  S   UNL     1      -0.619 -12.391   9.162  0.00  0.00    -0.038 S 
ATOM     18  C   UNL     1       0.495 -12.823  10.492  0.00  0.00    +0.102 C 
ATOM     19  N   UNL     1       1.050 -11.679  10.770  0.00  0.00    -0.169 NA
ATOM     20  H   UNL     1       1.709  -9.515  12.245  0.00  0.00    +0.188 HD
BRANCH  18  21
ATOM     21  C   UNL     1       0.732 -14.169  11.128  0.00  0.00    +0.040 C 
ATOM     22  C   UNL     1       1.765 -14.946  10.309  0.00  0.00    +0.014 C 
ATOM     23  C   UNL     1       1.253 -13.975  12.553  0.00  0.00    +0.014 C 
ENDBRANCH  18  21
ENDBRANCH   4   8
BRANCH   2  24
ATOM     24  O   UNL     1       2.595  -3.149   6.549  0.00  0.00    -0.491 OA
ATOM     25  C   UNL     1       2.924  -2.560   7.809  0.00  0.00    +0.277 C 
ENDBRANCH   2  24
BRANCH   1  26
ATOM     26  O   UNL     1       1.944  -4.408   4.191  0.00  0.00    -0.483 OA
BRANCH  26  27
ATOM     27  C   UNL     1       0.707  -3.788   3.831  0.00  0.00    +0.270 C 
BRANCH  27  28
ATOM     28  C   UNL     1       0.877  -3.045   2.505  0.00  0.00    +0.270 C 
BRANCH  28  29
ATOM     29  O   UNL     1       1.147  -3.984   1.462  0.00  0.00    -0.489 OA
BRANCH  29  35
ATOM     30  C   UNL     1       1.333  -0.126  -1.521  0.00  0.00    +0.044 C 
ATOM     31  C   UNL     1       1.423  -1.611  -1.281  0.00  0.00    -0.047 A 
ATOM     32  C   UNL     1       1.688  -2.466  -2.335  0.00  0.00    +0.007 A 
ATOM     33  C   UNL     1       1.771  -3.829  -2.118  0.00  0.00    -0.047 A 
ATOM     34  C   UNL     1       1.591  -4.340  -0.848  0.00  0.00    +0.049 A 
ATOM     35  C   UNL     1       1.325  -3.484   0.211  0.00  0.00    +0.121 A 
ATOM     36  C   UNL     1       1.247  -2.117  -0.008  0.00  0.00    +0.049 A 
ATOM     37  C   UNL     1       2.059  -4.758  -3.269  0.00  0.00    +0.044 C 
ENDBRANCH  29  35
ENDBRANCH  28  29
ENDBRANCH  27  28
ENDBRANCH  26  27
ENDBRANCH   1  26
TORSDOF 8
