REMARK  Name = ZINC13064230
REMARK  13 active torsions:
REMARK  status: ('A' for Active; 'I' for Inactive)
REMARK    1  A    between atoms: C_1  and  C_2
REMARK    2  A    between atoms: C_2  and  C_3
REMARK    3  A    between atoms: C_3  and  C_5
REMARK    4  A    between atoms: C_3  and  N_69
REMARK    5  A    between atoms: N_9  and  C_10
REMARK    6  A    between atoms: C_10  and  C_11
REMARK    7  A    between atoms: C_10  and  C_12
REMARK    8  A    between atoms: C_10  and  C_13
REMARK    9  A    between atoms: C_14  and  C_15
REMARK   10  A    between atoms: C_14  and  N_69
REMARK   11  A    between atoms: C_20  and  O_27
REMARK   12  A    between atoms: O_27  and  C_28
REMARK   13  A    between atoms: C_29  and  N_69
REMARK                            x       y       z     vdW  Elec       q    Type
REMARK                         _______ _______ _______ _____ _____    ______ ____
ROOT
ATOM      1  N   UNL     1       3.464   0.255   8.918  0.00  0.00    +0.391 N 
ATOM      2  H   UNL     1       4.257   0.612   8.373  0.00  0.00    -0.080 HD
ENDROOT
BRANCH   1   3
ATOM      3  C   UNL     1       2.246   1.004   8.544  0.00  0.00    -0.067 C 
ATOM      4  C   UNL     1       2.489   2.496   8.784  0.00  0.00    -0.015 C 
ATOM      5  C   UNL     1       1.244   3.287   8.378  0.00  0.00    -0.002 C 
ATOM      6  C   UNL     1       0.049   2.823   9.214  0.00  0.00    -0.000 C 
ATOM      7  C   UNL     1      -0.193   1.332   8.974  0.00  0.00    -0.002 C 
ATOM      8  C   UNL     1       1.052   0.540   9.380  0.00  0.00    -0.015 C 
ENDBRANCH   1   3
BRANCH   1   9
ATOM      9  C   UNL     1       3.748   0.440  10.357  0.00  0.00    +0.003 C 
BRANCH   9  10
ATOM     10  C   UNL     1       4.744   1.560  10.507  0.00  0.00    +0.139 A 
ATOM     11  N   UNL     1       5.708   1.868   9.674  0.00  0.00    -0.115 NA
ATOM     12  N   UNL     1       6.338   2.885  10.152  0.00  0.00    -0.023 NA
ATOM     13  N   UNL     1       5.806   3.229  11.273  0.00  0.00    -0.043 NA
ATOM     14  N   UNL     1       4.820   2.437  11.526  0.00  0.00    -0.226 N 
BRANCH  14  15
ATOM     15  C   UNL     1       3.947   2.482  12.701  0.00  0.00    +0.059 C 
ATOM     16  C   UNL     1       3.880   1.094  13.341  0.00  0.00    +0.036 C 
ATOM     17  C   UNL     1       4.506   3.484  13.714  0.00  0.00    +0.036 C 
ATOM     18  C   UNL     1       2.542   2.916  12.277  0.00  0.00    +0.036 C 
ENDBRANCH  14  15
ENDBRANCH   9  10
BRANCH   9  20
ATOM     19  C   UNL     1       3.211  -1.736  11.461  0.00  0.00    +0.002 C 
ATOM     20  C   UNL     1       4.340  -0.849  10.932  0.00  0.00    -0.011 C 
ENDBRANCH   9  20
ENDBRANCH   1   9
BRANCH   1  21
ATOM     21  C   UNL     1       3.284  -1.182   8.619  0.00  0.00    -0.036 C 
BRANCH  21  22
ATOM     22  C   UNL     1       3.096  -1.351   7.134  0.00  0.00    +0.001 A 
ATOM     23  C   UNL     1       4.171  -1.584   6.338  0.00  0.00    +0.017 A 
ATOM     24  C   UNL     1       3.956  -1.744   4.901  0.00  0.00    -0.001 A 
ATOM     25  C   UNL     1       5.026  -1.986   4.032  0.00  0.00    +0.013 A 
ATOM     26  C   UNL     1       4.795  -2.136   2.696  0.00  0.00    +0.046 A 
ATOM     27  C   UNL     1       3.500  -2.039   2.187  0.00  0.00    +0.122 A 
ATOM     28  C   UNL     1       2.428  -1.800   3.029  0.00  0.00    +0.072 A 
ATOM     29  C   UNL     1       2.645  -1.650   4.393  0.00  0.00    +0.053 A 
ATOM     30  N   UNL     1       1.595  -1.411   5.255  0.00  0.00    -0.322 N 
ATOM     31  H   UNL     1       0.693  -1.347   4.904  0.00  0.00    +0.169 HD
ATOM     32  C   UNL     1       1.805  -1.266   6.575  0.00  0.00    +0.251 A 
ATOM     33  O   UNL     1       0.853  -1.056   7.308  0.00  0.00    -0.268 OA
BRANCH  27  34
ATOM     34  O   UNL     1       3.288  -2.185   0.854  0.00  0.00    -0.495 OA
ATOM     35  C   UNL     1       4.436  -2.430   0.038  0.00  0.00    +0.277 C 
ENDBRANCH  27  34
ENDBRANCH  21  22
ENDBRANCH   1  21
TORSDOF 8
