REMARK  Name = ZINC03449065
REMARK  6 active torsions:
REMARK  status: ('A' for Active; 'I' for Inactive)
REMARK    1  A    between atoms: C_4  and  C_7
REMARK    2  A    between atoms: C_12  and  N_13
REMARK    3  A    between atoms: C_14  and  C_16
REMARK    4  A    between atoms: C_16  and  S_17
REMARK    5  A    between atoms: S_17  and  C_18
REMARK    6  A    between atoms: C_21  and  C_23
REMARK                            x       y       z     vdW  Elec       q    Type
REMARK                         _______ _______ _______ _____ _____    ______ ____
ROOT
ATOM      1  C   UNL     1       2.070  -3.565   3.569  0.00  0.00    +0.175 C 
ENDROOT
BRANCH   1   3
ATOM      2  N   UNL     1       2.968  -2.064   1.819  0.00  0.00    -0.284 N 
ATOM      3  C   UNL     1       3.166  -3.118   2.636  0.00  0.00    +0.228 C 
ATOM      4  O   UNL     1       4.226  -3.707   2.621  0.00  0.00    -0.275 OA
ATOM      5  H   UNL     1       2.146  -1.553   1.877  0.00  0.00    +0.155 HD
BRANCH   2  11
ATOM      6  C   UNL     1       3.577  -1.201  -0.362  0.00  0.00    +0.003 A 
ATOM      7  C   UNL     1       4.562  -0.844  -1.280  0.00  0.00    +0.010 A 
ATOM      8  C   UNL     1       5.894  -0.997  -0.956  0.00  0.00    +0.001 A 
ATOM      9  C   UNL     1       6.258  -1.505   0.279  0.00  0.00    +0.002 A 
ATOM     10  C   UNL     1       5.291  -1.863   1.198  0.00  0.00    +0.024 A 
ATOM     11  C   UNL     1       3.948  -1.708   0.889  0.00  0.00    +0.041 A 
BRANCH   6  15
ATOM     12  C   UNL     1      -0.532  -0.735  -1.346  0.00  0.00    +0.000 A 
ATOM     13  C   UNL     1       0.345   0.317  -1.538  0.00  0.00    +0.001 A 
ATOM     14  C   UNL     1       1.681   0.171  -1.220  0.00  0.00    +0.008 A 
ATOM     15  C   UNL     1       2.144  -1.038  -0.705  0.00  0.00    -0.016 A 
ATOM     16  C   UNL     1       1.255  -2.095  -0.514  0.00  0.00    +0.008 A 
ATOM     17  C   UNL     1      -0.078  -1.938  -0.836  0.00  0.00    +0.001 A 
ENDBRANCH   6  15
ENDBRANCH   2  11
ENDBRANCH   1   3
BRANCH   1  18
ATOM     18  S   UNL     1       2.638  -4.995   4.529  0.00  0.00    -0.056 S 
BRANCH  18  19
ATOM     19  C   UNL     1       1.263  -5.392   5.557  0.00  0.00    +0.278 A 
ATOM     20  N   UNL     1       0.109  -4.771   5.582  0.00  0.00    -0.101 NA
ATOM     21  N   UNL     1      -0.660  -5.329   6.450  0.00  0.00    -0.106 NA
ATOM     22  C   UNL     1      -0.026  -6.329   7.014  0.00  0.00    +0.251 A 
ATOM     23  O   UNL     1       1.203  -6.394   6.457  0.00  0.00    -0.411 OA
BRANCH  22  24
ATOM     24  C   UNL     1      -0.559  -7.223   8.061  0.00  0.00    +0.063 A 
ATOM     25  C   UNL     1       0.092  -8.257   8.654  0.00  0.00    +0.097 A 
ATOM     26  N   UNL     1      -0.725  -8.848   9.573  0.00  0.00    -0.360 N 
ATOM     27  H   UNL     1      -0.481  -9.608  10.124  0.00  0.00    +0.165 HD
ATOM     28  C   UNL     1      -1.946  -8.210   9.606  0.00  0.00    +0.047 A 
ATOM     29  C   UNL     1      -1.899  -7.163   8.670  0.00  0.00    +0.012 A 
ATOM     30  C   UNL     1      -3.006  -6.336   8.492  0.00  0.00    +0.011 A 
ATOM     31  C   UNL     1      -4.144  -6.549   9.239  0.00  0.00    +0.001 A 
ATOM     32  C   UNL     1      -4.190  -7.580  10.166  0.00  0.00    +0.002 A 
ATOM     33  C   UNL     1      -3.106  -8.411  10.348  0.00  0.00    +0.026 A 
ENDBRANCH  22  24
ENDBRANCH  18  19
ENDBRANCH   1  18
TORSDOF 6
