REMARK  Name = ZINC12696909
REMARK  10 active torsions:
REMARK  status: ('A' for Active; 'I' for Inactive)
REMARK    1  A    between atoms: C_1  and  C_2
REMARK    2  A    between atoms: C_5  and  S_27
REMARK    3  A    between atoms: C_7  and  C_8
REMARK    4  A    between atoms: N_10  and  C_11
REMARK    5  A    between atoms: C_11  and  C_12
REMARK    6  A    between atoms: C_12  and  C_14
REMARK    7  A    between atoms: C_12  and  N_69
REMARK    8  A    between atoms: C_17  and  O_20
REMARK    9  A    between atoms: O_20  and  C_21
REMARK   10  A    between atoms: S_27  and  N_30
REMARK                            x       y       z     vdW  Elec       q    Type
REMARK                         _______ _______ _______ _____ _____    ______ ____
ROOT
ATOM      1  C   UNL     1      -4.929  -0.635  -1.853  0.00  0.00    +0.244 C 
ATOM      2  O   UNL     1      -4.545  -0.479  -2.995  0.00  0.00    -0.270 OA
ATOM      3  N   UNL     1      -4.276  -0.041  -0.835  0.00  0.00    -0.313 N 
ATOM      4  H   UNL     1      -4.582  -0.165   0.077  0.00  0.00    +0.149 HD
ENDROOT
BRANCH   1  11
ATOM      5  C   UNL     1      -6.492  -1.665  -4.059  0.00  0.00    +0.044 C 
ATOM      6  C   UNL     1      -6.875  -1.980  -2.635  0.00  0.00    -0.038 A 
ATOM      7  C   UNL     1      -7.975  -2.770  -2.373  0.00  0.00    +0.006 A 
ATOM      8  C   UNL     1      -8.331  -3.055  -1.067  0.00  0.00    +0.029 A 
ATOM      9  C   UNL     1      -7.582  -2.557  -0.015  0.00  0.00    +0.106 A 
ATOM     10  C   UNL     1      -6.477  -1.770  -0.264  0.00  0.00    +0.041 A 
ATOM     11  C   UNL     1      -6.113  -1.478  -1.579  0.00  0.00    +0.041 A 
BRANCH   9  12
ATOM     12  S   UNL     1      -8.043  -2.926   1.644  0.00  0.00    +0.061 S 
ATOM     13  O   UNL     1      -8.797  -4.130   1.598  0.00  0.00    -0.153 OA
ATOM     14  O   UNL     1      -6.868  -2.793   2.432  0.00  0.00    -0.153 OA
BRANCH  12  15
ATOM     15  N   UNL     1      -9.083  -1.736   2.140  0.00  0.00    -0.177 NA
ATOM     16  C   UNL     1      -8.696  -0.482   2.803  0.00  0.00    +0.109 C 
ATOM     17  C   UNL     1      -9.994   0.299   3.098  0.00  0.00    +0.018 C 
ATOM     18  C   UNL     1     -11.074  -0.815   3.105  0.00  0.00    +0.018 C 
ATOM     19  C   UNL     1     -10.550  -1.763   1.997  0.00  0.00    +0.109 C 
ENDBRANCH  12  15
ENDBRANCH   9  12
ENDBRANCH   1  11
BRANCH   3  20
ATOM     20  C   UNL     1      -3.103   0.794  -1.106  0.00  0.00    +0.094 C 
BRANCH  20  21
ATOM     21  C   UNL     1      -2.554   1.345   0.212  0.00  0.00    -0.020 C 
BRANCH  21  27
ATOM     22  C   UNL     1      -3.955   3.319   0.265  0.00  0.00    -0.078 C 
ATOM     23  C   UNL     1      -5.165   3.955   0.953  0.00  0.00    -0.019 C 
ATOM     24  C   UNL     1      -4.836   4.202   2.428  0.00  0.00    -0.004 C 
ATOM     25  C   UNL     1      -4.446   2.875   3.085  0.00  0.00    -0.019 C 
ATOM     26  C   UNL     1      -3.257   2.270   2.336  0.00  0.00    -0.078 C 
ATOM     27  N   UNL     1      -3.647   2.034   0.929  0.00  0.00    +0.385 N 
ATOM     28  H   UNL     1      -4.484   1.440   0.910  0.00  0.00    -0.081 HD
ENDBRANCH  21  27
BRANCH  21  29
ATOM     29  C   UNL     1      -1.425   2.301  -0.075  0.00  0.00    -0.059 A 
ATOM     30  C   UNL     1      -1.548   3.230  -1.092  0.00  0.00    +0.005 A 
ATOM     31  C   UNL     1      -0.517   4.112  -1.353  0.00  0.00    +0.046 A 
ATOM     32  C   UNL     1       0.646   4.060  -0.598  0.00  0.00    +0.120 A 
ATOM     33  C   UNL     1       0.770   3.123   0.418  0.00  0.00    +0.046 A 
ATOM     34  C   UNL     1      -0.265   2.244   0.675  0.00  0.00    +0.005 A 
BRANCH  32  35
ATOM     35  O   UNL     1       1.662   4.926  -0.852  0.00  0.00    -0.495 OA
ATOM     36  C   UNL     1       2.829   4.815  -0.035  0.00  0.00    +0.277 C 
ENDBRANCH  32  35
ENDBRANCH  21  29
ENDBRANCH  20  21
ENDBRANCH   3  20
TORSDOF 8
