REMARK  Name = ZINC59498094
REMARK  4 active torsions:
REMARK  status: ('A' for Active; 'I' for Inactive)
REMARK    1  A    between atoms: N_9  and  C_22
REMARK    2  A    between atoms: C_10  and  C_13
REMARK    3  A    between atoms: C_16  and  N_19
REMARK    4  A    between atoms: C_22  and  C_23
REMARK                            x       y       z     vdW  Elec       q    Type
REMARK                         _______ _______ _______ _____ _____    ______ ____
ROOT
ATOM      1  C   UNL     1      -0.269   0.974   0.755  0.00  0.00    +0.001 A 
ATOM      2  C   UNL     1       0.885   1.739   0.826  0.00  0.00    +0.002 A 
ATOM      3  C   UNL     1       2.124   1.161   0.631  0.00  0.00    +0.024 A 
ATOM      4  C   UNL     1       2.213  -0.194   0.362  0.00  0.00    +0.041 A 
ATOM      5  C   UNL     1       1.045  -0.974   0.292  0.00  0.00    +0.058 A 
ATOM      6  C   UNL     1      -0.198  -0.378   0.489  0.00  0.00    +0.015 A 
ATOM      7  C   UNL     1       1.179  -2.415   0.013  0.00  0.00    +0.250 C 
ATOM      8  O   UNL     1       0.238  -3.166   0.188  0.00  0.00    -0.270 OA
ATOM      9  N   UNL     1       2.357  -2.893  -0.439  0.00  0.00    -0.271 N 
ATOM     10  C   UNL     1       3.475  -1.996  -0.732  0.00  0.00    +0.193 C 
ATOM     11  N   UNL     1       3.434  -0.825   0.152  0.00  0.00    -0.321 N 
ATOM     12  H   UNL     1       4.241  -0.498   0.580  0.00  0.00    +0.148 HD
ENDROOT
BRANCH  10  13
ATOM     13  C   UNL     1       3.386  -1.539  -2.166  0.00  0.00    -0.009 A 
ATOM     14  C   UNL     1       3.987  -0.356  -2.552  0.00  0.00    +0.009 A 
ATOM     15  C   UNL     1       3.904   0.064  -3.867  0.00  0.00    +0.033 A 
ATOM     16  C   UNL     1       3.221  -0.700  -4.795  0.00  0.00    +0.126 A 
ATOM     17  C   UNL     1       2.621  -1.883  -4.408  0.00  0.00    +0.033 A 
ATOM     18  C   UNL     1       2.707  -2.305  -3.094  0.00  0.00    +0.009 A 
BRANCH  16  19
ATOM     19  N   UNL     1       3.132  -0.250  -6.202  0.00  0.00    +0.056 N 
ATOM     20  O   UNL     1       3.657   0.785  -6.540  0.00  0.00    -0.126 OA
ATOM     21  O   UNL     1       2.535  -0.918  -7.013  0.00  0.00    -0.126 OA
ENDBRANCH  16  19
ENDBRANCH  10  13
BRANCH   9  22
ATOM     22  C   UNL     1       2.520  -4.335  -0.639  0.00  0.00    +0.145 C 
BRANCH  22  23
ATOM     23  C   UNL     1       3.129  -4.948   0.595  0.00  0.00    -0.030 A 
ATOM     24  C   UNL     1       4.502  -4.952   0.759  0.00  0.00    +0.006 A 
ATOM     25  C   UNL     1       5.061  -5.514   1.891  0.00  0.00    +0.020 A 
ATOM     26  C   UNL     1       4.247  -6.073   2.860  0.00  0.00    +0.041 A 
ATOM     27  C   UNL     1       2.873  -6.068   2.696  0.00  0.00    +0.020 A 
ATOM     28  C   UNL     1       2.315  -5.500   1.566  0.00  0.00    +0.006 A 
ATOM     29 CL   UNL     1       4.949  -6.779   4.282  0.00  0.00    -0.084 Cl
ENDBRANCH  22  23
ENDBRANCH   9  22
TORSDOF 4
