REMARK  Name = ZINC13096550
REMARK  9 active torsions:
REMARK  status: ('A' for Active; 'I' for Inactive)
REMARK    1  A    between atoms: C_1  and  C_2
REMARK    2  A    between atoms: C_7  and  N_8
REMARK    3  A    between atoms: C_12  and  S_14
REMARK    4  A    between atoms: S_14  and  C_15
REMARK    5  A    between atoms: C_15  and  C_16
REMARK    6  A    between atoms: N_18  and  C_19
REMARK    7  A    between atoms: C_20  and  C_27
REMARK    8  A    between atoms: C_27  and  O_29
REMARK    9  A    between atoms: O_29  and  C_30
REMARK                            x       y       z     vdW  Elec       q    Type
REMARK                         _______ _______ _______ _____ _____    ______ ____
ROOT
ATOM      1  C   UNL     1      -0.010   0.051   0.544  0.00  0.00    +0.172 C 
ENDROOT
BRANCH   1   2
ATOM      2  C   UNL     1      -1.424  -0.470   0.570  0.00  0.00    +0.228 C 
ATOM      3  O   UNL     1      -2.350   0.280   0.343  0.00  0.00    -0.275 OA
ATOM      4  N   UNL     1      -1.659  -1.768   0.845  0.00  0.00    -0.279 N 
ATOM      5  H   UNL     1      -0.918  -2.367   1.026  0.00  0.00    +0.155 HD
BRANCH   4   6
ATOM      6  C   UNL     1      -2.959  -2.247   0.868  0.00  0.00    +0.086 A 
ATOM      7  C   UNL     1      -3.398  -3.537   1.122  0.00  0.00    +0.091 A 
ATOM      8  C   UNL     1      -4.840  -3.780   1.089  0.00  0.00    -0.021 A 
ATOM      9  C   UNL     1      -5.594  -2.705   0.800  0.00  0.00    -0.004 A 
ATOM     10  S   UNL     1      -4.430  -1.381   0.579  0.00  0.00    -0.077 S 
ATOM     11  C   UNL     1      -7.062  -3.034   0.782  0.00  0.00    +0.043 C 
ATOM     12  C   UNL     1      -7.168  -4.383   1.527  0.00  0.00    +0.010 C 
ATOM     13  C   UNL     1      -5.765  -4.980   1.295  0.00  0.00    +0.037 C 
BRANCH   7  14
ATOM     14  C   UNL     1      -2.452  -4.615   1.417  0.00  0.00    +0.342 C 
ATOM     15  O   UNL     1      -2.125  -4.839   2.567  0.00  0.00    -0.245 OA
BRANCH  14  16
ATOM     16  O   UNL     1      -1.945  -5.360   0.414  0.00  0.00    -0.464 OA
ATOM     17  C   UNL     1      -1.013  -6.412   0.780  0.00  0.00    +0.280 C 
ENDBRANCH  14  16
ENDBRANCH   7  14
ENDBRANCH   4   6
ENDBRANCH   1   2
BRANCH   1  18
ATOM     18  S   UNL     1      -0.025   1.821   0.148  0.00  0.00    -0.088 S 
BRANCH  18  23
ATOM     19  N   UNL     1       5.288   4.136  -0.027  0.00  0.00    -0.292 N 
ATOM     20  C   UNL     1       4.130   3.373   0.070  0.00  0.00    +0.187 A 
ATOM     21  N   UNL     1       3.995   2.091   0.347  0.00  0.00    -0.125 NA
ATOM     22  N   UNL     1       2.740   1.529   0.398  0.00  0.00    -0.133 NA
ATOM     23  C   UNL     1       1.678   2.274   0.157  0.00  0.00    +0.160 A 
ATOM     24  S   UNL     1       2.427   3.866  -0.150  0.00  0.00    -0.024 S 
ATOM     25  H   UNL     1       5.227   5.096  -0.157  0.00  0.00    +0.154 HD
BRANCH  19  32
ATOM     26  C   UNL     1       7.590   5.799   0.157  0.00  0.00    +0.045 C 
ATOM     27  C   UNL     1       7.690   4.295   0.155  0.00  0.00    -0.029 A 
ATOM     28  C   UNL     1       8.925   3.684   0.249  0.00  0.00    +0.005 A 
ATOM     29  C   UNL     1       9.018   2.304   0.242  0.00  0.00    +0.000 A 
ATOM     30  C   UNL     1       7.875   1.532   0.146  0.00  0.00    +0.002 A 
ATOM     31  C   UNL     1       6.637   2.136   0.056  0.00  0.00    +0.023 A 
ATOM     32  C   UNL     1       6.540   3.522   0.063  0.00  0.00    +0.036 A 
ENDBRANCH  19  32
ENDBRANCH  18  23
ENDBRANCH   1  18
TORSDOF 7
