REMARK  Name = ZINC06444071
REMARK  8 active torsions:
REMARK  status: ('A' for Active; 'I' for Inactive)
REMARK    1  A    between atoms: C_1  and  C_2
REMARK    2  A    between atoms: C_12  and  C_14
REMARK    3  A    between atoms: C_14  and  C_16
REMARK    4  A    between atoms: C_14  and  N_71
REMARK    5  A    between atoms: N_20  and  C_21
REMARK    6  A    between atoms: C_21  and  C_22
REMARK    7  A    between atoms: C_30  and  C_33
REMARK    8  A    between atoms: C_33  and  C_34
REMARK                            x       y       z     vdW  Elec       q    Type
REMARK                         _______ _______ _______ _____ _____    ______ ____
ROOT
ATOM      1  C   UNL     1      -2.604   3.705   0.047  0.00  0.00    +0.039 C 
ENDROOT
BRANCH   1  13
ATOM      2  C   UNL     1       2.436  -0.513  -0.023  0.00  0.00    +0.046 C 
ATOM      3  C   UNL     1       2.399   0.993  -0.015  0.00  0.00    -0.026 A 
ATOM      4  C   UNL     1       3.574   1.714  -0.023  0.00  0.00    +0.005 A 
ATOM      5  C   UNL     1       3.553   3.102  -0.016  0.00  0.00    +0.001 A 
ATOM      6  C   UNL     1       2.367   3.780  -0.001  0.00  0.00    +0.010 A 
ATOM      7  C   UNL     1       1.163   3.069   0.007  0.00  0.00    -0.001 A 
ATOM      8  C   UNL     1       1.179   1.661  -0.000  0.00  0.00    +0.052 A 
ATOM      9  N   UNL     1      -0.011   0.966   0.007  0.00  0.00    -0.322 N 
ATOM     10  H   UNL     1       0.002  -0.004   0.002  0.00  0.00    +0.169 HD
ATOM     11  C   UNL     1      -1.190   1.613   0.017  0.00  0.00    +0.251 A 
ATOM     12  O   UNL     1      -2.223   0.965   0.018  0.00  0.00    -0.268 OA
ATOM     13  C   UNL     1      -1.261   3.022   0.030  0.00  0.00    +0.011 A 
ATOM     14  C   UNL     1      -0.126   3.764   0.023  0.00  0.00    +0.017 A 
ENDBRANCH   1  13
BRANCH   1  20
ATOM     15  C   UNL     1      -2.708   3.425  -2.355  0.00  0.00    -0.077 C 
ATOM     16  C   UNL     1      -3.512   2.785  -3.489  0.00  0.00    -0.015 C 
ATOM     17  C   UNL     1      -4.902   3.424  -3.548  0.00  0.00    -0.010 C 
ATOM     18  C   UNL     1      -5.595   3.244  -2.194  0.00  0.00    -0.015 C 
ATOM     19  C   UNL     1      -4.731   3.871  -1.097  0.00  0.00    -0.077 C 
ATOM     20  N   UNL     1      -3.416   3.196  -1.077  0.00  0.00    +0.389 N 
ATOM     21  H   UNL     1      -3.562   2.187  -0.954  0.00  0.00    -0.080 HD
BRANCH  17  22
ATOM     22  C   UNL     1      -5.732   2.747  -4.641  0.00  0.00    +0.038 C 
BRANCH  22  23
ATOM     23  C   UNL     1      -5.115   3.028  -5.987  0.00  0.00    -0.047 A 
ATOM     24  C   UNL     1      -5.507   4.141  -6.708  0.00  0.00    +0.003 A 
ATOM     25  C   UNL     1      -4.938   4.401  -7.940  0.00  0.00    +0.000 A 
ATOM     26  C   UNL     1      -3.983   3.544  -8.456  0.00  0.00    +0.000 A 
ATOM     27  C   UNL     1      -3.595   2.429  -7.737  0.00  0.00    +0.000 A 
ATOM     28  C   UNL     1      -4.161   2.171  -6.502  0.00  0.00    +0.003 A 
ENDBRANCH  22  23
ENDBRANCH  17  22
ENDBRANCH   1  20
BRANCH   1  29
ATOM     29  C   UNL     1      -3.312   3.391   1.340  0.00  0.00    +0.143 A 
ATOM     30  N   UNL     1      -3.893   2.261   1.660  0.00  0.00    -0.115 NA
ATOM     31  N   UNL     1      -4.380   2.385   2.846  0.00  0.00    -0.023 NA
ATOM     32  N   UNL     1      -4.131   3.568   3.289  0.00  0.00    -0.044 NA
ATOM     33  N   UNL     1      -3.474   4.219   2.390  0.00  0.00    -0.228 N 
BRANCH  33  34
ATOM     34  C   UNL     1      -2.993   5.599   2.491  0.00  0.00    +0.178 C 
BRANCH  34  35
ATOM     35  C   UNL     1      -4.066   6.553   1.962  0.00  0.00    +0.140 C 
ATOM     36  C   UNL     1      -3.600   8.023   2.111  0.00  0.00    +0.035 C 
ATOM     37  C   UNL     1      -4.439   8.712   1.001  0.00  0.00    +0.031 C 
ATOM     38  C   UNL     1      -4.508   7.617  -0.086  0.00  0.00    +0.160 C 
ATOM     39  O   UNL     1      -4.253   6.359   0.551  0.00  0.00    -0.375 OA
ENDBRANCH  34  35
ENDBRANCH  33  34
ENDBRANCH   1  29
TORSDOF 7
