REMARK  Name = ZINC19908799
REMARK  8 active torsions:
REMARK  status: ('A' for Active; 'I' for Inactive)
REMARK    1  A    between atoms: C_1  and  C_2
REMARK    2  A    between atoms: C_8  and  C_34
REMARK    3  A    between atoms: C_9  and  C_28
REMARK    4  A    between atoms: N_10  and  C_11
REMARK    5  A    between atoms: C_11  and  C_12
REMARK    6  A    between atoms: C_12  and  C_14
REMARK    7  A    between atoms: C_12  and  O_27
REMARK    8  A    between atoms: C_14  and  N_15
REMARK                            x       y       z     vdW  Elec       q    Type
REMARK                         _______ _______ _______ _____ _____    ______ ____
ROOT
ATOM      1  C   UNL     1       5.073   2.375  -4.100  0.00  0.00    +0.044 C 
ATOM      2  C   UNL     1       4.814   3.262  -2.910  0.00  0.00    -0.050 A 
ATOM      3  C   UNL     1       5.598   4.389  -2.706  0.00  0.00    +0.005 A 
ATOM      4  C   UNL     1       5.378   5.212  -1.623  0.00  0.00    +0.027 A 
ATOM      5  C   UNL     1       4.358   4.915  -0.724  0.00  0.00    +0.050 A 
ATOM      6  C   UNL     1       3.567   3.773  -0.936  0.00  0.00    +0.008 A 
ATOM      7  C   UNL     1       3.807   2.952  -2.039  0.00  0.00    +0.014 A 
ATOM      8  C   UNL     1       2.594   3.733   0.166  0.00  0.00    +0.015 A 
ATOM      9  C   UNL     1       2.851   4.835   0.954  0.00  0.00    +0.058 A 
ATOM     10  N   UNL     1       3.908   5.534   0.423  0.00  0.00    -0.337 N 
ENDROOT
BRANCH   9  11
ATOM     11  C   UNL     1       2.111   5.203   2.177  0.00  0.00    -0.001 A 
ATOM     12  C   UNL     1       0.727   5.386   2.131  0.00  0.00    +0.010 A 
ATOM     13  C   UNL     1       0.041   5.725   3.279  0.00  0.00    +0.001 A 
ATOM     14  C   UNL     1       0.722   5.895   4.471  0.00  0.00    +0.000 A 
ATOM     15  C   UNL     1       2.093   5.721   4.523  0.00  0.00    +0.001 A 
ATOM     16  C   UNL     1       2.792   5.376   3.384  0.00  0.00    +0.010 A 
ENDBRANCH   9  11
BRANCH   8  17
ATOM     17  C   UNL     1       1.543   2.715   0.383  0.00  0.00    -0.015 A 
ATOM     18  C   UNL     1       1.889   1.423   0.781  0.00  0.00    +0.008 A 
ATOM     19  C   UNL     1       0.904   0.479   0.981  0.00  0.00    +0.001 A 
ATOM     20  C   UNL     1      -0.425   0.808   0.782  0.00  0.00    +0.000 A 
ATOM     21  C   UNL     1      -0.776   2.089   0.393  0.00  0.00    +0.001 A 
ATOM     22  C   UNL     1       0.200   3.042   0.189  0.00  0.00    +0.008 A 
ENDBRANCH   8  17
BRANCH  10  23
ATOM     23  C   UNL     1       4.471   6.762   0.989  0.00  0.00    +0.155 C 
BRANCH  23  24
ATOM     24  C   UNL     1       3.746   7.974   0.401  0.00  0.00    +0.148 C 
BRANCH  24  25
ATOM     25  O   UNL     1       2.378   7.958   0.816  0.00  0.00    -0.389 OA
ATOM     26  H   UNL     1       1.695   8.756   0.489  0.00  0.00    +0.210 HD
ENDBRANCH  24  25
BRANCH  24  27
ATOM     27  C   UNL     1       4.414   9.258   0.896  0.00  0.00    +0.117 C 
BRANCH  27  28
ATOM     28  N   UNL     1       3.718  10.421   0.331  0.00  0.00    -0.297 NA
ATOM     29  C   UNL     1       3.889  10.481  -1.127  0.00  0.00    +0.103 C 
ATOM     30  C   UNL     1       3.086  11.658  -1.685  0.00  0.00    +0.122 C 
ATOM     31  N   UNL     1       3.542  12.904  -1.053  0.00  0.00    -0.314 N 
ATOM     32  C   UNL     1       3.370  12.844   0.406  0.00  0.00    +0.122 C 
ATOM     33  C   UNL     1       4.174  11.667   0.964  0.00  0.00    +0.103 C 
ATOM     34  C   UNL     1       2.883  14.005  -1.587  0.00  0.00    +0.099 A 
ATOM     35  C   UNL     1       2.928  14.236  -2.958  0.00  0.00    +0.042 A 
ATOM     36  C   UNL     1       2.267  15.335  -3.477  0.00  0.00    +0.005 A 
ATOM     37  C   UNL     1       1.582  16.169  -2.603  0.00  0.00    +0.018 A 
ATOM     38  C   UNL     1       1.580  15.880  -1.254  0.00  0.00    +0.084 A 
ATOM     39  N   UNL     1       2.214  14.821  -0.788  0.00  0.00    -0.350 N 
ATOM     40  H   UNL     1       2.178  14.623   0.294  0.00  0.00    +0.166 HD
ENDBRANCH  27  28
ENDBRANCH  24  27
ENDBRANCH  23  24
ENDBRANCH  10  23
TORSDOF 7
