REMARK  Name = ZINC59523107
REMARK  12 active torsions:
REMARK  status: ('A' for Active; 'I' for Inactive)
REMARK    1  A    between atoms: C_1  and  C_2
REMARK    2  A    between atoms: C_2  and  N_3
REMARK    3  A    between atoms: N_3  and  C_4
REMARK    4  A    between atoms: C_4  and  C_5
REMARK    5  A    between atoms: C_6  and  C_8
REMARK    6  A    between atoms: N_14  and  S_15
REMARK    7  A    between atoms: S_15  and  C_18
REMARK    8  A    between atoms: C_20  and  N_34
REMARK    9  A    between atoms: C_23  and  N_24
REMARK   10  A    between atoms: N_24  and  N_25
REMARK   11  A    between atoms: C_26  and  C_27
REMARK   12  A    between atoms: C_32  and  O_33
REMARK                            x       y       z     vdW  Elec       q    Type
REMARK                         _______ _______ _______ _____ _____    ______ ____
ROOT
ATOM      1  C   UNL     1      -3.179  -2.765   3.153  0.00  0.00    +0.130 A 
ATOM      2  C   UNL     1      -3.761  -3.656   4.033  0.00  0.00    +0.063 A 
ATOM      3  C   UNL     1      -3.454  -5.003   3.960  0.00  0.00    +0.128 A 
ATOM      4  C   UNL     1      -2.564  -5.462   3.007  0.00  0.00    +0.035 A 
ATOM      5  C   UNL     1      -1.978  -4.577   2.123  0.00  0.00    +0.029 A 
ATOM      6  C   UNL     1      -2.288  -3.224   2.190  0.00  0.00    +0.075 A 
ENDROOT
BRANCH   1   7
ATOM      7  S   UNL     1      -3.570  -1.050   3.246  0.00  0.00    +0.063 S 
ATOM      8  O   UNL     1      -4.497  -0.902   4.313  0.00  0.00    -0.153 OA
ATOM      9  O   UNL     1      -3.860  -0.626   1.921  0.00  0.00    -0.153 OA
BRANCH   7  15
ATOM     10  C   UNL     1      -1.801  -0.189   5.120  0.00  0.00    +0.166 C 
ATOM     11  C   UNL     1      -0.364  -0.698   5.265  0.00  0.00    +0.030 C 
ATOM     12  C   UNL     1       0.549   0.091   4.323  0.00  0.00    +0.003 C 
ATOM     13  C   UNL     1       0.103  -0.127   2.876  0.00  0.00    +0.017 C 
ATOM     14  C   UNL     1      -1.329   0.389   2.704  0.00  0.00    +0.110 C 
ATOM     15  N   UNL     1      -2.190  -0.257   3.705  0.00  0.00    -0.165 NA
BRANCH  10  17
ATOM     16  N   UNL     1      -3.470  -0.497   6.920  0.00  0.00    -0.301 N 
ATOM     17  C   UNL     1      -2.727  -1.050   5.941  0.00  0.00    +0.234 C 
ATOM     18  O   UNL     1      -2.804  -2.240   5.719  0.00  0.00    -0.274 OA
BRANCH  16  20
ATOM     19  C   UNL     1      -2.133   1.072   8.236  0.00  0.00    +0.024 C 
ATOM     20  C   UNL     1      -3.300   0.918   7.259  0.00  0.00    +0.104 C 
ENDBRANCH  16  20
BRANCH  16  21
ATOM     21  C   UNL     1      -4.447  -1.312   7.646  0.00  0.00    +0.104 C 
ATOM     22  C   UNL     1      -5.775  -1.314   6.886  0.00  0.00    +0.024 C 
ENDBRANCH  16  21
ENDBRANCH  10  17
ENDBRANCH   7  15
ENDBRANCH   1   7
BRANCH   3  23
ATOM     23  N   UNL     1      -4.081  -5.955   4.905  0.00  0.00    +0.056 N 
ATOM     24  O   UNL     1      -4.859  -5.554   5.739  0.00  0.00    -0.126 OA
ATOM     25  O   UNL     1      -3.814  -7.132   4.843  0.00  0.00    -0.126 OA
ENDBRANCH   3  23
BRANCH   6  26
ATOM     26  N   UNL     1      -1.702  -2.328   1.296  0.00  0.00    -0.236 N 
ATOM     27  H   UNL     1      -1.887  -1.378   1.369  0.00  0.00    +0.174 HD
BRANCH  26  28
ATOM     28  N   UNL     1      -0.846  -2.799   0.291  0.00  0.00    -0.190 NA
ATOM     29  C   UNL     1      -0.226  -1.958  -0.480  0.00  0.00    +0.141 C 
BRANCH  29  30
ATOM     30  C   UNL     1       0.586  -2.453  -1.606  0.00  0.00    +0.036 A 
ATOM     31  C   UNL     1       1.169  -1.552  -2.500  0.00  0.00    +0.013 A 
ATOM     32  C   UNL     1       1.929  -2.022  -3.552  0.00  0.00    +0.001 A 
ATOM     33  C   UNL     1       2.115  -3.382  -3.725  0.00  0.00    +0.004 A 
ATOM     34  C   UNL     1       1.543  -4.284  -2.847  0.00  0.00    +0.046 A 
ATOM     35  C   UNL     1       0.783  -3.829  -1.782  0.00  0.00    +0.125 A 
BRANCH  35  36
ATOM     36  O   UNL     1       0.226  -4.714  -0.915  0.00  0.00    -0.506 OA
ATOM     37  H   UNL     1      -0.660  -5.009  -1.169  0.00  0.00    +0.292 HD
ENDBRANCH  35  36
ENDBRANCH  29  30
ENDBRANCH  26  28
ENDBRANCH   6  26
TORSDOF 10
