REMARK  Name = ZINC64604323
REMARK  8 active torsions:
REMARK  status: ('A' for Active; 'I' for Inactive)
REMARK    1  A    between atoms: C_5  and  S_12
REMARK    2  A    between atoms: S_12  and  C_13
REMARK    3  A    between atoms: C_13  and  C_14
REMARK    4  A    between atoms: C_16  and  C_19
REMARK    5  A    between atoms: C_19  and  C_20
REMARK    6  A    between atoms: C_20  and  C_21
REMARK    7  A    between atoms: N_23  and  C_24
REMARK    8  A    between atoms: C_26  and  C_37
REMARK                            x       y       z     vdW  Elec       q    Type
REMARK                         _______ _______ _______ _____ _____    ______ ____
ROOT
ATOM      1  C   UNL     1       5.364   0.105  -4.570  0.00  0.00    +0.182 A 
ATOM      2  N   UNL     1       5.594   1.173  -5.341  0.00  0.00    -0.195 NA
ATOM      3  C   UNL     1       6.468   0.880  -6.264  0.00  0.00    +0.228 A 
ATOM      4  O   UNL     1       6.828  -0.400  -6.109  0.00  0.00    -0.338 OA
ATOM      5  N   UNL     1       6.098  -0.885  -4.992  0.00  0.00    -0.060 NA
ENDROOT
BRANCH   1   6
ATOM      6  C   UNL     1       4.416   0.056  -3.400  0.00  0.00    +0.152 C 
BRANCH   6   7
ATOM      7  S   UNL     1       5.299   0.527  -1.886  0.00  0.00    -0.107 S 
BRANCH   7  12
ATOM      8  C   UNL     1      -0.474  -0.012  -1.377  0.00  0.00    +0.022 A 
ATOM      9  C   UNL     1       0.451   0.966  -1.305  0.00  0.00    +0.029 A 
ATOM     10  C   UNL     1       1.849   0.621  -1.012  0.00  0.00    +0.061 A 
ATOM     11  N   UNL     1       2.929   1.337  -0.886  0.00  0.00    -0.355 N 
ATOM     12  C   UNL     1       4.035   0.419  -0.590  0.00  0.00    +0.236 C 
ATOM     13  N   UNL     1       3.457  -0.931  -0.559  0.00  0.00    -0.355 N 
ATOM     14  C   UNL     1       2.183  -0.815  -0.805  0.00  0.00    +0.062 A 
ATOM     15  C   UNL     1       1.093  -1.793  -0.907  0.00  0.00    +0.047 A 
ATOM     16  C   UNL     1      -0.159  -1.370  -1.182  0.00  0.00    +0.043 A 
ATOM     17 CL   UNL     1      -1.430  -2.546  -1.298  0.00  0.00    -0.083 Cl
ATOM     18  H   UNL     1       2.991   2.301  -0.973  0.00  0.00    +0.162 HD
ATOM     19  H   UNL     1       3.935  -1.757  -0.388  0.00  0.00    +0.162 HD
ENDBRANCH   7  12
ENDBRANCH   6   7
ENDBRANCH   1   6
BRANCH   3  20
ATOM     20  C   UNL     1       6.983   1.821  -7.322  0.00  0.00    +0.108 C 
BRANCH  20  21
ATOM     21  C   UNL     1       8.224   2.546  -6.799  0.00  0.00    +0.105 C 
BRANCH  21  22
ATOM     22  C   UNL     1       8.740   3.487  -7.858  0.00  0.00    +0.214 C 
ATOM     23  O   UNL     1       8.171   3.569  -8.926  0.00  0.00    -0.276 OA
ATOM     24  N   UNL     1       9.834   4.237  -7.618  0.00  0.00    -0.302 N 
ATOM     25  H   UNL     1      10.249   4.222  -6.742  0.00  0.00    +0.150 HD
BRANCH  24  26
ATOM     26  C   UNL     1      10.395   5.074  -8.681  0.00  0.00    +0.148 C 
ATOM     27  C   UNL     1      11.194   6.260  -8.082  0.00  0.00    +0.126 C 
ATOM     28  C   UNL     1      11.039   7.489  -8.979  0.00  0.00    +0.021 C 
ATOM     29  C   UNL     1      11.616   8.739  -8.345  0.00  0.00    +0.006 C 
ATOM     30  C   UNL     1      10.793   9.164  -7.129  0.00  0.00    +0.000 C 
ATOM     31  C   UNL     1       9.354   9.435  -7.581  0.00  0.00    +0.001 C 
ATOM     32  C   UNL     1       8.758   8.142  -8.132  0.00  0.00    +0.014 C 
ATOM     33  C   UNL     1       9.546   7.677  -9.332  0.00  0.00    +0.053 C 
ATOM     34  S   UNL     1       9.058   5.915  -9.624  0.00  0.00    -0.134 S 
BRANCH  27  35
ATOM     35  C   UNL     1      10.680   6.567  -6.738  0.00  0.00    +0.069 C 
ATOM     36  N   UNL     1      10.284   6.805  -5.700  0.00  0.00    -0.196 NA
ENDBRANCH  27  35
ENDBRANCH  24  26
ENDBRANCH  21  22
ENDBRANCH  20  21
ENDBRANCH   3  20
TORSDOF 8
