REMARK  Name = ZINC12488462
REMARK  16 active torsions:
REMARK  status: ('A' for Active; 'I' for Inactive)
REMARK    1  A    between atoms: C_1  and  C_2
REMARK    2  A    between atoms: C_2  and  C_3
REMARK    3  A    between atoms: C_3  and  C_4
REMARK    4  A    between atoms: C_3  and  C_5
REMARK    5  A    between atoms: C_3  and  N_6
REMARK    6  A    between atoms: C_7  and  C_9
REMARK    7  A    between atoms: C_9  and  C_11
REMARK    8  A    between atoms: C_9  and  N_19
REMARK    9  A    between atoms: C_15  and  O_17
REMARK   10  A    between atoms: O_17  and  C_18
REMARK   11  A    between atoms: N_19  and  C_20
REMARK   12  A    between atoms: C_22  and  C_27
REMARK   13  A    between atoms: C_24  and  C_26
REMARK   14  A    between atoms: C_28  and  C_30
REMARK   15  A    between atoms: C_30  and  N_31
REMARK   16  A    between atoms: C_32  and  C_34
REMARK                            x       y       z     vdW  Elec       q    Type
REMARK                         _______ _______ _______ _____ _____    ______ ____
ROOT
ATOM      1  N   UNL     1       3.601   0.856   0.124  0.00  0.00    -0.254 N 
ATOM      2  C   UNL     1       2.567   0.632  -0.712  0.00  0.00    +0.238 C 
ATOM      3  O   UNL     1       2.745   0.024  -1.746  0.00  0.00    -0.274 OA
ENDROOT
BRANCH   1   4
ATOM      4  C   UNL     1       3.378   1.464   1.365  0.00  0.00    +0.038 A 
ATOM      5  C   UNL     1       3.518   0.729   2.535  0.00  0.00    +0.027 A 
ATOM      6  C   UNL     1       3.302   1.334   3.758  0.00  0.00    -0.048 A 
ATOM      7  C   UNL     1       2.937   2.666   3.817  0.00  0.00    +0.006 A 
ATOM      8  C   UNL     1       2.792   3.399   2.654  0.00  0.00    -0.048 A 
ATOM      9  C   UNL     1       3.011   2.802   1.428  0.00  0.00    +0.027 A 
ATOM     10  C   UNL     1       2.394   4.851   2.724  0.00  0.00    +0.044 C 
ATOM     11  C   UNL     1       3.459   0.539   5.028  0.00  0.00    +0.044 C 
ENDBRANCH   1   4
BRANCH   1  12
ATOM     12  C   UNL     1       4.957   0.463  -0.266  0.00  0.00    +0.197 C 
BRANCH  12  13
ATOM     13  C   UNL     1       5.898   0.693   0.888  0.00  0.00    -0.014 A 
ATOM     14  C   UNL     1       5.992   1.947   1.464  0.00  0.00    +0.006 A 
ATOM     15  C   UNL     1       6.850   2.159   2.527  0.00  0.00    +0.004 A 
ATOM     16  C   UNL     1       7.625   1.122   3.009  0.00  0.00    +0.045 A 
ATOM     17  C   UNL     1       7.537  -0.135   2.429  0.00  0.00    +0.120 A 
ATOM     18  C   UNL     1       6.671  -0.347   1.366  0.00  0.00    +0.051 A 
BRANCH  17  19
ATOM     19  O   UNL     1       8.299  -1.157   2.901  0.00  0.00    -0.495 OA
ATOM     20  C   UNL     1       9.168  -0.866   3.997  0.00  0.00    +0.277 C 
ENDBRANCH  17  19
ENDBRANCH  12  13
BRANCH  12  22
ATOM     21  N   UNL     1       6.622   1.099  -1.981  0.00  0.00    -0.308 N 
ATOM     22  C   UNL     1       5.399   1.288  -1.447  0.00  0.00    +0.239 C 
ATOM     23  O   UNL     1       4.654   2.123  -1.916  0.00  0.00    -0.273 OA
ATOM     24  H   UNL     1       7.217   0.432  -1.606  0.00  0.00    +0.149 HD
BRANCH  21  25
ATOM     25  C   UNL     1       7.052   1.902  -3.129  0.00  0.00    +0.029 C 
ATOM     26  C   UNL     1       6.096   1.669  -4.301  0.00  0.00    +0.031 C 
ATOM     27  C   UNL     1       7.040   3.384  -2.748  0.00  0.00    +0.031 C 
BRANCH  25  29
ATOM     28  C   UNL     1       8.917   2.329  -4.735  0.00  0.00    +0.006 C 
ATOM     29  C   UNL     1       8.468   1.492  -3.537  0.00  0.00    +0.022 C 
ENDBRANCH  25  29
ENDBRANCH  21  25
ENDBRANCH  12  22
ENDBRANCH   1  12
BRANCH   2  30
ATOM     30  C   UNL     1       1.192   1.137  -0.361  0.00  0.00    +0.201 C 
BRANCH  30  31
ATOM     31  N   UNL     1       0.275   0.866  -1.471  0.00  0.00    -0.302 N 
ATOM     32  C   UNL     1      -1.018   1.238  -1.383  0.00  0.00    +0.251 C 
ATOM     33  O   UNL     1      -1.425   1.794  -0.380  0.00  0.00    -0.270 OA
ATOM     34  H   UNL     1       0.599   0.423  -2.271  0.00  0.00    +0.150 HD
BRANCH  32  35
ATOM     35  C   UNL     1      -1.934   0.972  -2.496  0.00  0.00    +0.074 A 
ATOM     36  C   UNL     1      -3.285   1.264  -2.605  0.00  0.00    +0.021 A 
ATOM     37  C   UNL     1      -3.910   0.905  -3.773  0.00  0.00    +0.008 A 
ATOM     38  C   UNL     1      -3.193   0.283  -4.745  0.00  0.00    +0.046 A 
ATOM     39  S   UNL     1      -1.603   0.183  -4.061  0.00  0.00    -0.092 S 
ENDBRANCH  32  35
ENDBRANCH  30  31
ENDBRANCH   2  30
TORSDOF 10
