REMARK  Name = ZINC36306627
REMARK  17 active torsions:
REMARK  status: ('A' for Active; 'I' for Inactive)
REMARK    1  A    between atoms: C_1  and  C_2
REMARK    2  A    between atoms: C_2  and  C_3
REMARK    3  A    between atoms: C_2  and  C_4
REMARK    4  A    between atoms: C_4  and  N_5
REMARK    5  A    between atoms: N_5  and  C_6
REMARK    6  A    between atoms: N_5  and  C_27
REMARK    7  A    between atoms: C_6  and  C_7
REMARK    8  A    between atoms: C_8  and  C_21
REMARK    9  A    between atoms: N_10  and  C_20
REMARK   10  A    between atoms: C_11  and  O_12
REMARK   11  A    between atoms: O_12  and  C_13
REMARK   12  A    between atoms: C_27  and  C_28
REMARK   13  A    between atoms: C_28  and  C_30
REMARK   14  A    between atoms: C_28  and  O_39
REMARK   15  A    between atoms: C_30  and  O_31
REMARK   16  A    between atoms: O_31  and  C_32
REMARK   17  A    between atoms: C_32  and  C_33
REMARK                            x       y       z     vdW  Elec       q    Type
REMARK                         _______ _______ _______ _____ _____    ______ ____
ROOT
ATOM      1  C   UNL     1       0.829  -0.139   2.935  0.00  0.00    -0.035 C 
ENDROOT
BRANCH   1   2
ATOM      2  C   UNL     1       2.094   0.668   2.795  0.00  0.00    +0.025 A 
ATOM      3  C   UNL     1       3.361   0.169   2.438  0.00  0.00    +0.098 A 
ATOM      4  N   UNL     1       4.207   1.176   2.422  0.00  0.00    -0.168 NA
ATOM      5  N   UNL     1       3.511   2.341   2.765  0.00  0.00    -0.235 N 
ATOM      6  C   UNL     1       2.213   2.007   2.985  0.00  0.00    +0.221 A 
ATOM      7  C   UNL     1       4.081   3.687   2.865  0.00  0.00    +0.176 C 
BRANCH   3   8
ATOM      8  C   UNL     1       3.685  -1.247   2.134  0.00  0.00    +0.002 A 
ATOM      9  C   UNL     1       4.508  -1.560   1.054  0.00  0.00    +0.010 A 
ATOM     10  C   UNL     1       4.807  -2.878   0.775  0.00  0.00    +0.001 A 
ATOM     11  C   UNL     1       4.290  -3.889   1.566  0.00  0.00    +0.000 A 
ATOM     12  C   UNL     1       3.473  -3.584   2.640  0.00  0.00    +0.001 A 
ATOM     13  C   UNL     1       3.172  -2.269   2.931  0.00  0.00    +0.010 A 
ENDBRANCH   3   8
BRANCH   6  14
ATOM     14  O   UNL     1       1.215   2.858   3.334  0.00  0.00    -0.435 OA
BRANCH  14  15
ATOM     15  C   UNL     1       1.042   3.131   4.654  0.00  0.00    +0.165 A 
ATOM     16  C   UNL     1       1.935   2.631   5.590  0.00  0.00    +0.049 A 
ATOM     17  C   UNL     1       1.757   2.910   6.931  0.00  0.00    +0.004 A 
ATOM     18  C   UNL     1       0.690   3.687   7.342  0.00  0.00    +0.003 A 
ATOM     19  C   UNL     1      -0.203   4.188   6.413  0.00  0.00    +0.042 A 
ATOM     20  C   UNL     1      -0.027   3.916   5.068  0.00  0.00    +0.165 A 
ATOM     21  F   UNL     1      -0.896   4.410   4.159  0.00  0.00    -0.202 F 
ENDBRANCH  14  15
ENDBRANCH   6  14
ENDBRANCH   1   2
BRANCH   1  22
ATOM     22  N   UNL     1       0.054  -0.055   1.689  0.00  0.00    +0.384 N 
ATOM     23  H   UNL     1      -0.110   0.914   1.460  0.00  0.00    -0.081 HD
BRANCH  22  24
ATOM     24  C   UNL     1       0.805  -0.695   0.601  0.00  0.00    -0.075 C 
BRANCH  24  26
ATOM     25  C   UNL     1       0.050   1.019  -1.052  0.00  0.00    +0.005 C 
ATOM     26  C   UNL     1       0.071  -0.475  -0.723  0.00  0.00    -0.034 C 
ATOM     27  C   UNL     1       0.794  -1.233  -1.839  0.00  0.00    +0.005 C 
ENDBRANCH  24  26
ENDBRANCH  22  24
BRANCH  22  28
ATOM     28  C   UNL     1      -1.233  -0.741   1.866  0.00  0.00    -0.044 C 
BRANCH  28  29
ATOM     29  C   UNL     1      -2.078   0.016   2.892  0.00  0.00    +0.124 C 
BRANCH  29  30
ATOM     30  O   UNL     1      -2.388   1.316   2.388  0.00  0.00    -0.391 OA
ATOM     31  H   UNL     1      -2.949   1.310   1.600  0.00  0.00    +0.210 HD
ENDBRANCH  29  30
BRANCH  29  32
ATOM     32  C   UNL     1      -3.375  -0.753   3.151  0.00  0.00    +0.189 C 
BRANCH  32  33
ATOM     33  O   UNL     1      -4.111  -0.108   4.194  0.00  0.00    -0.373 OA
BRANCH  33  34
ATOM     34  C   UNL     1      -5.346  -0.750   4.516  0.00  0.00    +0.195 C 
BRANCH  34  35
ATOM     35  C   UNL     1      -6.034   0.009   5.620  0.00  0.00    -0.022 A 
ATOM     36  C   UNL     1      -5.783  -0.313   6.941  0.00  0.00    +0.006 A 
ATOM     37  C   UNL     1      -6.414   0.384   7.954  0.00  0.00    +0.000 A 
ATOM     38  C   UNL     1      -7.296   1.404   7.647  0.00  0.00    +0.000 A 
ATOM     39  C   UNL     1      -7.546   1.726   6.327  0.00  0.00    +0.000 A 
ATOM     40  C   UNL     1      -6.912   1.032   5.313  0.00  0.00    +0.006 A 
ENDBRANCH  34  35
ENDBRANCH  33  34
ENDBRANCH  32  33
ENDBRANCH  29  32
ENDBRANCH  28  29
ENDBRANCH  22  28
ENDBRANCH   1  22
TORSDOF 14
