REMARK  Name = ZINC39692506
REMARK  13 active torsions:
REMARK  status: ('A' for Active; 'I' for Inactive)
REMARK    1  A    between atoms: C_1  and  C_2
REMARK    2  A    between atoms: C_4  and  C_35
REMARK    3  A    between atoms: C_8  and  C_12
REMARK    4  A    between atoms: C_12  and  S_13
REMARK    5  A    between atoms: S_13  and  C_14
REMARK    6  A    between atoms: N_24  and  C_25
REMARK    7  A    between atoms: C_25  and  C_27
REMARK    8  A    between atoms: C_25  and  C_28
REMARK    9  A    between atoms: C_28  and  C_29
REMARK   10  A    between atoms: C_29  and  C_30
REMARK   11  A    between atoms: C_30  and  C_31
REMARK   12  A    between atoms: C_31  and  C_32
REMARK   13  A    between atoms: C_31  and  C_33
REMARK                            x       y       z     vdW  Elec       q    Type
REMARK                         _______ _______ _______ _____ _____    ______ ____
ROOT
ATOM      1  C   UNL     1      -2.074  -4.954   6.806  0.00  0.00    +0.173 A 
ATOM      2  N   UNL     1      -0.865  -4.799   7.288  0.00  0.00    -0.223 NA
ATOM      3  C   UNL     1      -0.488  -5.373   8.448  0.00  0.00    +0.079 A 
ATOM      4  C   UNL     1       0.801  -5.208   8.963  0.00  0.00    +0.028 A 
ATOM      5  C   UNL     1       1.140  -5.808  10.143  0.00  0.00    +0.002 A 
ATOM      6  C   UNL     1       0.222  -6.583  10.841  0.00  0.00    +0.001 A 
ATOM      7  C   UNL     1      -1.046  -6.763  10.363  0.00  0.00    +0.015 A 
ATOM      8  C   UNL     1      -1.420  -6.162   9.162  0.00  0.00    +0.065 A 
ATOM      9  C   UNL     1      -2.768  -6.321   8.601  0.00  0.00    +0.263 A 
ATOM     10  O   UNL     1      -3.614  -6.987   9.168  0.00  0.00    -0.267 OA
ATOM     11  N   UNL     1      -3.037  -5.693   7.432  0.00  0.00    -0.284 N 
ENDROOT
BRANCH  11  12
ATOM     12  C   UNL     1      -4.367  -5.813   6.831  0.00  0.00    +0.090 C 
ATOM     13  C   UNL     1      -5.415  -5.255   7.796  0.00  0.00    +0.031 C 
BRANCH  12  14
ATOM     14  C   UNL     1      -4.668  -7.285   6.546  0.00  0.00    +0.025 C 
BRANCH  14  15
ATOM     15  C   UNL     1      -3.697  -7.809   5.487  0.00  0.00    +0.002 C 
BRANCH  15  16
ATOM     16  C   UNL     1      -3.998  -9.282   5.203  0.00  0.00    +0.003 C 
BRANCH  16  17
ATOM     17  C   UNL     1      -3.026  -9.806   4.143  0.00  0.00    -0.017 C 
ATOM     18  C   UNL     1      -3.244 -11.308   3.949  0.00  0.00    +0.007 C 
ATOM     19  C   UNL     1      -3.275  -9.079   2.820  0.00  0.00    +0.007 C 
ENDBRANCH  16  17
ENDBRANCH  15  16
ENDBRANCH  14  15
ENDBRANCH  12  14
ENDBRANCH  11  12
BRANCH   1  20
ATOM     20  S   UNL     1      -2.477  -4.165   5.283  0.00  0.00    -0.080 S 
BRANCH  20  21
ATOM     21  C   UNL     1      -0.948  -3.312   4.811  0.00  0.00    +0.151 C 
BRANCH  21  28
ATOM     22  C   UNL     1      -0.019   1.526   0.010  0.00  0.00    +0.057 C 
ATOM     23  C   UNL     1       0.002  -0.004   0.002  0.00  0.00    +0.210 C 
ATOM     24  C   UNL     1      -1.411  -0.541   0.029  0.00  0.00    +0.098 C 
ATOM     25  C   UNL     1      -1.518  -1.277   1.161  0.00  0.00    +0.114 C 
ATOM     26  C   UNL     1      -0.225  -1.240   1.876  0.00  0.00    +0.230 C 
ATOM     27  N   UNL     1      -0.135  -1.907   3.013  0.00  0.00    -0.199 NA
ATOM     28  C   UNL     1      -1.158  -2.587   3.507  0.00  0.00    +0.136 C 
ATOM     29  N   UNL     1      -2.338  -2.679   2.948  0.00  0.00    -0.160 NA
ATOM     30  C   UNL     1      -2.613  -2.063   1.783  0.00  0.00    +0.275 C 
ATOM     31  O   UNL     1      -3.711  -2.147   1.263  0.00  0.00    -0.268 OA
ATOM     32  O   UNL     1       0.649  -0.492   1.181  0.00  0.00    -0.468 OA
BRANCH  24  33
ATOM     33  C   UNL     1      -2.470  -0.309  -0.983  0.00  0.00    +0.387 C 
ATOM     34  O   UNL     1      -3.576  -0.806  -0.835  0.00  0.00    -0.241 OA
ATOM     35  O   UNL     1      -2.237   0.381  -1.964  0.00  0.00    -0.241 OA
ENDBRANCH  24  33
ENDBRANCH  21  28
ENDBRANCH  20  21
ENDBRANCH   1  20
TORSDOF 9
