REMARK  Name = ZINC51927554
REMARK  7 active torsions:
REMARK  status: ('A' for Active; 'I' for Inactive)
REMARK    1  A    between atoms: C_1  and  C_2
REMARK    2  A    between atoms: C_3  and  C_18
REMARK    3  A    between atoms: N_4  and  C_7
REMARK    4  A    between atoms: C_10  and  C_15
REMARK    5  A    between atoms: C_12  and  C_13
REMARK    6  A    between atoms: C_15  and  C_16
REMARK    7  A    between atoms: C_15  and  C_17
REMARK                            x       y       z     vdW  Elec       q    Type
REMARK                         _______ _______ _______ _____ _____    ______ ____
ROOT
ATOM      1  C   UNL     1       0.040  -3.238  -1.452  0.00  0.00    +0.088 A 
ATOM      2  C   UNL     1      -1.034  -4.124  -1.444  0.00  0.00    +0.140 A 
ATOM      3  N   UNL     1      -0.984  -5.199  -2.212  0.00  0.00    -0.238 NA
ATOM      4  C   UNL     1       0.062  -5.436  -2.978  0.00  0.00    +0.132 A 
ATOM      5  N   UNL     1       1.098  -4.621  -3.014  0.00  0.00    -0.233 NA
ATOM      6  C   UNL     1       1.122  -3.521  -2.280  0.00  0.00    +0.083 A 
ENDROOT
BRANCH   1  10
ATOM      7  C   UNL     1      -0.018   1.503   0.010  0.00  0.00    +0.067 C 
ATOM      8  C   UNL     1       0.002  -0.004   0.002  0.00  0.00    +0.059 A 
ATOM      9  C   UNL     1       0.008  -0.788  -1.093  0.00  0.00    +0.043 A 
ATOM     10  N   UNL     1       0.028  -2.086  -0.652  0.00  0.00    -0.300 N 
ATOM     11  C   UNL     1       0.034  -2.045   0.705  0.00  0.00    +0.204 A 
ATOM     12  N   UNL     1       0.024  -0.796   1.084  0.00  0.00    -0.240 NA
ATOM     13  C   UNL     1      -0.005  -0.326  -2.528  0.00  0.00    +0.066 C 
ENDBRANCH   1  10
BRANCH   4  14
ATOM     14  C   UNL     1       0.075  -6.674  -3.838  0.00  0.00    +0.051 C 
ATOM     15  C   UNL     1      -0.036  -7.913  -2.948  0.00  0.00    +0.015 C 
ATOM     16  C   UNL     1      -1.108  -6.634  -4.807  0.00  0.00    +0.015 C 
ENDBRANCH   4  14
BRANCH   6  17
ATOM     17  C   UNL     1       2.308  -2.592  -2.333  0.00  0.00    +0.166 C 
ATOM     18 CL   UNL     1       3.518  -3.090  -1.093  0.00  0.00    -0.119 Cl
ENDBRANCH   6  17
TORSDOF 3
