REMARK  Name = ZINC51318390
REMARK  8 active torsions:
REMARK  status: ('A' for Active; 'I' for Inactive)
REMARK    1  A    between atoms: C_1  and  C_2
REMARK    2  A    between atoms: C_5  and  C_8
REMARK    3  A    between atoms: C_10  and  C_30
REMARK    4  A    between atoms: C_11  and  C_16
REMARK    5  A    between atoms: C_16  and  N_17
REMARK    6  A    between atoms: N_20  and  C_23
REMARK    7  A    between atoms: C_30  and  O_32
REMARK    8  A    between atoms: O_32  and  C_33
REMARK                            x       y       z     vdW  Elec       q    Type
REMARK                         _______ _______ _______ _____ _____    ______ ____
ROOT
ATOM      1  C   UNL     1       0.069  -4.280  -0.021  0.00  0.00    +0.144 C 
ATOM      2  C   UNL     1      -1.340  -4.827   0.092  0.00  0.00    +0.079 C 
ATOM      3  C   UNL     1      -1.624  -5.617   1.150  0.00  0.00    +0.038 C 
ATOM      4  N   UNL     1      -0.673  -5.913   2.085  0.00  0.00    -0.271 N 
ATOM      5  C   UNL     1       0.585  -5.457   2.034  0.00  0.00    +0.304 C 
ATOM      6  O   UNL     1       1.361  -5.775   2.913  0.00  0.00    -0.252 OA
ATOM      7  N   UNL     1       1.018  -4.658   1.040  0.00  0.00    -0.288 N 
ATOM      8  H   UNL     1      -0.923  -6.484   2.827  0.00  0.00    +0.156 HD
ATOM      9  H   UNL     1       1.934  -4.340   1.023  0.00  0.00    +0.151 HD
ENDROOT
BRANCH   1  14
ATOM     10  C   UNL     1      -0.267   1.488  -0.141  0.00  0.00    +0.044 C 
ATOM     11  C   UNL     1      -0.179  -0.016  -0.109  0.00  0.00    -0.050 A 
ATOM     12  C   UNL     1      -0.090  -0.728  -1.291  0.00  0.00    +0.004 A 
ATOM     13  C   UNL     1      -0.009  -2.108  -1.262  0.00  0.00    +0.006 A 
ATOM     14  C   UNL     1      -0.018  -2.776  -0.052  0.00  0.00    -0.022 A 
ATOM     15  C   UNL     1      -0.107  -2.064   1.130  0.00  0.00    +0.006 A 
ATOM     16  C   UNL     1      -0.183  -0.684   1.101  0.00  0.00    +0.004 A 
ENDBRANCH   1  14
BRANCH   2  17
ATOM     17  C   UNL     1      -2.324  -4.520  -0.876  0.00  0.00    +0.339 C 
ATOM     18  O   UNL     1      -2.328  -5.102  -1.945  0.00  0.00    -0.245 OA
BRANCH  17  19
ATOM     19  O   UNL     1      -3.257  -3.581  -0.616  0.00  0.00    -0.465 OA
ATOM     20  C   UNL     1      -4.220  -3.322  -1.639  0.00  0.00    +0.280 C 
ENDBRANCH  17  19
ENDBRANCH   2  17
BRANCH   3  21
ATOM     21  C   UNL     1      -3.013  -6.182   1.301  0.00  0.00    +0.136 C 
BRANCH  21  22
ATOM     22  N   UNL     1      -2.960  -7.646   1.198  0.00  0.00    -0.294 NA
ATOM     23  C   UNL     1      -2.549  -8.065  -0.149  0.00  0.00    +0.103 C 
ATOM     24  C   UNL     1      -2.331  -9.582  -0.165  0.00  0.00    +0.120 C 
ATOM     25  N   UNL     1      -3.547 -10.234   0.346  0.00  0.00    -0.325 N 
ATOM     26  C   UNL     1      -4.098  -9.772   1.629  0.00  0.00    +0.120 C 
ATOM     27  C   UNL     1      -4.247  -8.247   1.574  0.00  0.00    +0.103 C 
BRANCH  25  28
ATOM     28  C   UNL     1      -4.162 -11.266  -0.370  0.00  0.00    +0.065 A 
ATOM     29  C   UNL     1      -3.796 -12.585  -0.140  0.00  0.00    +0.026 A 
ATOM     30  C   UNL     1      -4.405 -13.603  -0.848  0.00  0.00    +0.002 A 
ATOM     31  C   UNL     1      -5.379 -13.310  -1.785  0.00  0.00    +0.003 A 
ATOM     32  C   UNL     1      -5.747 -11.998  -2.017  0.00  0.00    +0.040 A 
ATOM     33  C   UNL     1      -5.146 -10.974  -1.308  0.00  0.00    +0.144 A 
ATOM     34  F   UNL     1      -5.509  -9.692  -1.531  0.00  0.00    -0.204 F 
ENDBRANCH  25  28
ENDBRANCH  21  22
ENDBRANCH   3  21
TORSDOF 6
