REMARK  Name = ZINC04832915
REMARK  7 active torsions:
REMARK  status: ('A' for Active; 'I' for Inactive)
REMARK    1  A    between atoms: C_1  and  C_2
REMARK    2  A    between atoms: C_5  and  C_8
REMARK    3  A    between atoms: C_19  and  C_22
REMARK    4  A    between atoms: C_25  and  C_28
REMARK    5  A    between atoms: C_28  and  C_29
REMARK    6  A    between atoms: C_28  and  C_30
REMARK    7  A    between atoms: C_28  and  C_31
REMARK                            x       y       z     vdW  Elec       q    Type
REMARK                         _______ _______ _______ _____ _____    ______ ____
ROOT
ATOM      1  C   UNL     1       0.059  -4.275  -0.021  0.00  0.00    +0.063 C 
ATOM      2  C   UNL     1      -1.178  -4.806   0.704  0.00  0.00    +0.109 C 
ATOM      3  C   UNL     1      -1.029  -4.553   2.183  0.00  0.00    +0.218 C 
ATOM      4  O   UNL     1      -2.007  -4.304   2.855  0.00  0.00    -0.275 OA
ATOM      5  N   UNL     1       0.185  -4.604   2.757  0.00  0.00    -0.289 N 
ATOM      6  C   UNL     1       1.304  -4.909   2.024  0.00  0.00    +0.018 C 
ATOM      7  C   UNL     1       1.303  -4.767   0.682  0.00  0.00    +0.020 C 
ATOM      8  C   UNL     1       2.439  -5.067  -0.087  0.00  0.00    +0.162 C 
ATOM      9  O   UNL     1       2.396  -4.937  -1.295  0.00  0.00    -0.292 OA
ATOM     10  C   UNL     1       3.710  -5.548   0.561  0.00  0.00    +0.088 C 
ATOM     11  C   UNL     1       3.787  -4.982   1.983  0.00  0.00    +0.032 C 
ATOM     12  C   UNL     1       2.530  -5.409   2.747  0.00  0.00    +0.059 C 
ATOM     13  H   UNL     1       0.272  -4.421   3.705  0.00  0.00    +0.155 HD
ENDROOT
BRANCH   1  18
ATOM     14  C   UNL     1      -0.018   1.503   0.010  0.00  0.00    +0.044 C 
ATOM     15  C   UNL     1       0.002  -0.004   0.002  0.00  0.00    -0.050 A 
ATOM     16  C   UNL     1       0.006  -0.689  -1.199  0.00  0.00    +0.003 A 
ATOM     17  C   UNL     1       0.025  -2.071  -1.206  0.00  0.00    +0.004 A 
ATOM     18  C   UNL     1       0.040  -2.768  -0.013  0.00  0.00    -0.039 A 
ATOM     19  C   UNL     1       0.037  -2.084   1.188  0.00  0.00    +0.004 A 
ATOM     20  C   UNL     1       0.023  -0.702   1.195  0.00  0.00    +0.003 A 
ENDBRANCH   1  18
BRANCH  11  21
ATOM     21  C   UNL     1       5.012  -5.522   2.676  0.00  0.00    -0.043 A 
ATOM     22  C   UNL     1       5.165  -6.885   2.847  0.00  0.00    +0.004 A 
ATOM     23  C   UNL     1       6.289  -7.380   3.482  0.00  0.00    +0.004 A 
ATOM     24  C   UNL     1       7.259  -6.511   3.947  0.00  0.00    -0.042 A 
ATOM     25  C   UNL     1       7.106  -5.149   3.775  0.00  0.00    +0.004 A 
ATOM     26  C   UNL     1       5.985  -4.654   3.135  0.00  0.00    +0.004 A 
BRANCH  24  27
ATOM     27  C   UNL     1       8.483  -7.051   4.640  0.00  0.00    -0.013 C 
ATOM     28  C   UNL     1       9.242  -7.978   3.689  0.00  0.00    +0.015 C 
ATOM     29  C   UNL     1       9.390  -5.889   5.051  0.00  0.00    +0.015 C 
ATOM     30  C   UNL     1       8.061  -7.833   5.886  0.00  0.00    +0.015 C 
ENDBRANCH  24  27
ENDBRANCH  11  21
TORSDOF 3
