REMARK  Name = ZINC06198251
REMARK  14 active torsions:
REMARK  status: ('A' for Active; 'I' for Inactive)
REMARK    1  A    between atoms: C_1  and  C_2
REMARK    2  A    between atoms: C_2  and  C_3
REMARK    3  A    between atoms: C_10  and  C_15
REMARK    4  A    between atoms: C_15  and  C_17
REMARK    5  A    between atoms: C_15  and  N_73
REMARK    6  A    between atoms: N_21  and  C_22
REMARK    7  A    between atoms: C_22  and  C_23
REMARK    8  A    between atoms: C_23  and  O_24
REMARK    9  A    between atoms: O_24  and  C_25
REMARK   10  A    between atoms: C_26  and  C_27
REMARK   11  A    between atoms: C_26  and  N_73
REMARK   12  A    between atoms: C_27  and  C_28
REMARK   13  A    between atoms: C_34  and  C_35
REMARK   14  A    between atoms: C_34  and  N_73
REMARK                            x       y       z     vdW  Elec       q    Type
REMARK                         _______ _______ _______ _____ _____    ______ ____
ROOT
ATOM      1  C   UNL     1       6.208  -0.284   0.060  0.00  0.00    +0.039 C 
ENDROOT
BRANCH   1   9
ATOM      2  C   UNL     1       0.794   2.702   0.303  0.00  0.00    -0.047 A 
ATOM      3  C   UNL     1       1.324   3.985   0.300  0.00  0.00    +0.005 A 
ATOM      4  C   UNL     1       2.687   4.183   0.250  0.00  0.00    +0.026 A 
ATOM      5  C   UNL     1       3.542   3.087   0.203  0.00  0.00    +0.049 A 
ATOM      6  C   UNL     1       3.002   1.788   0.207  0.00  0.00    -0.001 A 
ATOM      7  C   UNL     1       1.615   1.611   0.258  0.00  0.00    +0.013 A 
ATOM      8  C   UNL     1       3.910   0.641   0.158  0.00  0.00    +0.017 A 
ATOM      9  C   UNL     1       5.245   0.874   0.111  0.00  0.00    +0.011 A 
ATOM     10  C   UNL     1       5.737   2.197   0.110  0.00  0.00    +0.251 A 
ATOM     11  O   UNL     1       6.940   2.384   0.067  0.00  0.00    -0.268 OA
ATOM     12  N   UNL     1       4.910   3.256   0.155  0.00  0.00    -0.322 N 
ATOM     13  H   UNL     1       5.292   4.181   0.153  0.00  0.00    +0.169 HD
BRANCH   2  15
ATOM     14  C   UNL     1      -1.260   2.465  -1.065  0.00  0.00    +0.009 C 
ATOM     15  C   UNL     1      -0.700   2.510   0.358  0.00  0.00    +0.032 C 
ENDBRANCH   2  15
ENDBRANCH   1   9
BRANCH   1  16
ATOM     16  C   UNL     1       7.013  -0.325   1.333  0.00  0.00    +0.143 A 
ATOM     17  N   UNL     1       7.998   0.474   1.662  0.00  0.00    -0.115 NA
ATOM     18  N   UNL     1       8.427   0.120   2.824  0.00  0.00    -0.023 NA
ATOM     19  N   UNL     1       7.741  -0.885   3.245  0.00  0.00    -0.044 NA
ATOM     20  N   UNL     1       6.856  -1.186   2.356  0.00  0.00    -0.228 N 
BRANCH  20  21
ATOM     21  C   UNL     1       5.868  -2.264   2.442  0.00  0.00    +0.175 C 
BRANCH  21  22
ATOM     22  C   UNL     1       6.459  -3.546   1.852  0.00  0.00    +0.183 C 
BRANCH  22  23
ATOM     23  O   UNL     1       5.495  -4.597   1.936  0.00  0.00    -0.381 OA
ATOM     24  C   UNL     1       5.949  -5.846   1.410  0.00  0.00    +0.194 C 
ENDBRANCH  22  23
ENDBRANCH  21  22
ENDBRANCH  20  21
ENDBRANCH   1  16
BRANCH   1  25
ATOM     25  N   UNL     1       7.125  -0.093  -1.084  0.00  0.00    +0.392 N 
ATOM     26  H   UNL     1       7.569   0.829  -1.004  0.00  0.00    -0.080 HD
BRANCH  25  27
ATOM     27  C   UNL     1       8.175  -1.134  -1.069  0.00  0.00    -0.072 C 
BRANCH  27  28
ATOM     28  C   UNL     1       9.288  -0.723  -2.034  0.00  0.00    +0.016 C 
BRANCH  28  29
ATOM     29  C   UNL     1      10.378  -1.763  -2.016  0.00  0.00    -0.049 A 
ATOM     30  C   UNL     1      11.430  -1.647  -1.126  0.00  0.00    +0.003 A 
ATOM     31  C   UNL     1      12.427  -2.604  -1.106  0.00  0.00    +0.000 A 
ATOM     32  C   UNL     1      12.378  -3.672  -1.983  0.00  0.00    +0.000 A 
ATOM     33  C   UNL     1      11.329  -3.785  -2.876  0.00  0.00    +0.000 A 
ATOM     34  C   UNL     1      10.329  -2.831  -2.893  0.00  0.00    +0.003 A 
ENDBRANCH  28  29
ENDBRANCH  27  28
ENDBRANCH  25  27
BRANCH  25  35
ATOM     35  C   UNL     1       6.370  -0.155  -2.353  0.00  0.00    -0.042 C 
BRANCH  35  36
ATOM     36  C   UNL     1       5.786  -1.530  -2.554  0.00  0.00    -0.064 A 
ATOM     37  C   UNL     1       6.505  -2.492  -3.238  0.00  0.00    +0.002 A 
ATOM     38  C   UNL     1       5.972  -3.755  -3.418  0.00  0.00    +0.000 A 
ATOM     39  C   UNL     1       4.715  -4.052  -2.923  0.00  0.00    +0.000 A 
ATOM     40  C   UNL     1       3.995  -3.087  -2.244  0.00  0.00    +0.000 A 
ATOM     41  C   UNL     1       4.530  -1.827  -2.059  0.00  0.00    +0.002 A 
ENDBRANCH  35  36
ENDBRANCH  25  35
ENDBRANCH   1  25
TORSDOF 12
