REMARK  Name = ZINC16903649
REMARK  11 active torsions:
REMARK  status: ('A' for Active; 'I' for Inactive)
REMARK    1  A    between atoms: C_1  and  C_2
REMARK    2  A    between atoms: C_5  and  S_7
REMARK    3  A    between atoms: S_7  and  C_8
REMARK    4  A    between atoms: C_11  and  C_17
REMARK    5  A    between atoms: C_13  and  N_14
REMARK    6  A    between atoms: C_17  and  O_19
REMARK    7  A    between atoms: O_19  and  C_20
REMARK    8  A    between atoms: C_20  and  C_22
REMARK    9  A    between atoms: C_20  and  C_23
REMARK   10  A    between atoms: N_25  and  C_26
REMARK   11  A    between atoms: C_27  and  C_31
REMARK                            x       y       z     vdW  Elec       q    Type
REMARK                         _______ _______ _______ _____ _____    ______ ____
ROOT
ATOM      1  C   UNL     1      -4.987   4.139   7.931  0.00  0.00    +0.340 C 
ATOM      2  O   UNL     1      -4.928   4.536   9.078  0.00  0.00    -0.245 OA
ENDROOT
BRANCH   1   6
ATOM      3  C   UNL     1      -1.444   3.047   5.883  0.00  0.00    +0.045 A 
ATOM      4  C   UNL     1      -2.675   2.957   5.238  0.00  0.00    +0.018 A 
ATOM      5  C   UNL     1      -3.820   3.303   5.898  0.00  0.00    +0.016 A 
ATOM      6  C   UNL     1      -3.754   3.759   7.219  0.00  0.00    +0.061 A 
ATOM      7  C   UNL     1      -2.515   3.854   7.861  0.00  0.00    +0.048 A 
ATOM      8  C   UNL     1      -1.375   3.501   7.198  0.00  0.00    +0.141 A 
BRANCH   8   9
ATOM      9  N   UNL     1      -0.063   3.601   7.878  0.00  0.00    +0.058 N 
ATOM     10  O   UNL     1      -0.002   3.998   9.028  0.00  0.00    -0.126 OA
ATOM     11  O   UNL     1       0.954   3.286   7.287  0.00  0.00    -0.126 OA
ENDBRANCH   8   9
BRANCH   3  12
ATOM     12  S   UNL     1       0.030   2.594   5.031  0.00  0.00    -0.061 S 
BRANCH  12  17
ATOM     13  C   UNL     1       2.845  -1.772   5.753  0.00  0.00    +0.066 C 
ATOM     14  C   UNL     1       1.629  -0.924   6.023  0.00  0.00    +0.047 A 
ATOM     15  C   UNL     1       0.653  -1.358   6.857  0.00  0.00    +0.070 A 
ATOM     16  S   UNL     1      -0.482   0.020   6.786  0.00  0.00    -0.069 S 
ATOM     17  C   UNL     1       0.426   1.004   5.680  0.00  0.00    +0.139 A 
ATOM     18  N   UNL     1       1.488   0.255   5.449  0.00  0.00    -0.238 NA
ENDBRANCH  12  17
ENDBRANCH   3  12
ENDBRANCH   1   6
BRANCH   1  19
ATOM     19  O   UNL     1      -6.179   4.048   7.310  0.00  0.00    -0.449 OA
BRANCH  19  20
ATOM     20  C   UNL     1      -7.351   4.439   8.073  0.00  0.00    +0.259 C 
ATOM     21  C   UNL     1      -7.906   3.222   8.816  0.00  0.00    +0.062 C 
BRANCH  20  22
ATOM     22  C   UNL     1      -8.403   4.978   7.137  0.00  0.00    +0.258 C 
ATOM     23  O   UNL     1      -8.222   4.944   5.938  0.00  0.00    -0.271 OA
ATOM     24  N   UNL     1      -9.543   5.498   7.633  0.00  0.00    -0.276 N 
ATOM     25  H   UNL     1      -9.687   5.526   8.591  0.00  0.00    +0.155 HD
BRANCH  24  26
ATOM     26  C   UNL     1     -10.510   5.994   6.772  0.00  0.00    +0.084 A 
ATOM     27  C   UNL     1     -11.740   6.558   7.088  0.00  0.00    +0.065 A 
ATOM     28  C   UNL     1     -12.556   6.999   5.982  0.00  0.00    +0.022 A 
ATOM     29  C   UNL     1     -12.063   6.817   4.744  0.00  0.00    +0.048 A 
ATOM     30  S   UNL     1     -10.481   6.054   5.042  0.00  0.00    -0.081 S 
BRANCH  27  31
ATOM     31  C   UNL     1     -12.186   6.702   8.478  0.00  0.00    +0.244 C 
ATOM     32  O   UNL     1     -11.472   6.323   9.388  0.00  0.00    -0.270 OA
ATOM     33  N   UNL     1     -13.385   7.254   8.747  0.00  0.00    -0.325 N 
ATOM     34  H   UNL     1     -13.954   7.556   8.022  0.00  0.00    +0.145 HD
ATOM     35  H   UNL     1     -13.680   7.349   9.666  0.00  0.00    +0.145 HD
ENDBRANCH  27  31
ENDBRANCH  24  26
ENDBRANCH  20  22
ENDBRANCH  19  20
ENDBRANCH   1  19
TORSDOF 9
