REMARK  Name = ZINC48697265
REMARK  7 active torsions:
REMARK  status: ('A' for Active; 'I' for Inactive)
REMARK    1  A    between atoms: C_1  and  C_2
REMARK    2  A    between atoms: C_4  and  C_8
REMARK    3  A    between atoms: N_10  and  C_11
REMARK    4  A    between atoms: C_17  and  C_19
REMARK    5  A    between atoms: C_19  and  C_20
REMARK    6  A    between atoms: C_19  and  C_21
REMARK    7  A    between atoms: C_19  and  C_22
REMARK                            x       y       z     vdW  Elec       q    Type
REMARK                         _______ _______ _______ _____ _____    ______ ____
ROOT
ATOM      1  C   UNL     1       0.198  -3.705  -1.724  0.00  0.00    +0.262 C 
ATOM      2  O   UNL     1       0.175  -3.868  -2.929  0.00  0.00    -0.269 OA
ATOM      3  N   UNL     1       0.260  -4.770  -0.901  0.00  0.00    -0.307 N 
ATOM      4  H   UNL     1       0.279  -4.640   0.060  0.00  0.00    +0.149 HD
ENDROOT
BRANCH   1   8
ATOM      5  C   UNL     1       0.014   1.333  -1.168  0.00  0.00    +0.067 C 
ATOM      6  C   UNL     1       0.078  -0.149  -0.905  0.00  0.00    +0.060 A 
ATOM      7  C   UNL     1       0.094  -1.157  -1.873  0.00  0.00    +0.057 A 
ATOM      8  C   UNL     1       0.158  -2.344  -1.165  0.00  0.00    +0.120 A 
ATOM      9  N   UNL     1       0.177  -2.000   0.157  0.00  0.00    -0.272 N 
ATOM     10  H   UNL     1       0.219  -2.626   0.897  0.00  0.00    +0.189 HD
ATOM     11  N   UNL     1       0.134  -0.722   0.271  0.00  0.00    -0.178 NA
ENDBRANCH   1   8
BRANCH   3  12
ATOM     12  C   UNL     1       0.299  -6.125  -1.458  0.00  0.00    +0.077 C 
ATOM     13  C   UNL     1       1.754  -6.542  -1.683  0.00  0.00    +0.022 C 
ATOM     14  C   UNL     1       1.796  -7.956  -2.264  0.00  0.00    +0.002 C 
ATOM     15  C   UNL     1       1.131  -8.929  -1.288  0.00  0.00    +0.000 C 
ATOM     16  C   UNL     1      -0.324  -8.512  -1.063  0.00  0.00    +0.006 C 
ATOM     17  C   UNL     1      -0.365  -7.097  -0.482  0.00  0.00    +0.015 C 
BRANCH  17  18
ATOM     18  C   UNL     1      -1.820  -6.680  -0.257  0.00  0.00    -0.033 C 
ATOM     19  C   UNL     1      -2.529  -6.558  -1.607  0.00  0.00    +0.011 C 
ATOM     20  C   UNL     1      -2.527  -7.734   0.597  0.00  0.00    +0.011 C 
ATOM     21  C   UNL     1      -1.858  -5.331   0.463  0.00  0.00    +0.011 C 
ENDBRANCH  17  18
ENDBRANCH   3  12
TORSDOF 3
