REMARK  Name = ZINC20080923
REMARK  7 active torsions:
REMARK  status: ('A' for Active; 'I' for Inactive)
REMARK    1  A    between atoms: C_1  and  C_2
REMARK    2  A    between atoms: C_5  and  C_41
REMARK    3  A    between atoms: C_6  and  N_8
REMARK    4  A    between atoms: N_11  and  C_14
REMARK    5  A    between atoms: C_14  and  C_16
REMARK    6  A    between atoms: C_14  and  C_31
REMARK    7  A    between atoms: N_35  and  C_36
REMARK                            x       y       z     vdW  Elec       q    Type
REMARK                         _______ _______ _______ _____ _____    ______ ____
ROOT
ATOM      1  C   UNL     1       5.213   6.997   0.031  0.00  0.00    +0.162 C 
ENDROOT
BRANCH   1   2
ATOM      2  C   UNL     1       5.333   7.787   1.309  0.00  0.00    +0.042 A 
ATOM      3  C   UNL     1       6.431   7.639   2.094  0.00  0.00    +0.021 A 
ATOM      4  C   UNL     1       6.519   8.419   3.328  0.00  0.00    +0.003 A 
ATOM      5  C   UNL     1       7.628   8.308   4.175  0.00  0.00    +0.059 A 
ATOM      6  C   UNL     1       7.683   9.057   5.330  0.00  0.00    +0.167 A 
ATOM      7  C   UNL     1       6.635   9.926   5.658  0.00  0.00    +0.168 A 
ATOM      8  C   UNL     1       5.535  10.041   4.828  0.00  0.00    +0.075 A 
ATOM      9  C   UNL     1       5.466   9.293   3.659  0.00  0.00    +0.053 A 
ATOM     10  N   UNL     1       4.377   9.397   2.817  0.00  0.00    -0.322 N 
ATOM     11  H   UNL     1       3.548  10.074   3.071  0.00  0.00    +0.169 HD
ATOM     12  C   UNL     1       4.309   8.680   1.682  0.00  0.00    +0.254 A 
ATOM     13  O   UNL     1       3.334   8.801   0.960  0.00  0.00    -0.268 OA
ATOM     14  O   UNL     1       6.936  10.540   6.839  0.00  0.00    -0.453 OA
ATOM     15  C   UNL     1       8.352  10.353   7.021  0.00  0.00    +0.466 C 
ATOM     16  O   UNL     1       8.633   9.134   6.309  0.00  0.00    -0.453 OA
ENDBRANCH   1   2
BRANCH   1  20
ATOM     17  N   UNL     1       2.353   3.888   0.001  0.00  0.00    -0.327 N 
ATOM     18  C   UNL     1       2.506   4.671   1.235  0.00  0.00    +0.120 C 
ATOM     19  C   UNL     1       3.863   5.378   1.223  0.00  0.00    +0.104 C 
ATOM     20  N   UNL     1       3.952   6.243   0.039  0.00  0.00    -0.286 NA
ATOM     21  C   UNL     1       3.800   5.460  -1.195  0.00  0.00    +0.104 C 
ATOM     22  C   UNL     1       2.442   4.753  -1.183  0.00  0.00    +0.120 C 
BRANCH  17  28
ATOM     23  C   UNL     1      -2.561   3.863   0.047  0.00  0.00    +0.044 C 
ATOM     24  C   UNL     1      -1.243   3.133   0.031  0.00  0.00    -0.049 A 
ATOM     25  C   UNL     1      -1.220   1.750   0.017  0.00  0.00    +0.004 A 
ATOM     26  C   UNL     1      -0.013   1.076   0.008  0.00  0.00    +0.005 A 
ATOM     27  C   UNL     1       1.175   1.782   0.000  0.00  0.00    -0.029 A 
ATOM     28  C   UNL     1       1.155   3.171   0.008  0.00  0.00    +0.033 A 
ATOM     29  C   UNL     1      -0.060   3.845   0.023  0.00  0.00    +0.026 A 
ATOM     30  C   UNL     1       2.490   1.046  -0.017  0.00  0.00    +0.045 C 
ENDBRANCH  17  28
ENDBRANCH   1  20
BRANCH   1  31
ATOM     31  C   UNL     1       5.227   7.940  -1.145  0.00  0.00    +0.173 A 
ATOM     32  N   UNL     1       4.245   8.713  -1.540  0.00  0.00    -0.111 NA
ATOM     33  N   UNL     1       4.646   9.366  -2.576  0.00  0.00    -0.023 NA
ATOM     34  N   UNL     1       5.855   9.025  -2.855  0.00  0.00    -0.044 NA
ATOM     35  N   UNL     1       6.249   8.147  -1.996  0.00  0.00    -0.224 N 
BRANCH  35  36
ATOM     36  C   UNL     1       7.562   7.498  -1.954  0.00  0.00    +0.111 C 
ATOM     37  C   UNL     1       8.673   8.562  -1.836  0.00  0.00    +0.027 C 
ATOM     38  C   UNL     1       9.826   8.003  -2.708  0.00  0.00    +0.002 C 
ATOM     39  C   UNL     1       9.074   7.366  -3.903  0.00  0.00    +0.002 C 
ATOM     40  C   UNL     1       7.817   6.738  -3.267  0.00  0.00    +0.027 C 
ENDBRANCH  35  36
ENDBRANCH   1  31
TORSDOF 5
