REMARK  Name = ZINC39582693
REMARK  2 active torsions:
REMARK  status: ('A' for Active; 'I' for Inactive)
REMARK    1  A    between atoms: C_9  and  O_18
REMARK    2  A    between atoms: C_10  and  C_15
REMARK                            x       y       z     vdW  Elec       q    Type
REMARK                         _______ _______ _______ _____ _____    ______ ____
ROOT
ATOM      1  C   UNL     1       0.426   1.405  -0.705  0.00  0.00    +0.001 A 
ATOM      2  C   UNL     1       1.618   2.110  -0.498  0.00  0.00    +0.002 A 
ATOM      3  C   UNL     1       2.781   1.477  -0.216  0.00  0.00    +0.026 A 
ATOM      4  C   UNL     1       2.795   0.015  -0.122  0.00  0.00    +0.044 A 
ATOM      5  N   UNL     1       3.757  -0.837   0.172  0.00  0.00    -0.374 N 
ATOM      6  C   UNL     1       3.248  -2.176  -0.025  0.00  0.00    +0.137 C 
ATOM      7  C   UNL     1       3.578  -3.201   1.002  0.00  0.00    +0.048 C 
ATOM      8  C   UNL     1       2.698  -4.179   1.275  0.00  0.00    +0.129 C 
ATOM      9  C   UNL     1       1.367  -4.233   0.654  0.00  0.00    +0.105 C 
ATOM     10  C   UNL     1       0.869  -3.114  -0.013  0.00  0.00    +0.025 C 
ATOM     11  C   UNL     1       1.752  -2.055  -0.174  0.00  0.00    -0.011 C 
ATOM     12  C   UNL     1       1.514  -0.701  -0.331  0.00  0.00    +0.003 A 
ATOM     13  C   UNL     1       0.360   0.055  -0.627  0.00  0.00    +0.010 A 
ATOM     14  H   UNL     1       4.652  -0.606   0.469  0.00  0.00    +0.161 HD
ENDROOT
BRANCH   9  15
ATOM     15  C   UNL     1       0.563  -5.464   0.735  0.00  0.00    +0.390 C 
ATOM     16  O   UNL     1      -0.590  -5.470   0.326  0.00  0.00    -0.240 OA
ATOM     17  O   UNL     1       1.048  -6.481   1.212  0.00  0.00    -0.240 OA
ENDBRANCH   9  15
BRANCH   8  18
ATOM     18  O   UNL     1       3.050  -5.152   2.155  0.00  0.00    -0.506 OA
ATOM     19  H   UNL     1       2.336  -5.769   2.366  0.00  0.00    +0.292 HD
ENDBRANCH   8  18
TORSDOF 2
