REMARK  Name = ZINC32933683
REMARK  9 active torsions:
REMARK  status: ('A' for Active; 'I' for Inactive)
REMARK    1  A    between atoms: C_1  and  C_2
REMARK    2  A    between atoms: C_5  and  C_8
REMARK    3  A    between atoms: N_13  and  C_16
REMARK    4  A    between atoms: C_16  and  C_17
REMARK    5  A    between atoms: C_17  and  C_18
REMARK    6  A    between atoms: N_20  and  C_21
REMARK    7  A    between atoms: C_21  and  C_22
REMARK    8  A    between atoms: C_25  and  S_28
REMARK    9  A    between atoms: S_28  and  C_29
REMARK                            x       y       z     vdW  Elec       q    Type
REMARK                         _______ _______ _______ _____ _____    ______ ____
ROOT
ATOM      1  C   UNL     1       3.379  -1.018  -0.036  0.00  0.00    +0.128 A 
ATOM      2  C   UNL     1       2.361   0.035  -0.020  0.00  0.00    +0.133 A 
ATOM      3  C   UNL     1       1.155  -0.682  -0.013  0.00  0.00    +0.265 A 
ATOM      4  N   UNL     1       0.002  -0.004   0.002  0.00  0.00    -0.200 NA
ATOM      5  C   UNL     1      -0.016   1.301   0.009  0.00  0.00    +0.206 A 
ATOM      6  N   UNL     1       1.116   2.047   0.002  0.00  0.00    -0.298 N 
ATOM      7  C   UNL     1       2.328   1.442  -0.012  0.00  0.00    +0.267 A 
ATOM      8  O   UNL     1       3.357   2.096  -0.018  0.00  0.00    -0.267 OA
ATOM      9  O   UNL     1       1.506  -1.974  -0.023  0.00  0.00    -0.334 OA
ATOM     10  N   UNL     1       2.703  -2.143  -0.035  0.00  0.00    -0.075 NA
ENDROOT
BRANCH   1  15
ATOM     11  C   UNL     1       9.101  -0.368  -0.091  0.00  0.00    +0.044 C 
ATOM     12  C   UNL     1       7.604  -0.538  -0.076  0.00  0.00    -0.050 A 
ATOM     13  C   UNL     1       7.037  -1.596   0.613  0.00  0.00    +0.004 A 
ATOM     14  C   UNL     1       5.666  -1.756   0.629  0.00  0.00    +0.010 A 
ATOM     15  C   UNL     1       4.853  -0.851  -0.050  0.00  0.00    +0.004 A 
ATOM     16  C   UNL     1       5.430   0.209  -0.746  0.00  0.00    +0.010 A 
ATOM     17  C   UNL     1       6.801   0.363  -0.752  0.00  0.00    +0.004 A 
ENDBRANCH   1  15
BRANCH   6  18
ATOM     18  C   UNL     1       1.028   3.509   0.011  0.00  0.00    +0.135 C 
BRANCH  18  19
ATOM     19  C   UNL     1       1.011   4.010   1.456  0.00  0.00    +0.117 C 
BRANCH  19  20
ATOM     20  C   UNL     1       0.921   5.515   1.465  0.00  0.00    +0.215 C 
ATOM     21  O   UNL     1       0.874   6.125   0.419  0.00  0.00    -0.276 OA
ATOM     22  N   UNL     1       0.891   6.181   2.636  0.00  0.00    -0.311 N 
ATOM     23  H   UNL     1       0.933   5.627   3.586  0.00  0.00    +0.149 HD
BRANCH  22  24
ATOM     24  C   UNL     1       0.803   7.643   2.645  0.00  0.00    +0.139 C 
BRANCH  24  25
ATOM     25  C   UNL     1       0.787   8.137   4.069  0.00  0.00    -0.030 A 
ATOM     26  C   UNL     1      -0.418   8.297   4.730  0.00  0.00    +0.006 A 
ATOM     27  C   UNL     1      -0.436   8.743   6.036  0.00  0.00    +0.015 A 
ATOM     28  C   UNL     1       0.756   9.044   6.683  0.00  0.00    +0.008 A 
ATOM     29  C   UNL     1       1.964   8.888   6.014  0.00  0.00    +0.015 A 
ATOM     30  C   UNL     1       1.976   8.435   4.710  0.00  0.00    +0.006 A 
BRANCH  28  31
ATOM     31  S   UNL     1       0.737   9.621   8.348  0.00  0.00    -0.129 S 
ATOM     32  C   UNL     1      -1.025   9.659   8.779  0.00  0.00    +0.090 C 
ENDBRANCH  28  31
ENDBRANCH  24  25
ENDBRANCH  22  24
ENDBRANCH  19  20
ENDBRANCH  18  19
ENDBRANCH   6  18
TORSDOF 7
