REMARK  Name = ZINC41584832
REMARK  7 active torsions:
REMARK  status: ('A' for Active; 'I' for Inactive)
REMARK    1  A    between atoms: C_1  and  C_2
REMARK    2  A    between atoms: C_4  and  O_32
REMARK    3  A    between atoms: C_5  and  C_18
REMARK    4  A    between atoms: C_11  and  C_12
REMARK    5  A    between atoms: C_18  and  N_19
REMARK    6  A    between atoms: N_22  and  C_25
REMARK    7  A    between atoms: C_25  and  C_26
REMARK                            x       y       z     vdW  Elec       q    Type
REMARK                         _______ _______ _______ _____ _____    ______ ____
ROOT
ATOM      1  C   UNL     1      -0.018   1.503   0.010  0.00  0.00    +0.045 C 
ATOM      2  C   UNL     1       0.002  -0.004   0.002  0.00  0.00    -0.033 A 
ATOM      3  C   UNL     1       0.006  -0.682  -1.184  0.00  0.00    +0.050 A 
ATOM      4  C   UNL     1       0.024  -2.074  -1.196  0.00  0.00    +0.122 A 
ATOM      5  C   UNL     1       0.039  -2.788  -0.008  0.00  0.00    +0.020 A 
ATOM      6  C   UNL     1       0.036  -2.114   1.205  0.00  0.00    +0.145 A 
ATOM      7  C   UNL     1       0.023  -0.709   1.205  0.00  0.00    +0.071 A 
ATOM      8  C   UNL     1       0.031  -0.301   2.621  0.00  0.00    +0.232 C 
ATOM      9  O   UNL     1       0.019   0.835   3.064  0.00  0.00    -0.283 OA
ATOM     10  C   UNL     1       0.054  -1.515   3.357  0.00  0.00    +0.177 C 
ATOM     11  C   UNL     1       0.069  -1.622   4.718  0.00  0.00    +0.065 C 
ATOM     12  O   UNL     1       0.047  -2.549   2.483  0.00  0.00    -0.451 OA
ENDROOT
BRANCH  11  13
ATOM     13  C   UNL     1       0.092  -2.896   5.326  0.00  0.00    +0.016 A 
ATOM     14  C   UNL     1       0.103  -3.223   6.680  0.00  0.00    +0.015 A 
ATOM     15  C   UNL     1       0.126  -4.566   6.966  0.00  0.00    +0.008 A 
ATOM     16  C   UNL     1       0.135  -5.459   5.945  0.00  0.00    +0.046 A 
ATOM     17  S   UNL     1       0.106  -4.507   4.561  0.00  0.00    -0.097 S 
ENDBRANCH  11  13
BRANCH   4  18
ATOM     18  O   UNL     1       0.027  -2.738  -2.380  0.00  0.00    -0.506 OA
ATOM     19  H   UNL     1       0.911  -2.918  -2.728  0.00  0.00    +0.292 HD
ENDBRANCH   4  18
BRANCH   5  20
ATOM     20  C   UNL     1       0.058  -4.295  -0.034  0.00  0.00    -0.035 C 
BRANCH  20  21
ATOM     21  N   UNL     1       1.449  -4.767  -0.049  0.00  0.00    +0.384 N 
ATOM     22  C   UNL     1       2.094  -4.347  -1.300  0.00  0.00    -0.063 C 
ATOM     23  C   UNL     1       3.549  -4.823  -1.308  0.00  0.00    +0.066 C 
ATOM     24  N   UNL     1       3.583  -6.287  -1.186  0.00  0.00    -0.302 NA
ATOM     25  C   UNL     1       2.918  -6.724   0.050  0.00  0.00    +0.066 C 
ATOM     26  C   UNL     1       1.469  -6.233   0.046  0.00  0.00    -0.063 C 
ATOM     27  H   UNL     1       1.946  -4.372   0.735  0.00  0.00    -0.081 HD
BRANCH  24  28
ATOM     28  C   UNL     1       4.963  -6.788  -1.247  0.00  0.00    +0.119 C 
BRANCH  28  29
ATOM     29  C   UNL     1       4.947  -8.290  -1.366  0.00  0.00    -0.033 A 
ATOM     30  C   UNL     1       4.952  -9.074  -0.228  0.00  0.00    +0.005 A 
ATOM     31  C   UNL     1       4.938 -10.452  -0.337  0.00  0.00    +0.000 A 
ATOM     32  C   UNL     1       4.917 -11.046  -1.585  0.00  0.00    +0.000 A 
ATOM     33  C   UNL     1       4.911 -10.262  -2.724  0.00  0.00    +0.000 A 
ATOM     34  C   UNL     1       4.922  -8.884  -2.614  0.00  0.00    +0.005 A 
ENDBRANCH  28  29
ENDBRANCH  24  28
ENDBRANCH  20  21
ENDBRANCH   5  20
TORSDOF 6
