REMARK  Name = ZINC06409095
REMARK  7 active torsions:
REMARK  status: ('A' for Active; 'I' for Inactive)
REMARK    1  A    between atoms: C_1  and  C_2
REMARK    2  A    between atoms: C_9  and  C_14
REMARK    3  A    between atoms: C_14  and  C_16
REMARK    4  A    between atoms: C_14  and  N_73
REMARK    5  A    between atoms: N_20  and  C_21
REMARK    6  A    between atoms: C_29  and  C_32
REMARK    7  A    between atoms: C_32  and  C_33
REMARK                            x       y       z     vdW  Elec       q    Type
REMARK                         _______ _______ _______ _____ _____    ______ ____
ROOT
ATOM      1  C   UNL     1      -4.985   1.048   0.031  0.00  0.00    +0.039 C 
ENDROOT
BRANCH   1  10
ATOM      2  C   UNL     1       2.472   1.039  -0.015  0.00  0.00    +0.044 C 
ATOM      3  C   UNL     1       1.159   1.778   0.001  0.00  0.00    -0.050 A 
ATOM      4  C   UNL     1       1.151   3.166   0.008  0.00  0.00    +0.005 A 
ATOM      5  C   UNL     1      -0.038   3.862   0.022  0.00  0.00    +0.026 A 
ATOM      6  C   UNL     1      -1.244   3.169   0.030  0.00  0.00    +0.049 A 
ATOM      7  C   UNL     1      -1.232   1.762   0.017  0.00  0.00    -0.001 A 
ATOM      8  C   UNL     1      -0.013   1.076   0.008  0.00  0.00    +0.013 A 
ATOM      9  C   UNL     1      -2.506   1.041   0.019  0.00  0.00    +0.017 A 
ATOM     10  C   UNL     1      -3.656   1.759   0.028  0.00  0.00    +0.011 A 
ATOM     11  C   UNL     1      -3.613   3.170   0.036  0.00  0.00    +0.251 A 
ATOM     12  O   UNL     1      -4.659   3.796   0.044  0.00  0.00    -0.268 OA
ATOM     13  N   UNL     1      -2.448   3.840   0.044  0.00  0.00    -0.322 N 
ATOM     14  H   UNL     1      -2.454   4.810   0.049  0.00  0.00    +0.169 HD
ENDBRANCH   1  10
BRANCH   1  20
ATOM     15  C   UNL     1      -5.060   1.328   2.434  0.00  0.00    -0.077 C 
ATOM     16  C   UNL     1      -5.860   1.952   3.580  0.00  0.00    -0.015 C 
ATOM     17  C   UNL     1      -7.236   1.285   3.659  0.00  0.00    -0.010 C 
ATOM     18  C   UNL     1      -7.952   1.449   2.315  0.00  0.00    -0.015 C 
ATOM     19  C   UNL     1      -7.091   0.840   1.206  0.00  0.00    -0.077 C 
ATOM     20  N   UNL     1      -5.791   1.542   1.167  0.00  0.00    +0.389 N 
ATOM     21  H   UNL     1      -5.959   2.547   1.045  0.00  0.00    -0.080 HD
BRANCH  17  22
ATOM     22  C   UNL     1      -8.064   1.945   4.763  0.00  0.00    +0.038 C 
BRANCH  22  23
ATOM     23  C   UNL     1      -7.422   1.677   6.100  0.00  0.00    -0.047 A 
ATOM     24  C   UNL     1      -7.780   0.557   6.827  0.00  0.00    +0.003 A 
ATOM     25  C   UNL     1      -7.189   0.309   8.051  0.00  0.00    +0.000 A 
ATOM     26  C   UNL     1      -6.245   1.185   8.553  0.00  0.00    +0.000 A 
ATOM     27  C   UNL     1      -5.890   2.308   7.828  0.00  0.00    +0.000 A 
ATOM     28  C   UNL     1      -6.478   2.554   6.602  0.00  0.00    +0.003 A 
ENDBRANCH  22  23
ENDBRANCH  17  22
ENDBRANCH   1  20
BRANCH   1  29
ATOM     29  C   UNL     1      -5.717   1.348  -1.252  0.00  0.00    +0.143 A 
ATOM     30  N   UNL     1      -6.327   2.466  -1.563  0.00  0.00    -0.115 NA
ATOM     31  N   UNL     1      -6.828   2.331  -2.742  0.00  0.00    -0.023 NA
ATOM     32  N   UNL     1      -6.560   1.153  -3.188  0.00  0.00    -0.044 NA
ATOM     33  N   UNL     1      -5.877   0.516  -2.299  0.00  0.00    -0.227 N 
BRANCH  33  34
ATOM     34  C   UNL     1      -5.370  -0.854  -2.407  0.00  0.00    +0.111 C 
ATOM     35  C   UNL     1      -4.426  -0.955  -3.607  0.00  0.00    +0.027 C 
ATOM     36  C   UNL     1      -3.897  -2.386  -3.720  0.00  0.00    +0.002 C 
ATOM     37  C   UNL     1      -5.069  -3.350  -3.911  0.00  0.00    +0.000 C 
ATOM     38  C   UNL     1      -6.013  -3.249  -2.711  0.00  0.00    +0.002 C 
ATOM     39  C   UNL     1      -6.543  -1.818  -2.598  0.00  0.00    +0.027 C 
ENDBRANCH  33  34
ENDBRANCH   1  29
TORSDOF 6
