REMARK  Name = ZINC42013931
REMARK  3 active torsions:
REMARK  status: ('A' for Active; 'I' for Inactive)
REMARK    1  A    between atoms: C_3  and  N_21
REMARK    2  A    between atoms: C_6  and  C_7
REMARK    3  A    between atoms: N_11  and  C_12
REMARK                            x       y       z     vdW  Elec       q    Type
REMARK                         _______ _______ _______ _____ _____    ______ ____
ROOT
ATOM      1  C   UNL     1      -1.247  -0.937   0.379  0.00  0.00    +0.187 A 
ATOM      2  N   UNL     1      -2.435  -0.409   0.593  0.00  0.00    -0.108 NA
ATOM      3  N   UNL     1      -3.349  -1.121   0.040  0.00  0.00    -0.022 NA
ATOM      4  N   UNL     1      -2.832  -2.138  -0.559  0.00  0.00    -0.038 NA
ATOM      5  N   UNL     1      -1.441  -2.061  -0.369  0.00  0.00    -0.189 N 
ENDROOT
BRANCH   5   6
ATOM      6  C   UNL     1      -0.464  -2.948  -0.845  0.00  0.00    +0.119 A 
ATOM      7  C   UNL     1       0.520  -2.497  -1.718  0.00  0.00    +0.153 A 
ATOM      8  C   UNL     1       1.482  -3.375  -2.185  0.00  0.00    +0.079 A 
ATOM      9  C   UNL     1       1.463  -4.700  -1.786  0.00  0.00    +0.127 A 
ATOM     10  C   UNL     1       0.483  -5.151  -0.917  0.00  0.00    +0.056 A 
ATOM     11  C   UNL     1      -0.476  -4.277  -0.442  0.00  0.00    +0.049 A 
ATOM     12 BR   UNL     1      -1.809  -4.891   0.750  0.00  0.00    -0.048 Br
ATOM     13  F   UNL     1       2.403  -5.556  -2.244  0.00  0.00    -0.205 F 
ATOM     14  F   UNL     1       0.538  -1.204  -2.108  0.00  0.00    -0.203 F 
ENDBRANCH   5   6
BRANCH   1  20
ATOM     15  C   UNL     1       0.157   0.924   1.258  0.00  0.00    +0.013 A 
ATOM     16  C   UNL     1       1.366   1.413   1.701  0.00  0.00    +0.023 A 
ATOM     17  C   UNL     1       2.480   0.581   1.746  0.00  0.00    +0.025 A 
ATOM     18  C   UNL     1       2.376  -0.747   1.345  0.00  0.00    +0.023 A 
ATOM     19  C   UNL     1       1.170  -1.241   0.901  0.00  0.00    +0.013 A 
ATOM     20  C   UNL     1       0.050  -0.409   0.855  0.00  0.00    +0.021 A 
BRANCH  17  21
ATOM     21  N   UNL     1       3.702   1.079   2.195  0.00  0.00    -0.358 N 
ATOM     22  H   UNL     1       3.776   2.005   2.474  0.00  0.00    +0.142 HD
ATOM     23  H   UNL     1       4.480   0.500   2.227  0.00  0.00    +0.142 HD
ENDBRANCH  17  21
ENDBRANCH   1  20
TORSDOF 3
