REMARK  Name = ZINC07217826
REMARK  7 active torsions:
REMARK  status: ('A' for Active; 'I' for Inactive)
REMARK    1  A    between atoms: C_1  and  C_2
REMARK    2  A    between atoms: C_2  and  C_3
REMARK    3  A    between atoms: C_2  and  C_4
REMARK    4  A    between atoms: C_4  and  C_5
REMARK    5  A    between atoms: C_4  and  N_18
REMARK    6  A    between atoms: N_7  and  C_8
REMARK    7  A    between atoms: N_21  and  C_22
REMARK                            x       y       z     vdW  Elec       q    Type
REMARK                         _______ _______ _______ _____ _____    ______ ____
ROOT
ATOM      1  C   UNL     1      -1.482  -0.737  -0.125  0.00  0.00    +0.163 C 
ENDROOT
BRANCH   1   2
ATOM      2  N   UNL     1      -1.275  -2.150   0.202  0.00  0.00    -0.288 N 
ATOM      3  C   UNL     1      -1.157  -2.533   1.488  0.00  0.00    +0.304 C 
ATOM      4  O   UNL     1      -1.222  -1.707   2.378  0.00  0.00    -0.252 OA
ATOM      5  N   UNL     1      -0.966  -3.833   1.789  0.00  0.00    -0.269 N 
ATOM      6  H   UNL     1      -1.223  -2.809  -0.508  0.00  0.00    +0.151 HD
ATOM      7  H   UNL     1      -0.839  -4.482   1.079  0.00  0.00    +0.156 HD
BRANCH   5   8
ATOM      8  C   UNL     1      -0.953  -4.248   3.126  0.00  0.00    +0.035 A 
ATOM      9  C   UNL     1      -0.134  -5.297   3.521  0.00  0.00    +0.023 A 
ATOM     10  C   UNL     1      -0.122  -5.703   4.841  0.00  0.00    +0.002 A 
ATOM     11  C   UNL     1      -0.926  -5.066   5.769  0.00  0.00    +0.000 A 
ATOM     12  C   UNL     1      -1.744  -4.022   5.378  0.00  0.00    +0.002 A 
ATOM     13  C   UNL     1      -1.755  -3.607   4.061  0.00  0.00    +0.023 A 
ENDBRANCH   5   8
ENDBRANCH   1   2
BRANCH   1  14
ATOM     14  C   UNL     1      -2.172  -0.626  -1.460  0.00  0.00    +0.234 C 
ATOM     15  O   UNL     1      -2.484  -1.629  -2.067  0.00  0.00    -0.274 OA
ATOM     16  N   UNL     1      -2.443   0.588  -1.979  0.00  0.00    -0.307 N 
ATOM     17  H   UNL     1      -2.253   1.389  -1.466  0.00  0.00    +0.149 HD
BRANCH  16  18
ATOM     18  C   UNL     1      -3.025   0.698  -3.319  0.00  0.00    +0.110 C 
ATOM     19  C   UNL     1      -3.796   2.015  -3.434  0.00  0.00    +0.068 C 
ATOM     20  C   UNL     1      -4.139   2.246  -4.911  0.00  0.00    +0.231 C 
ATOM     21  O   UNL     1      -2.920   2.423  -5.634  0.00  0.00    -0.492 OA
ATOM     22  C   UNL     1      -1.930   1.514  -5.440  0.00  0.00    +0.125 A 
ATOM     23  C   UNL     1      -1.924   0.662  -4.349  0.00  0.00    +0.014 A 
ATOM     24  C   UNL     1      -0.891  -0.246  -4.189  0.00  0.00    +0.009 A 
ATOM     25  C   UNL     1       0.132  -0.308  -5.115  0.00  0.00    +0.001 A 
ATOM     26  C   UNL     1       0.128   0.539  -6.207  0.00  0.00    +0.004 A 
ATOM     27  C   UNL     1      -0.899   1.447  -6.371  0.00  0.00    +0.046 A 
ENDBRANCH  16  18
ENDBRANCH   1  14
BRANCH   1  29
ATOM     28  C   UNL     1       0.496   0.011   1.207  0.00  0.00    +0.009 C 
ATOM     29  C   UNL     1      -0.129  -0.025  -0.190  0.00  0.00    +0.012 C 
ATOM     30  C   UNL     1       0.799  -0.778  -1.145  0.00  0.00    +0.009 C 
ENDBRANCH   1  29
TORSDOF 5
