REMARK  Name = ZINC09416493
REMARK  6 active torsions:
REMARK  status: ('A' for Active; 'I' for Inactive)
REMARK    1  A    between atoms: C_4  and  C_7
REMARK    2  A    between atoms: C_8  and  S_17
REMARK    3  A    between atoms: S_17  and  C_18
REMARK    4  A    between atoms: C_18  and  C_19
REMARK    5  A    between atoms: C_19  and  N_20
REMARK    6  A    between atoms: C_21  and  C_23
REMARK                            x       y       z     vdW  Elec       q    Type
REMARK                         _______ _______ _______ _____ _____    ______ ____
ROOT
ATOM      1  S   UNL     1       2.873   3.974   1.956  0.00  0.00    -0.121 S 
ENDROOT
BRANCH   1   3
ATOM      2  C   UNL     1       3.656   2.159  -0.022  0.00  0.00    +0.061 A 
ATOM      3  C   UNL     1       3.939   3.235   0.763  0.00  0.00    +0.041 A 
ATOM      4  C   UNL     1       5.301   3.659   0.427  0.00  0.00    +0.014 A 
ATOM      5  C   UNL     1       6.133   4.684   0.886  0.00  0.00    +0.011 A 
ATOM      6  C   UNL     1       7.384   4.830   0.356  0.00  0.00    +0.001 A 
ATOM      7  C   UNL     1       7.836   3.969  -0.634  0.00  0.00    +0.002 A 
ATOM      8  C   UNL     1       7.032   2.952  -1.101  0.00  0.00    +0.026 A 
ATOM      9  C   UNL     1       5.754   2.783  -0.577  0.00  0.00    +0.048 A 
ATOM     10  N   UNL     1       4.743   1.884  -0.832  0.00  0.00    -0.353 N 
ATOM     11  H   UNL     1       4.787   1.166  -1.483  0.00  0.00    +0.166 HD
BRANCH   2  15
ATOM     12  C   UNL     1       0.002  -0.004   0.002  0.00  0.00    +0.000 A 
ATOM     13  C   UNL     1      -0.017   1.380   0.010  0.00  0.00    +0.001 A 
ATOM     14  C   UNL     1       1.166   2.089   0.002  0.00  0.00    +0.010 A 
ATOM     15  C   UNL     1       2.385   1.407  -0.014  0.00  0.00    -0.001 A 
ATOM     16  C   UNL     1       2.397   0.010  -0.021  0.00  0.00    +0.010 A 
ATOM     17  C   UNL     1       1.206  -0.686  -0.013  0.00  0.00    +0.001 A 
ENDBRANCH   2  15
ENDBRANCH   1   3
BRANCH   1  18
ATOM     18  C   UNL     1       3.250   3.085   3.491  0.00  0.00    +0.093 C 
BRANCH  18  19
ATOM     19  C   UNL     1       2.382   3.635   4.625  0.00  0.00    +0.115 C 
BRANCH  19  20
ATOM     20  N   UNL     1       2.687   2.917   5.865  0.00  0.00    -0.314 N 
ATOM     21  C   UNL     1       2.038   3.235   7.004  0.00  0.00    +0.219 C 
ATOM     22  O   UNL     1       1.203   4.114   7.001  0.00  0.00    -0.275 OA
ATOM     23  H   UNL     1       3.355   2.214   5.867  0.00  0.00    +0.149 HD
BRANCH  21  24
ATOM     24  C   UNL     1       2.352   2.496   8.280  0.00  0.00    +0.048 C 
ATOM     25  C   UNL     1       2.061   1.006   8.092  0.00  0.00    +0.019 C 
ATOM     26  C   UNL     1       2.379   0.257   9.387  0.00  0.00    -0.009 C 
ATOM     27  C   UNL     1       1.511   0.807  10.521  0.00  0.00    +0.007 C 
ATOM     28  C   UNL     1       1.802   2.297  10.709  0.00  0.00    -0.009 C 
ATOM     29  C   UNL     1       1.484   3.046   9.413  0.00  0.00    +0.019 C 
ATOM     30  C   UNL     1       3.279   2.488  11.059  0.00  0.00    +0.007 C 
ATOM     31  C   UNL     1       4.147   1.938   9.925  0.00  0.00    -0.009 C 
ATOM     32  C   UNL     1       3.856   0.448   9.737  0.00  0.00    +0.007 C 
ATOM     33  C   UNL     1       3.829   2.688   8.630  0.00  0.00    +0.019 C 
ENDBRANCH  21  24
ENDBRANCH  19  20
ENDBRANCH  18  19
ENDBRANCH   1  18
TORSDOF 6
