REMARK  Name = ZINC22973031
REMARK  6 active torsions:
REMARK  status: ('A' for Active; 'I' for Inactive)
REMARK    1  A    between atoms: C_1  and  C_2
REMARK    2  A    between atoms: C_2  and  C_4
REMARK    3  A    between atoms: C_2  and  S_17
REMARK    4  A    between atoms: C_4  and  C_6
REMARK    5  A    between atoms: S_17  and  C_18
REMARK    6  A    between atoms: C_21  and  C_24
REMARK                            x       y       z     vdW  Elec       q    Type
REMARK                         _______ _______ _______ _____ _____    ______ ____
ROOT
ATOM      1  C   UNL     1      -0.643   4.427   1.469  0.00  0.00    +0.028 C 
ATOM      2  C   UNL     1      -0.150   4.295   0.026  0.00  0.00    +0.122 C 
ENDROOT
BRANCH   2   3
ATOM      3  C   UNL     1       1.165   3.560   0.010  0.00  0.00    +0.176 C 
ATOM      4  O   UNL     1       2.207   4.181   0.003  0.00  0.00    -0.291 OA
BRANCH   3   5
ATOM      5  C   UNL     1       1.185   2.091   0.002  0.00  0.00    +0.020 A 
ATOM      6  C   UNL     1      -0.017   1.373   0.010  0.00  0.00    +0.015 A 
ATOM      7  C   UNL     1       0.002  -0.004   0.002  0.00  0.00    +0.048 A 
ATOM      8  C   UNL     1       1.212  -0.684  -0.014  0.00  0.00    +0.142 A 
ATOM      9  C   UNL     1       2.416   0.026  -0.021  0.00  0.00    +0.076 A 
ATOM     10  C   UNL     1       2.407   1.406  -0.013  0.00  0.00    +0.038 A 
ATOM     11  N   UNL     1       3.628  -0.680  -0.035  0.00  0.00    -0.280 N 
ATOM     12  C   UNL     1       3.617  -1.992  -0.360  0.00  0.00    +0.255 C 
ATOM     13  O   UNL     1       4.648  -2.630  -0.351  0.00  0.00    -0.272 OA
ATOM     14  C   UNL     1       2.317  -2.658  -0.734  0.00  0.00    +0.325 C 
ATOM     15  O   UNL     1       1.239  -2.042  -0.024  0.00  0.00    -0.481 OA
ATOM     16  H   UNL     1       4.567  -0.166   0.215  0.00  0.00    +0.155 HD
ENDBRANCH   3   5
ENDBRANCH   2   3
BRANCH   2  17
ATOM     17  S   UNL     1       0.072   5.944  -0.688  0.00  0.00    -0.075 S 
BRANCH  17  18
ATOM     18  C   UNL     1      -1.598   6.506  -0.685  0.00  0.00    +0.185 A 
ATOM     19  N   UNL     1      -2.046   7.719  -1.125  0.00  0.00    -0.201 NA
ATOM     20  H   UNL     1      -2.711   4.822   0.164  0.00  0.00    +0.191 HD
ATOM     21  C   UNL     1      -3.407   7.706  -0.927  0.00  0.00    +0.182 A 
ATOM     22  N   UNL     1      -3.708   6.545  -0.394  0.00  0.00    -0.152 NA
ATOM     23  N   UNL     1      -2.646   5.835  -0.259  0.00  0.00    -0.253 N 
BRANCH  21  24
ATOM     24  C   UNL     1      -4.353   8.795  -1.254  0.00  0.00    +0.021 A 
ATOM     25  C   UNL     1      -3.884   9.988  -1.807  0.00  0.00    +0.013 A 
ATOM     26  C   UNL     1      -4.771  10.998  -2.114  0.00  0.00    +0.021 A 
ATOM     27  C   UNL     1      -6.123  10.834  -1.866  0.00  0.00    +0.041 A 
ATOM     28  C   UNL     1      -6.594   9.655  -1.313  0.00  0.00    +0.021 A 
ATOM     29  C   UNL     1      -5.717   8.636  -1.006  0.00  0.00    +0.013 A 
ATOM     30 CL   UNL     1      -7.234  12.113  -2.249  0.00  0.00    -0.084 Cl
ENDBRANCH  21  24
ENDBRANCH  17  18
ENDBRANCH   2  17
TORSDOF 5
