REMARK  Name = ZINC06193406
REMARK  13 active torsions:
REMARK  status: ('A' for Active; 'I' for Inactive)
REMARK    1  A    between atoms: C_1  and  C_2
REMARK    2  A    between atoms: C_2  and  N_63
REMARK    3  A    between atoms: C_3  and  C_4
REMARK    4  A    between atoms: C_3  and  N_63
REMARK    5  A    between atoms: C_5  and  C_6
REMARK    6  A    between atoms: C_5  and  N_63
REMARK    7  A    between atoms: C_6  and  N_7
REMARK    8  A    between atoms: N_7  and  C_8
REMARK    9  A    between atoms: N_7  and  C_24
REMARK   10  A    between atoms: C_8  and  C_9
REMARK   11  A    between atoms: C_24  and  N_26
REMARK   12  A    between atoms: N_26  and  C_27
REMARK   13  A    between atoms: C_27  and  C_28
REMARK                            x       y       z     vdW  Elec       q    Type
REMARK                         _______ _______ _______ _____ _____    ______ ____
ROOT
ATOM      1  N   UNL     1      -5.519   0.585   2.532  0.00  0.00    -0.310 N 
ENDROOT
BRANCH   1   2
ATOM      2  C   UNL     1      -5.418  -0.355   3.492  0.00  0.00    +0.133 C 
ATOM      3  S   UNL     1      -4.424  -1.727   3.247  0.00  0.00    -0.019 S 
BRANCH   2   4
ATOM      4  N   UNL     1      -6.101  -0.215   4.646  0.00  0.00    -0.322 N 
ATOM      5  H   UNL     1      -6.664   0.563   4.785  0.00  0.00    +0.148 HD
BRANCH   4   6
ATOM      6  C   UNL     1      -5.992  -1.236   5.690  0.00  0.00    +0.138 C 
BRANCH   6   7
ATOM      7  C   UNL     1      -6.846  -0.844   6.868  0.00  0.00    -0.030 A 
ATOM      8  C   UNL     1      -6.308  -0.082   7.889  0.00  0.00    +0.005 A 
ATOM      9  C   UNL     1      -7.092   0.282   8.967  0.00  0.00    +0.000 A 
ATOM     10  C   UNL     1      -8.412  -0.124   9.030  0.00  0.00    +0.000 A 
ATOM     11  C   UNL     1      -8.948  -0.891   8.012  0.00  0.00    +0.000 A 
ATOM     12  C   UNL     1      -8.165  -1.251   6.931  0.00  0.00    +0.005 A 
ENDBRANCH   6   7
ENDBRANCH   4   6
ENDBRANCH   2   4
ENDBRANCH   1   2
BRANCH   1  13
ATOM     13  C   UNL     1      -6.369   1.759   2.742  0.00  0.00    +0.088 C 
BRANCH  13  14
ATOM     14  C   UNL     1      -7.783   1.461   2.240  0.00  0.00    -0.060 C 
BRANCH  14  15
ATOM     15  N   UNL     1      -8.634   2.646   2.478  0.00  0.00    +0.380 N 
ATOM     16  H   UNL     1      -8.542   2.930   3.460  0.00  0.00    -0.082 HD
BRANCH  15  18
ATOM     17  C   UNL     1      -8.297   3.368   0.138  0.00  0.00    -0.017 C 
ATOM     18  C   UNL     1      -8.198   3.762   1.613  0.00  0.00    -0.082 C 
ENDBRANCH  15  18
BRANCH  15  19
ATOM     19  C   UNL     1     -10.048   2.317   2.203  0.00  0.00    -0.082 C 
ATOM     20  C   UNL     1     -10.933   3.415   2.796  0.00  0.00    -0.017 C 
ENDBRANCH  15  19
ENDBRANCH  14  15
ENDBRANCH  13  14
ENDBRANCH   1  13
BRANCH   1  21
ATOM     21  C   UNL     1      -4.777   0.432   1.277  0.00  0.00    +0.147 C 
BRANCH  21  22
ATOM     22  C   UNL     1      -3.422   1.077   1.414  0.00  0.00    +0.035 A 
ATOM     23  C   UNL     1      -2.348   0.324   1.764  0.00  0.00    +0.020 A 
ATOM     24  C   UNL     1      -1.045   0.978   1.884  0.00  0.00    +0.003 A 
ATOM     25  C   UNL     1       0.096   0.252   2.249  0.00  0.00    +0.059 A 
ATOM     26  C   UNL     1       1.309   0.896   2.358  0.00  0.00    +0.167 A 
ATOM     27  C   UNL     1       1.402   2.272   2.111  0.00  0.00    +0.168 A 
ATOM     28  C   UNL     1       0.280   2.996   1.755  0.00  0.00    +0.075 A 
ATOM     29  C   UNL     1      -0.951   2.362   1.641  0.00  0.00    +0.053 A 
ATOM     30  N   UNL     1      -2.082   3.070   1.288  0.00  0.00    -0.322 N 
ATOM     31  H   UNL     1      -2.014   4.052   1.112  0.00  0.00    +0.169 HD
ATOM     32  C   UNL     1      -3.274   2.458   1.177  0.00  0.00    +0.254 A 
ATOM     33  O   UNL     1      -4.252   3.115   0.864  0.00  0.00    -0.268 OA
ATOM     34  O   UNL     1       2.700   2.655   2.286  0.00  0.00    -0.453 OA
ATOM     35  C   UNL     1       3.317   1.595   3.039  0.00  0.00    +0.466 C 
ATOM     36  O   UNL     1       2.550   0.429   2.687  0.00  0.00    -0.453 OA
ENDBRANCH  21  22
ENDBRANCH   1  21
TORSDOF 11
