REMARK  Name = ZINC03978147
REMARK  13 active torsions:
REMARK  status: ('A' for Active; 'I' for Inactive)
REMARK    1  A    between atoms: C_1  and  C_2
REMARK    2  A    between atoms: C_2  and  O_4
REMARK    3  A    between atoms: O_4  and  C_5
REMARK    4  A    between atoms: C_7  and  O_43
REMARK    5  A    between atoms: C_14  and  C_28
REMARK    6  A    between atoms: C_21  and  C_23
REMARK    7  A    between atoms: C_29  and  C_42
REMARK    8  A    between atoms: C_32  and  C_37
REMARK    9  A    between atoms: C_34  and  C_35
REMARK   10  A    between atoms: C_34  and  C_36
REMARK   11  A    between atoms: C_37  and  C_38
REMARK   12  A    between atoms: C_38  and  O_40
REMARK   13  A    between atoms: O_40  and  C_41
REMARK                            x       y       z     vdW  Elec       q    Type
REMARK                         _______ _______ _______ _____ _____    ______ ____
ROOT
ATOM      1  C   UNL     1       2.666  -6.220   0.109  0.00  0.00    +0.225 C 
ATOM      2  C   UNL     1       3.522  -7.405  -0.323  0.00  0.00    +0.180 C 
ATOM      3  C   UNL     1       4.550  -6.973  -1.337  0.00  0.00    +0.018 C 
ATOM      4  C   UNL     1       4.343  -7.020  -2.618  0.00  0.00    -0.062 C 
ATOM      5  C   UNL     1       3.063  -7.465  -3.274  0.00  0.00    +0.029 C 
ATOM      6  C   UNL     1       3.367  -8.555  -4.295  0.00  0.00    +0.009 C 
ATOM      7  C   UNL     1       4.471  -8.105  -5.259  0.00  0.00    +0.012 C 
ATOM      8  C   UNL     1       5.750  -7.735  -4.516  0.00  0.00    +0.016 C 
ATOM      9  C   UNL     1       5.449  -6.575  -3.557  0.00  0.00    +0.035 C 
ATOM     10  C   UNL     1       6.711  -6.202  -2.783  0.00  0.00    +0.129 C 
ATOM     11  C   UNL     1       7.822  -5.973  -3.788  0.00  0.00    +0.308 C 
ATOM     12  O   UNL     1       8.528  -4.996  -3.718  0.00  0.00    -0.251 OA
ATOM     13  O   UNL     1       8.001  -6.890  -4.758  0.00  0.00    -0.456 OA
ATOM     14  C   UNL     1       6.835  -7.281  -5.497  0.00  0.00    +0.216 C 
ATOM     15  C   UNL     1       6.261  -8.948  -3.740  0.00  0.00    +0.016 C 
ATOM     16  C   UNL     1       1.980  -7.858  -2.289  0.00  0.00    +0.040 C 
ATOM     17  C   UNL     1       2.618  -8.406  -1.025  0.00  0.00    +0.179 C 
ATOM     18  O   UNL     1       2.427  -9.525  -0.618  0.00  0.00    -0.293 OA
ATOM     19  C   UNL     1       1.130  -6.646  -1.914  0.00  0.00    +0.023 C 
ATOM     20  C   UNL     1       1.787  -5.646  -0.986  0.00  0.00    +0.010 C 
ATOM     21  C   UNL     1       0.643  -4.871  -0.279  0.00  0.00    +0.015 C 
ATOM     22  C   UNL     1       2.569  -4.600  -1.796  0.00  0.00    +0.015 C 
ATOM     23  C   UNL     1       1.063  -8.940  -2.881  0.00  0.00    +0.020 C 
ENDROOT
BRANCH  14  24
ATOM     24  C   UNL     1       7.200  -8.412  -6.423  0.00  0.00    +0.031 A 
ATOM     25  C   UNL     1       6.751  -8.592  -7.752  0.00  0.00    +0.048 A 
ATOM     26  C   UNL     1       7.319  -9.723  -8.206  0.00  0.00    +0.195 A 
ATOM     27  O   UNL     1       8.085 -10.235  -7.229  0.00  0.00    -0.471 OA
ATOM     28  C   UNL     1       8.020  -9.442  -6.147  0.00  0.00    +0.202 A 
ENDBRANCH  14  24
BRANCH   2  29
ATOM     29  O   UNL     1       4.163  -8.012   0.809  0.00  0.00    -0.374 OA
ATOM     30  H   UNL     1       4.719  -8.771   0.586  0.00  0.00    +0.211 HD
ENDBRANCH   2  29
BRANCH   1  31
ATOM     31  O   UNL     1       3.523  -5.183   0.614  0.00  0.00    -0.457 OA
BRANCH  31  33
ATOM     32  C   UNL     1       4.743  -4.189   2.516  0.00  0.00    +0.136 C 
ATOM     33  C   UNL     1       3.848  -5.242   1.915  0.00  0.00    +0.304 C 
ATOM     34  O   UNL     1       3.424  -6.139   2.604  0.00  0.00    -0.251 OA
ENDBRANCH  31  33
ENDBRANCH   1  31
BRANCH  19  35
ATOM     35  C   UNL     1      -0.186  -7.133  -1.285  0.00  0.00    +0.125 C 
BRANCH  35  36
ATOM     36  C   UNL     1       0.116  -8.131  -0.197  0.00  0.00    +0.307 C 
ATOM     37  O   UNL     1       1.116  -8.012   0.471  0.00  0.00    -0.251 OA
BRANCH  36  38
ATOM     38  O   UNL     1      -0.725  -9.153   0.029  0.00  0.00    -0.468 OA
ATOM     39  C   UNL     1      -0.376 -10.061   1.076  0.00  0.00    +0.280 C 
ENDBRANCH  36  38
ENDBRANCH  35  36
ENDBRANCH  19  35
TORSDOF 7
