REMARK  Name = ZINC39666485
REMARK  10 active torsions:
REMARK  status: ('A' for Active; 'I' for Inactive)
REMARK    1  A    between atoms: C_1  and  C_2
REMARK    2  A    between atoms: C_2  and  O_3
REMARK    3  A    between atoms: O_3  and  C_4
REMARK    4  A    between atoms: C_9  and  C_10
REMARK    5  A    between atoms: C_14  and  C_23
REMARK    6  A    between atoms: N_25  and  C_26
REMARK    7  A    between atoms: C_26  and  C_27
REMARK    8  A    between atoms: C_27  and  C_29
REMARK    9  A    between atoms: C_27  and  O_30
REMARK   10  A    between atoms: O_30  and  C_31
REMARK                            x       y       z     vdW  Elec       q    Type
REMARK                         _______ _______ _______ _____ _____    ______ ____
ROOT
ATOM      1  C   UNL     1       2.544  -2.637  -2.569  0.00  0.00    +0.250 C 
ATOM      2  O   UNL     1       2.423  -1.473  -2.238  0.00  0.00    -0.270 OA
ATOM      3  N   UNL     1       3.178  -2.948  -3.717  0.00  0.00    -0.296 N 
ATOM      4  C   UNL     1       3.331  -4.286  -4.335  0.00  0.00    +0.121 C 
ATOM      5  C   UNL     1       3.161  -4.037  -5.851  0.00  0.00    +0.100 C 
ATOM      6  C   UNL     1       3.525  -2.556  -6.048  0.00  0.00    -0.004 C 
ATOM      7  C   UNL     1       3.874  -2.030  -4.649  0.00  0.00    +0.115 C 
ATOM      8  C   UNL     1       2.331  -1.790  -6.611  0.00  0.00    -0.010 C 
ATOM      9  C   UNL     1       2.735  -0.332  -6.852  0.00  0.00    -0.082 C 
ATOM     10  N   UNL     1       3.861  -0.283  -7.792  0.00  0.00    +0.379 N 
ATOM     11  C   UNL     1       5.033  -0.943  -7.205  0.00  0.00    -0.082 C 
ATOM     12  C   UNL     1       4.727  -2.426  -6.978  0.00  0.00    -0.010 C 
ATOM     13  H   UNL     1       3.604  -0.755  -8.647  0.00  0.00    -0.086 HD
ATOM     14  H   UNL     1       4.085   0.679  -7.997  0.00  0.00    -0.086 HD
ENDROOT
BRANCH   1  20
ATOM     15  C   UNL     1       0.813  -3.498  -0.994  0.00  0.00    +0.133 A 
ATOM     16  C   UNL     1       0.304  -4.514  -0.198  0.00  0.00    +0.046 A 
ATOM     17  C   UNL     1       0.966  -5.723  -0.112  0.00  0.00    +0.004 A 
ATOM     18  C   UNL     1       2.140  -5.931  -0.817  0.00  0.00    +0.001 A 
ATOM     19  C   UNL     1       2.659  -4.933  -1.613  0.00  0.00    +0.017 A 
ATOM     20  C   UNL     1       1.997  -3.707  -1.714  0.00  0.00    +0.078 A 
BRANCH  15  21
ATOM     21  O   UNL     1       0.164  -2.310  -1.080  0.00  0.00    -0.491 OA
BRANCH  21  23
ATOM     22  C   UNL     1      -1.622  -0.774  -0.540  0.00  0.00    +0.048 C 
ATOM     23  C   UNL     1      -1.037  -2.170  -0.318  0.00  0.00    +0.226 C 
ENDBRANCH  21  23
ENDBRANCH  15  21
ENDBRANCH   1  20
BRANCH   5  24
ATOM     24  C   UNL     1       4.098  -4.919  -6.636  0.00  0.00    +0.218 C 
ATOM     25  O   UNL     1       5.139  -5.292  -6.138  0.00  0.00    -0.275 OA
ATOM     26  N   UNL     1       3.779  -5.293  -7.891  0.00  0.00    -0.312 N 
ATOM     27  H   UNL     1       2.947  -4.995  -8.289  0.00  0.00    +0.149 HD
BRANCH  26  28
ATOM     28  C   UNL     1       4.690  -6.150  -8.653  0.00  0.00    +0.148 C 
BRANCH  28  29
ATOM     29  C   UNL     1       4.095  -6.423 -10.036  0.00  0.00    +0.187 C 
ATOM     30  C   UNL     1       5.047  -7.318 -10.833  0.00  0.00    +0.053 C 
BRANCH  29  31
ATOM     31  O   UNL     1       2.834  -7.079  -9.891  0.00  0.00    -0.486 OA
BRANCH  31  32
ATOM     32  C   UNL     1       1.947  -6.943 -10.912  0.00  0.00    +0.139 A 
ATOM     33  C   UNL     1       2.323  -6.293 -12.078  0.00  0.00    +0.047 A 
ATOM     34  C   UNL     1       1.420  -6.156 -13.114  0.00  0.00    +0.004 A 
ATOM     35  C   UNL     1       0.140  -6.665 -12.989  0.00  0.00    +0.002 A 
ATOM     36  C   UNL     1      -0.239  -7.313 -11.828  0.00  0.00    +0.023 A 
ATOM     37  C   UNL     1       0.664  -7.458 -10.791  0.00  0.00    +0.083 A 
ATOM     38 CL   UNL     1       0.190  -8.278  -9.336  0.00  0.00    -0.080 Cl
ENDBRANCH  31  32
ENDBRANCH  29  31
ENDBRANCH  28  29
ENDBRANCH  26  28
ENDBRANCH   5  24
TORSDOF 8
