REMARK  Name = ZINC47168495
REMARK  4 active torsions:
REMARK  status: ('A' for Active; 'I' for Inactive)
REMARK    1  A    between atoms: C_1  and  C_2
REMARK    2  A    between atoms: C_2  and  C_9
REMARK    3  A    between atoms: C_13  and  N_15
REMARK    4  A    between atoms: C_16  and  C_18
REMARK                            x       y       z     vdW  Elec       q    Type
REMARK                         _______ _______ _______ _____ _____    ______ ____
ROOT
ATOM      1  C   UNL     1      -1.467  -0.432   0.052  0.00  0.00    -0.014 A 
ATOM      2  C   UNL     1      -1.853  -1.391   0.971  0.00  0.00    +0.006 A 
ATOM      3  C   UNL     1      -3.074  -2.026   0.842  0.00  0.00    +0.002 A 
ATOM      4  C   UNL     1      -3.913  -1.705  -0.208  0.00  0.00    +0.023 A 
ATOM      5  C   UNL     1      -3.529  -0.743  -1.133  0.00  0.00    +0.034 A 
ATOM      6  C   UNL     1      -2.304  -0.102  -0.996  0.00  0.00    +0.029 A 
ENDROOT
BRANCH   1   8
ATOM      7  C   UNL     1      -0.326   1.769   0.344  0.00  0.00    +0.047 C 
ATOM      8  C   UNL     1      -0.135   0.258   0.197  0.00  0.00    +0.135 C 
ATOM      9  C   UNL     1       0.763  -0.054  -0.983  0.00  0.00    +0.248 C 
ATOM     10  O   UNL     1       0.558   0.209  -2.149  0.00  0.00    -0.273 OA
ATOM     11  N   UNL     1       1.836  -0.686  -0.468  0.00  0.00    -0.238 N 
ATOM     12  C   UNL     1       1.742  -0.815   0.860  0.00  0.00    +0.307 C 
ATOM     13  O   UNL     1       2.589  -1.350   1.548  0.00  0.00    -0.252 OA
ATOM     14  N   UNL     1       0.606  -0.285   1.349  0.00  0.00    -0.282 N 
ATOM     15  H   UNL     1       2.584  -1.008  -0.995  0.00  0.00    +0.159 HD
ATOM     16  H   UNL     1       0.330  -0.264   2.278  0.00  0.00    +0.152 HD
ENDBRANCH   1   8
BRANCH   5  17
ATOM     17  N   UNL     1      -4.375  -0.416  -2.196  0.00  0.00    -0.281 N 
ATOM     18  C   UNL     1      -5.712  -0.452  -2.029  0.00  0.00    +0.255 C 
ATOM     19  O   UNL     1      -6.182  -0.675  -0.929  0.00  0.00    -0.269 OA
ATOM     20  H   UNL     1      -4.000  -0.163  -3.055  0.00  0.00    +0.155 HD
BRANCH  18  21
ATOM     21  C   UNL     1      -6.603  -0.222  -3.176  0.00  0.00    +0.075 A 
ATOM     22  C   UNL     1      -7.962  -0.213  -3.204  0.00  0.00    +0.029 A 
ATOM     23  C   UNL     1      -8.637   0.029  -4.415  0.00  0.00    -0.010 A 
ATOM     24  C   UNL     1     -10.036   0.078  -4.645  0.00  0.00    +0.009 A 
ATOM     25  C   UNL     1     -10.527   0.325  -5.887  0.00  0.00    +0.001 A 
ATOM     26  C   UNL     1      -9.687   0.538  -6.974  0.00  0.00    +0.001 A 
ATOM     27  C   UNL     1      -8.319   0.500  -6.793  0.00  0.00    +0.015 A 
ATOM     28  C   UNL     1      -7.806   0.250  -5.538  0.00  0.00    +0.020 A 
ATOM     29  S   UNL     1      -6.166   0.122  -4.872  0.00  0.00    -0.084 S 
ENDBRANCH  18  21
ENDBRANCH   5  17
TORSDOF 3
