REMARK  Name = ZINC06237845
REMARK  3 active torsions:
REMARK  status: ('A' for Active; 'I' for Inactive)
REMARK    1  A    between atoms: C_8  and  C_10
REMARK    2  A    between atoms: N_16  and  C_17
REMARK    3  A    between atoms: C_17  and  C_18
REMARK                            x       y       z     vdW  Elec       q    Type
REMARK                         _______ _______ _______ _____ _____    ______ ____
ROOT
ATOM      1  C   UNL     1      -4.826   2.561   0.039  0.00  0.00    +0.116 C 
ATOM      2  N   UNL     1      -5.505   1.460   0.032  0.00  0.00    -0.147 NA
ATOM      3  N   UNL     1      -6.770   1.338   0.021  0.00  0.00    -0.127 NA
ATOM      4  C   UNL     1      -7.612   2.263  -0.378  0.00  0.00    +0.176 C 
ATOM      5  S   UNL     1      -6.997   3.810  -0.968  0.00  0.00    -0.082 S 
ATOM      6  C   UNL     1      -5.497   3.913   0.049  0.00  0.00    +0.138 C 
ATOM      7  N   UNL     1      -8.964   2.029  -0.338  0.00  0.00    -0.320 N 
ATOM      8  H   UNL     1      -9.584   2.714  -0.633  0.00  0.00    +0.148 HD
ENDROOT
BRANCH   1  16
ATOM      9  C   UNL     1       1.160   1.778   0.001  0.00  0.00    +0.001 A 
ATOM     10  C   UNL     1       1.148   3.166   0.008  0.00  0.00    +0.004 A 
ATOM     11  C   UNL     1      -0.044   3.860   0.022  0.00  0.00    +0.047 A 
ATOM     12  C   UNL     1      -1.248   3.168   0.030  0.00  0.00    +0.136 A 
ATOM     13  C   UNL     1      -1.230   1.761   0.017  0.00  0.00    +0.021 A 
ATOM     14  C   UNL     1      -0.013   1.076   0.008  0.00  0.00    +0.011 A 
ATOM     15  C   UNL     1      -2.632   1.346   0.022  0.00  0.00    +0.059 A 
ATOM     16  C   UNL     1      -3.365   2.494   0.032  0.00  0.00    +0.153 A 
ATOM     17  O   UNL     1      -2.538   3.560   0.044  0.00  0.00    -0.454 OA
ENDBRANCH   1  16
BRANCH   7  18
ATOM     18  C   UNL     1      -9.470   0.744   0.151  0.00  0.00    +0.135 C 
BRANCH  18  19
ATOM     19  C   UNL     1     -10.999   0.743   0.093  0.00  0.00    +0.135 C 
ATOM     20  C   UNL     1     -11.543  -0.602   0.613  0.00  0.00    +0.035 C 
ATOM     21  C   UNL     1     -12.454  -0.209   1.801  0.00  0.00    +0.031 C 
ATOM     22  C   UNL     1     -12.763   1.278   1.495  0.00  0.00    +0.160 C 
ATOM     23  O   UNL     1     -11.522   1.776   0.945  0.00  0.00    -0.375 OA
ENDBRANCH  18  19
ENDBRANCH   7  18
TORSDOF 3
