REMARK  Name = ZINC40019150
REMARK  20 active torsions:
REMARK  status: ('A' for Active; 'I' for Inactive)
REMARK    1  A    between atoms: C_1  and  C_2
REMARK    2  A    between atoms: C_2  and  C_3
REMARK    3  A    between atoms: C_3  and  C_4
REMARK    4  A    between atoms: C_4  and  N_5
REMARK    5  A    between atoms: N_5  and  C_6
REMARK    6  A    between atoms: N_5  and  C_10
REMARK    7  A    between atoms: C_6  and  C_7
REMARK    8  A    between atoms: C_7  and  C_8
REMARK    9  A    between atoms: C_8  and  C_9
REMARK   10  A    between atoms: C_10  and  C_11
REMARK   11  A    between atoms: C_11  and  C_12
REMARK   12  A    between atoms: C_12  and  N_13
REMARK   13  A    between atoms: C_14  and  C_30
REMARK   14  A    between atoms: C_16  and  C_21
REMARK   15  A    between atoms: C_21  and  C_23
REMARK   16  A    between atoms: C_26  and  C_29
REMARK   17  A    between atoms: C_34  and  O_36
REMARK   18  A    between atoms: O_36  and  C_37
REMARK   19  A    between atoms: C_37  and  C_38
REMARK   20  A    between atoms: C_38  and  C_39
REMARK                            x       y       z     vdW  Elec       q    Type
REMARK                         _______ _______ _______ _____ _____    ______ ____
ROOT
ATOM      1  N   UNL     1      -4.879  -4.219   1.003  0.00  0.00    -0.284 N 
ATOM      2  C   UNL     1      -5.896  -4.089   2.052  0.00  0.00    +0.145 C 
ATOM      3  C   UNL     1      -7.068  -4.934   1.610  0.00  0.00    +0.076 C 
ATOM      4  C   UNL     1      -6.727  -5.482   0.420  0.00  0.00    +0.249 C 
ATOM      5  C   UNL     1      -5.370  -5.030   0.049  0.00  0.00    +0.288 C 
ATOM      6  O   UNL     1      -4.784  -5.345  -0.968  0.00  0.00    -0.266 OA
ATOM      7  O   UNL     1      -7.506  -6.309  -0.314  0.00  0.00    -0.282 OA
ENDROOT
BRANCH   2   8
ATOM      8  C   UNL     1      -6.317  -2.648   2.190  0.00  0.00    -0.019 A 
ATOM      9  C   UNL     1      -6.644  -1.914   1.065  0.00  0.00    +0.006 A 
ATOM     10  C   UNL     1      -7.031  -0.592   1.188  0.00  0.00    +0.004 A 
ATOM     11  C   UNL     1      -7.090  -0.002   2.436  0.00  0.00    +0.045 A 
ATOM     12  C   UNL     1      -6.763  -0.737   3.566  0.00  0.00    +0.121 A 
ATOM     13  C   UNL     1      -6.381  -2.065   3.440  0.00  0.00    +0.051 A 
BRANCH  12  14
ATOM     14  O   UNL     1      -6.821  -0.158   4.794  0.00  0.00    -0.492 OA
BRANCH  14  15
ATOM     15  C   UNL     1      -7.228   1.211   4.848  0.00  0.00    +0.229 C 
BRANCH  15  16
ATOM     16  C   UNL     1      -7.233   1.684   6.303  0.00  0.00    +0.038 C 
ATOM     17  C   UNL     1      -7.668   3.150   6.361  0.00  0.00    +0.007 C 
ENDBRANCH  15  16
ENDBRANCH  14  15
ENDBRANCH  12  14
ENDBRANCH   2   8
BRANCH   3  18
ATOM     18  C   UNL     1      -8.331  -5.123   2.330  0.00  0.00    +0.195 C 
ATOM     19  O   UNL     1      -9.368  -4.690   1.863  0.00  0.00    -0.287 OA
BRANCH  18  20
ATOM     20  C   UNL     1      -8.345  -5.839   3.623  0.00  0.00    +0.022 A 
ATOM     21  C   UNL     1      -7.165  -6.381   4.137  0.00  0.00    +0.012 A 
ATOM     22  C   UNL     1      -7.185  -7.048   5.345  0.00  0.00    +0.004 A 
ATOM     23  C   UNL     1      -8.370  -7.179   6.047  0.00  0.00    -0.050 A 
ATOM     24  C   UNL     1      -9.543  -6.644   5.543  0.00  0.00    +0.004 A 
ATOM     25  C   UNL     1      -9.536  -5.970   4.340  0.00  0.00    +0.012 A 
ATOM     26  C   UNL     1      -8.384  -7.909   7.365  0.00  0.00    +0.044 C 
ENDBRANCH  18  20
ENDBRANCH   3  18
BRANCH   1  27
ATOM     27  C   UNL     1      -3.563  -3.576   0.994  0.00  0.00    +0.107 C 
BRANCH  27  28
ATOM     28  C   UNL     1      -3.667  -2.210   0.311  0.00  0.00    +0.000 C 
BRANCH  28  29
ATOM     29  C   UNL     1      -2.293  -1.538   0.302  0.00  0.00    -0.077 C 
BRANCH  29  30
ATOM     30  N   UNL     1      -2.365  -0.288  -0.466  0.00  0.00    +0.380 N 
ATOM     31  H   UNL     1      -2.741  -0.477  -1.383  0.00  0.00    -0.082 HD
BRANCH  30  32
ATOM     32  C   UNL     1      -1.018   0.283  -0.598  0.00  0.00    -0.079 C 
BRANCH  32  33
ATOM     33  C   UNL     1      -0.150  -0.648  -1.447  0.00  0.00    -0.019 C 
BRANCH  33  34
ATOM     34  C   UNL     1       1.264  -0.073  -1.552  0.00  0.00    -0.005 C 
ATOM     35  C   UNL     1       2.132  -1.004  -2.401  0.00  0.00    +0.004 C 
ENDBRANCH  33  34
ENDBRANCH  32  33
ENDBRANCH  30  32
BRANCH  30  36
ATOM     36  C   UNL     1      -3.235   0.667   0.233  0.00  0.00    -0.079 C 
BRANCH  36  37
ATOM     37  C   UNL     1      -3.410   1.921  -0.626  0.00  0.00    -0.019 C 
BRANCH  37  39
ATOM     38  C   UNL     1      -4.491   4.170  -0.757  0.00  0.00    +0.004 C 
ATOM     39  C   UNL     1      -4.316   2.916   0.102  0.00  0.00    -0.005 C 
ENDBRANCH  37  39
ENDBRANCH  36  37
ENDBRANCH  30  36
ENDBRANCH  29  30
ENDBRANCH  28  29
ENDBRANCH  27  28
ENDBRANCH   1  27
TORSDOF 16
