REMARK  Name = ZINC07440979
REMARK  8 active torsions:
REMARK  status: ('A' for Active; 'I' for Inactive)
REMARK    1  A    between atoms: C_1  and  C_2
REMARK    2  A    between atoms: C_2  and  C_4
REMARK    3  A    between atoms: C_2  and  O_15
REMARK    4  A    between atoms: N_6  and  C_7
REMARK    5  A    between atoms: C_7  and  C_13
REMARK    6  A    between atoms: O_15  and  C_16
REMARK    7  A    between atoms: C_16  and  C_18
REMARK    8  A    between atoms: C_21  and  C_24
REMARK                            x       y       z     vdW  Elec       q    Type
REMARK                         _______ _______ _______ _____ _____    ______ ____
ROOT
ATOM      1  O   UNL     1       1.349   1.588  -0.002  0.00  0.00    -0.449 OA
ENDROOT
BRANCH   1   3
ATOM      2  C   UNL     1      -0.753   1.593  -1.232  0.00  0.00    +0.062 C 
ATOM      3  C   UNL     1      -0.013   1.086   0.008  0.00  0.00    +0.259 C 
BRANCH   3   4
ATOM      4  C   UNL     1      -0.718   1.572   1.248  0.00  0.00    +0.255 C 
ATOM      5  O   UNL     1      -0.162   2.345   1.998  0.00  0.00    -0.272 OA
ATOM      6  N   UNL     1      -1.967   1.147   1.523  0.00  0.00    -0.294 N 
ATOM      7  H   UNL     1      -2.412   0.528   0.923  0.00  0.00    +0.150 HD
BRANCH   6   8
ATOM      8  C   UNL     1      -2.653   1.619   2.728  0.00  0.00    +0.121 C 
ATOM      9  C   UNL     1      -1.845   1.219   3.965  0.00  0.00    +0.041 C 
ATOM     10  C   UNL     1      -2.562   1.712   5.223  0.00  0.00    +0.003 C 
ATOM     11  C   UNL     1      -3.954   1.083   5.298  0.00  0.00    +0.000 C 
ATOM     12  C   UNL     1      -4.761   1.483   4.061  0.00  0.00    +0.003 C 
ATOM     13  C   UNL     1      -4.045   0.990   2.803  0.00  0.00    +0.041 C 
BRANCH   8  14
ATOM     14  C   UNL     1      -2.779   3.085   2.678  0.00  0.00    +0.088 C 
ATOM     15  N   UNL     1      -2.876   4.216   2.640  0.00  0.00    -0.194 NA
ENDBRANCH   8  14
ENDBRANCH   6   8
ENDBRANCH   3   4
ENDBRANCH   1   3
BRANCH   1  16
ATOM     16  C   UNL     1       2.277   0.828  -0.616  0.00  0.00    +0.340 C 
ATOM     17  O   UNL     1       1.957  -0.226  -1.128  0.00  0.00    -0.245 OA
BRANCH  16  18
ATOM     18  C   UNL     1       3.683   1.276  -0.665  0.00  0.00    +0.059 A 
ATOM     19  C   UNL     1       4.051   2.491  -0.081  0.00  0.00    +0.015 A 
ATOM     20  C   UNL     1       5.363   2.905  -0.124  0.00  0.00    +0.009 A 
ATOM     21  C   UNL     1       6.324   2.116  -0.758  0.00  0.00    -0.018 A 
ATOM     22  C   UNL     1       5.957   0.906  -1.347  0.00  0.00    +0.009 A 
ATOM     23  C   UNL     1       4.646   0.487  -1.301  0.00  0.00    +0.015 A 
BRANCH  21  24
ATOM     24  C   UNL     1       7.736   2.566  -0.808  0.00  0.00    -0.018 A 
ATOM     25  C   UNL     1       8.699   1.779  -1.437  0.00  0.00    +0.008 A 
ATOM     26  C   UNL     1      10.011   2.205  -1.485  0.00  0.00    +0.001 A 
ATOM     27  C   UNL     1      10.372   3.406  -0.901  0.00  0.00    +0.000 A 
ATOM     28  C   UNL     1       9.422   4.189  -0.271  0.00  0.00    +0.001 A 
ATOM     29  C   UNL     1       8.106   3.775  -0.221  0.00  0.00    +0.008 A 
ENDBRANCH  21  24
ENDBRANCH  16  18
ENDBRANCH   1  16
TORSDOF 7
