REMARK  Name = ZINC66559369
REMARK  10 active torsions:
REMARK  status: ('A' for Active; 'I' for Inactive)
REMARK    1  A    between atoms: C_1  and  C_2
REMARK    2  A    between atoms: C_2  and  C_3
REMARK    3  A    between atoms: C_3  and  C_4
REMARK    4  A    between atoms: C_4  and  N_5
REMARK    5  A    between atoms: N_5  and  C_6
REMARK    6  A    between atoms: N_5  and  C_21
REMARK    7  A    between atoms: C_6  and  C_7
REMARK    8  A    between atoms: N_12  and  C_13
REMARK    9  A    between atoms: C_16  and  C_20
REMARK   10  A    between atoms: C_17  and  C_19
REMARK                            x       y       z     vdW  Elec       q    Type
REMARK                         _______ _______ _______ _____ _____    ______ ____
ROOT
ATOM      1  C   UNL     1       2.237  -4.771   3.065  0.00  0.00    +0.204 C 
ATOM      2  O   UNL     1       2.573  -4.238   4.101  0.00  0.00    -0.277 OA
ATOM      3  N   UNL     1       2.468  -6.085   2.876  0.00  0.00    -0.241 N 
ATOM      4  C   UNL     1       3.074  -6.807   3.839  0.00  0.00    +0.310 C 
ATOM      5  O   UNL     1       3.411  -6.274   4.878  0.00  0.00    -0.252 OA
ATOM      6  N   UNL     1       3.306  -8.122   3.651  0.00  0.00    -0.269 N 
ATOM      7  H   UNL     1       2.199  -6.511   2.047  0.00  0.00    +0.159 HD
ATOM      8  H   UNL     1       3.104  -8.532   2.795  0.00  0.00    +0.156 HD
ENDROOT
BRANCH   6   9
ATOM      9  C   UNL     1       3.838  -8.894   4.689  0.00  0.00    +0.035 A 
ATOM     10  C   UNL     1       3.495  -8.620   6.006  0.00  0.00    +0.023 A 
ATOM     11  C   UNL     1       4.022  -9.384   7.029  0.00  0.00    +0.005 A 
ATOM     12  C   UNL     1       4.890 -10.422   6.742  0.00  0.00    -0.047 A 
ATOM     13  C   UNL     1       5.234 -10.697   5.431  0.00  0.00    -0.046 A 
ATOM     14  C   UNL     1       4.705  -9.941   4.403  0.00  0.00    +0.027 A 
ATOM     15  C   UNL     1       6.181 -11.828   5.123  0.00  0.00    +0.044 C 
ATOM     16  C   UNL     1       5.464 -11.254   7.860  0.00  0.00    +0.044 C 
ENDBRANCH   6   9
BRANCH   1  17
ATOM     17  C   UNL     1       1.559  -3.963   1.988  0.00  0.00    +0.019 C 
BRANCH  17  18
ATOM     18  N   UNL     1       1.250  -2.622   2.503  0.00  0.00    +0.388 N 
ATOM     19  H   UNL     1       1.978  -2.329   3.137  0.00  0.00    -0.081 HD
BRANCH  18  20
ATOM     20  C   UNL     1      -0.035  -2.656   3.215  0.00  0.00    -0.045 C 
ATOM     21  C   UNL     1      -0.461  -1.225   3.586  0.00  0.00    +0.009 C 
ATOM     22  C   UNL     1      -1.629  -1.269   4.600  0.00  0.00    +0.164 C 
ATOM     23  S   UNL     1      -1.346  -2.863   5.473  0.00  0.00    -0.033 S 
ATOM     24  O   UNL     1      -2.449  -3.726   5.228  0.00  0.00    -0.174 OA
ATOM     25  O   UNL     1      -0.953  -2.594   6.812  0.00  0.00    -0.174 OA
ATOM     26  C   UNL     1       0.114  -3.473   4.530  0.00  0.00    +0.151 C 
ENDBRANCH  18  20
BRANCH  18  27
ATOM     27  C   UNL     1       1.165  -1.675   1.383  0.00  0.00    -0.078 C 
BRANCH  27  28
ATOM     28  C   UNL     1       1.494  -0.266   1.881  0.00  0.00    -0.019 C 
BRANCH  28  30
ATOM     29  C   UNL     1       1.808   2.117   1.200  0.00  0.00    +0.004 C 
ATOM     30  C   UNL     1       1.479   0.708   0.702  0.00  0.00    -0.005 C 
ENDBRANCH  28  30
ENDBRANCH  27  28
ENDBRANCH  18  27
ENDBRANCH  17  18
ENDBRANCH   1  17
TORSDOF 7
