REMARK  Name = ZINC63385754
REMARK  6 active torsions:
REMARK  status: ('A' for Active; 'I' for Inactive)
REMARK    1  A    between atoms: C_1  and  C_2
REMARK    2  A    between atoms: C_2  and  C_3
REMARK    3  A    between atoms: C_16  and  C_19
REMARK    4  A    between atoms: N_23  and  C_26
REMARK    5  A    between atoms: C_29  and  O_32
REMARK    6  A    between atoms: O_32  and  C_33
REMARK                            x       y       z     vdW  Elec       q    Type
REMARK                         _______ _______ _______ _____ _____    ______ ____
ROOT
ATOM      1  C   UNL     1       0.927   2.240  -0.758  0.00  0.00    -0.067 C 
ATOM      2  C   UNL     1       0.195   0.989  -0.239  0.00  0.00    +0.018 C 
ATOM      3  C   UNL     1       0.613  -0.145  -1.142  0.00  0.00    -0.041 C 
ATOM      4  C   UNL     1      -0.073  -1.074  -1.790  0.00  0.00    -0.001 A 
ATOM      5  C   UNL     1      -1.499  -1.440  -1.763  0.00  0.00    +0.010 A 
ATOM      6  C   UNL     1      -1.875  -2.446  -2.595  0.00  0.00    +0.001 A 
ATOM      7  C   UNL     1      -0.988  -3.118  -3.442  0.00  0.00    +0.002 A 
ATOM      8  C   UNL     1       0.341  -2.855  -3.523  0.00  0.00    +0.026 A 
ATOM      9  C   UNL     1       0.859  -1.824  -2.688  0.00  0.00    +0.043 A 
ATOM     10  N   UNL     1       2.077  -1.391  -2.542  0.00  0.00    -0.379 N 
ATOM     11  C   UNL     1       2.081  -0.379  -1.489  0.00  0.00    +0.097 C 
ATOM     12  C   UNL     1       2.625   0.972  -1.957  0.00  0.00    -0.003 C 
ATOM     13  N   UNL     1       2.359   1.964  -0.904  0.00  0.00    +0.387 N 
ATOM     14  H   UNL     1       2.836   2.822  -1.136  0.00  0.00    -0.085 HD
ATOM     15  H   UNL     1       2.850  -1.690  -3.045  0.00  0.00    +0.160 HD
ATOM     16  H   UNL     1       2.717   1.619  -0.026  0.00  0.00    -0.085 HD
ENDROOT
BRANCH  12  17
ATOM     17  C   UNL     1       4.110   0.867  -2.194  0.00  0.00    +0.070 A 
ATOM     18  C   UNL     1       4.623   1.024  -3.447  0.00  0.00    +0.259 A 
ATOM     19  N   UNL     1       5.977   0.925  -3.640  0.00  0.00    -0.274 N 
ATOM     20  C   UNL     1       6.797   0.674  -2.602  0.00  0.00    +0.337 A 
ATOM     21  N   UNL     1       6.310   0.516  -1.358  0.00  0.00    -0.229 N 
ATOM     22  C   UNL     1       4.986   0.611  -1.124  0.00  0.00    +0.266 A 
ATOM     23  O   UNL     1       4.550   0.471   0.005  0.00  0.00    -0.267 OA
ATOM     24  O   UNL     1       7.995   0.589  -2.792  0.00  0.00    -0.246 OA
ATOM     25  O   UNL     1       3.804   1.276  -4.491  0.00  0.00    -0.267 OA
ATOM     26  H   UNL     1       6.347   1.036  -4.530  0.00  0.00    +0.173 HD
BRANCH  21  27
ATOM     27  C   UNL     1       7.187   0.255  -0.295  0.00  0.00    +0.055 A 
ATOM     28  C   UNL     1       7.736   1.307   0.427  0.00  0.00    +0.030 A 
ATOM     29  C   UNL     1       8.599   1.050   1.473  0.00  0.00    +0.047 A 
ATOM     30  C   UNL     1       8.918  -0.260   1.804  0.00  0.00    +0.120 A 
ATOM     31  C   UNL     1       8.370  -1.311   1.083  0.00  0.00    +0.047 A 
ATOM     32  C   UNL     1       7.503  -1.055   0.040  0.00  0.00    +0.030 A 
BRANCH  30  33
ATOM     33  O   UNL     1       9.769  -0.512   2.834  0.00  0.00    -0.495 OA
ATOM     34  C   UNL     1      10.054  -1.883   3.119  0.00  0.00    +0.277 C 
ENDBRANCH  30  33
ENDBRANCH  21  27
ENDBRANCH  12  17
BRANCH   1  36
ATOM     35  C   UNL     1       1.343   4.668  -0.343  0.00  0.00    +0.002 C 
ATOM     36  C   UNL     1       0.731   3.389   0.232  0.00  0.00    -0.019 C 
ENDBRANCH   1  36
TORSDOF 4
