REMARK  Name = ZINC59112817
REMARK  20 active torsions:
REMARK  status: ('A' for Active; 'I' for Inactive)
REMARK    1  A    between atoms: C_1  and  C_2
REMARK    2  A    between atoms: C_2  and  C_3
REMARK    3  A    between atoms: C_3  and  C_4
REMARK    4  A    between atoms: C_4  and  C_5
REMARK    5  A    between atoms: C_8  and  N_11
REMARK    6  A    between atoms: N_11  and  C_12
REMARK    7  A    between atoms: C_12  and  N_14
REMARK    8  A    between atoms: N_14  and  C_15
REMARK    9  A    between atoms: C_15  and  C_16
REMARK   10  A    between atoms: C_16  and  C_17
REMARK   11  A    between atoms: C_16  and  C_18
REMARK   12  A    between atoms: C_16  and  C_19
REMARK   13  A    between atoms: C_19  and  N_20
REMARK   14  A    between atoms: N_20  and  C_21
REMARK   15  A    between atoms: C_21  and  N_23
REMARK   16  A    between atoms: N_23  and  C_24
REMARK   17  A    between atoms: C_27  and  C_30
REMARK   18  A    between atoms: C_30  and  C_31
REMARK   19  A    between atoms: C_31  and  C_32
REMARK   20  A    between atoms: C_32  and  C_33
REMARK                            x       y       z     vdW  Elec       q    Type
REMARK                         _______ _______ _______ _____ _____    ______ ____
ROOT
ATOM      1  C   UNL     1     -10.817  -5.657  -1.954  0.00  0.00    -0.004 C 
ATOM      2  C   UNL     1     -11.091  -6.849  -1.034  0.00  0.00    +0.014 C 
ATOM      3  C   UNL     1     -11.313  -4.373  -1.286  0.00  0.00    +0.014 C 
ENDROOT
BRANCH   1   4
ATOM      4  C   UNL     1      -9.313  -5.548  -2.213  0.00  0.00    +0.111 C 
BRANCH   4   5
ATOM      5  N   UNL     1      -8.611  -5.356  -0.941  0.00  0.00    -0.326 N 
ATOM      6  H   UNL     1      -9.112  -5.317  -0.112  0.00  0.00    +0.148 HD
BRANCH   5   7
ATOM      7  C   UNL     1      -7.269  -5.234  -0.924  0.00  0.00    +0.135 C 
ATOM      8  S   UNL     1      -6.384  -5.303  -2.389  0.00  0.00    -0.019 S 
BRANCH   7   9
ATOM      9  N   UNL     1      -6.623  -5.057   0.245  0.00  0.00    -0.297 N 
ATOM     10  H   UNL     1      -7.113  -5.101   1.081  0.00  0.00    +0.154 HD
BRANCH   9  14
ATOM     11  C   UNL     1      -2.522  -4.322   0.271  0.00  0.00    -0.047 A 
ATOM     12  C   UNL     1      -3.326  -3.715  -0.677  0.00  0.00    +0.005 A 
ATOM     13  C   UNL     1      -4.686  -3.957  -0.688  0.00  0.00    +0.023 A 
ATOM     14  C   UNL     1      -5.246  -4.810   0.254  0.00  0.00    +0.033 A 
ATOM     15  C   UNL     1      -4.436  -5.418   1.205  0.00  0.00    +0.023 A 
ATOM     16  C   UNL     1      -3.076  -5.176   1.207  0.00  0.00    +0.005 A 
BRANCH  11  17
ATOM     17  C   UNL     1      -1.039  -4.056   0.280  0.00  0.00    +0.035 C 
BRANCH  17  18
ATOM     18  C   UNL     1      -0.332  -5.079  -0.611  0.00  0.00    +0.004 C 
BRANCH  18  20
ATOM     19  C   UNL     1       1.881  -5.832  -1.493  0.00  0.00    +0.004 C 
ATOM     20  C   UNL     1       1.174  -4.809  -0.602  0.00  0.00    -0.003 C 
ENDBRANCH  18  20
ENDBRANCH  17  18
ENDBRANCH  11  17
ENDBRANCH   9  14
ENDBRANCH   7   9
ENDBRANCH   5   7
ENDBRANCH   4   5
ENDBRANCH   1   4
BRANCH   1  21
ATOM     21  C   UNL     1     -11.550  -5.858  -3.282  0.00  0.00    +0.111 C 
BRANCH  21  22
ATOM     22  N   UNL     1     -12.990  -5.962  -3.034  0.00  0.00    -0.326 N 
ATOM     23  H   UNL     1     -13.332  -5.900  -2.128  0.00  0.00    +0.148 HD
BRANCH  22  24
ATOM     24  C   UNL     1     -13.840  -6.143  -4.064  0.00  0.00    +0.135 C 
ATOM     25  S   UNL     1     -13.236  -6.251  -5.662  0.00  0.00    -0.019 S 
BRANCH  24  26
ATOM     26  N   UNL     1     -15.165  -6.238  -3.836  0.00  0.00    -0.297 N 
ATOM     27  H   UNL     1     -15.514  -6.095  -2.942  0.00  0.00    +0.154 HD
BRANCH  26  28
ATOM     28  C   UNL     1     -16.035  -6.545  -4.887  0.00  0.00    +0.033 A 
ATOM     29  C   UNL     1     -15.684  -7.509  -5.822  0.00  0.00    +0.023 A 
ATOM     30  C   UNL     1     -16.546  -7.810  -6.859  0.00  0.00    +0.005 A 
ATOM     31  C   UNL     1     -17.757  -7.152  -6.966  0.00  0.00    -0.047 A 
ATOM     32  C   UNL     1     -18.110  -6.191  -6.036  0.00  0.00    +0.005 A 
ATOM     33  C   UNL     1     -17.255  -5.890  -4.994  0.00  0.00    +0.023 A 
BRANCH  31  34
ATOM     34  C   UNL     1     -18.695  -7.483  -8.098  0.00  0.00    +0.035 C 
BRANCH  34  35
ATOM     35  C   UNL     1     -19.636  -8.610  -7.669  0.00  0.00    +0.004 C 
BRANCH  35  36
ATOM     36  C   UNL     1     -20.588  -8.946  -8.819  0.00  0.00    -0.003 C 
ATOM     37  C   UNL     1     -21.528 -10.073  -8.389  0.00  0.00    +0.004 C 
ENDBRANCH  35  36
ENDBRANCH  34  35
ENDBRANCH  31  34
ENDBRANCH  26  28
ENDBRANCH  24  26
ENDBRANCH  22  24
ENDBRANCH  21  22
ENDBRANCH   1  21
TORSDOF 16
