REMARK  Name = ZINC39700611
REMARK  9 active torsions:
REMARK  status: ('A' for Active; 'I' for Inactive)
REMARK    1  A    between atoms: C_1  and  C_2
REMARK    2  A    between atoms: C_2  and  N_3
REMARK    3  A    between atoms: N_3  and  C_4
REMARK    4  A    between atoms: N_3  and  S_6
REMARK    5  A    between atoms: C_4  and  C_5
REMARK    6  A    between atoms: S_6  and  C_9
REMARK    7  A    between atoms: C_14  and  C_17
REMARK    8  A    between atoms: C_18  and  C_19
REMARK    9  A    between atoms: N_30  and  C_31
REMARK                            x       y       z     vdW  Elec       q    Type
REMARK                         _______ _______ _______ _____ _____    ______ ____
ROOT
ATOM      1  C   UNL     1       1.974   3.332  -7.343  0.00  0.00    +0.009 C 
ATOM      2  C   UNL     1       2.993   4.008  -7.860  0.00  0.00    +0.016 C 
ENDROOT
BRANCH   2   3
ATOM      3  C   UNL     1       4.403   3.517  -7.654  0.00  0.00    +0.190 C 
ATOM      4  N   UNL     1       5.175   4.541  -6.941  0.00  0.00    -0.322 N 
ATOM      5  C   UNL     1       5.624   5.653  -7.645  0.00  0.00    +0.041 A 
ATOM      6  C   UNL     1       5.815   6.878  -7.028  0.00  0.00    +0.024 A 
ATOM      7  C   UNL     1       6.273   7.952  -7.767  0.00  0.00    +0.002 A 
ATOM      8  C   UNL     1       6.542   7.812  -9.120  0.00  0.00    +0.001 A 
ATOM      9  C   UNL     1       6.353   6.600  -9.750  0.00  0.00    +0.015 A 
ATOM     10  C   UNL     1       5.887   5.510  -9.018  0.00  0.00    +0.058 A 
ATOM     11  C   UNL     1       5.646   4.202  -9.651  0.00  0.00    +0.254 C 
ATOM     12  O   UNL     1       6.016   3.994 -10.790  0.00  0.00    -0.270 OA
ATOM     13  N   UNL     1       5.014   3.240  -8.955  0.00  0.00    -0.245 N 
ATOM     14  H   UNL     1       5.368   4.444  -5.995  0.00  0.00    +0.148 HD
BRANCH  13  15
ATOM     15  C   UNL     1       4.938   1.950  -9.489  0.00  0.00    +0.039 A 
ATOM     16  C   UNL     1       3.883   1.602 -10.323  0.00  0.00    +0.023 A 
ATOM     17  C   UNL     1       3.812   0.327 -10.849  0.00  0.00    +0.002 A 
ATOM     18  C   UNL     1       4.789  -0.603 -10.546  0.00  0.00    +0.000 A 
ATOM     19  C   UNL     1       5.840  -0.260  -9.716  0.00  0.00    +0.002 A 
ATOM     20  C   UNL     1       5.921   1.015  -9.191  0.00  0.00    +0.023 A 
ENDBRANCH  13  15
ENDBRANCH   2   3
BRANCH   1  26
ATOM     21  C   UNL     1      -2.323   1.708  -5.958  0.00  0.00    +0.087 C 
ATOM     22  C   UNL     1      -3.258   2.548  -6.425  0.00  0.00    +0.026 C 
ATOM     23  C   UNL     1      -2.943   3.684  -7.181  0.00  0.00    +0.029 C 
ATOM     24  C   UNL     1      -1.639   4.034  -7.510  0.00  0.00    +0.068 C 
ATOM     25  C   UNL     1      -0.562   3.225  -7.075  0.00  0.00    -0.008 C 
ATOM     26  C   UNL     1       0.592   3.812  -7.544  0.00  0.00    -0.002 C 
ATOM     27  C   UNL     1       0.192   4.969  -8.258  0.00  0.00    +0.119 C 
ATOM     28  N   UNL     1      -1.113   5.066  -8.217  0.00  0.00    -0.255 NA
ATOM     29  C   UNL     1      -0.865   1.998  -6.253  0.00  0.00    +0.094 C 
BRANCH  21  30
ATOM     30  S   UNL     1      -2.781   0.294  -5.011  0.00  0.00    +0.057 S 
ATOM     31  O   UNL     1      -1.918  -0.760  -5.412  0.00  0.00    -0.153 OA
ATOM     32  O   UNL     1      -4.196   0.193  -5.091  0.00  0.00    -0.153 OA
BRANCH  30  33
ATOM     33  N   UNL     1      -2.420   0.626  -3.429  0.00  0.00    -0.177 NA
BRANCH  33  35
ATOM     34  C   UNL     1      -3.199   2.773  -2.554  0.00  0.00    +0.022 C 
ATOM     35  C   UNL     1      -3.420   1.259  -2.566  0.00  0.00    +0.106 C 
ENDBRANCH  33  35
BRANCH  33  36
ATOM     36  C   UNL     1      -1.099   0.287  -2.893  0.00  0.00    +0.106 C 
ATOM     37  C   UNL     1      -1.161  -1.081  -2.211  0.00  0.00    +0.022 C 
ENDBRANCH  33  36
ENDBRANCH  30  33
ENDBRANCH  21  30
ENDBRANCH   1  26
TORSDOF 7
