REMARK  Name = ZINC23858128
REMARK  9 active torsions:
REMARK  status: ('A' for Active; 'I' for Inactive)
REMARK    1  A    between atoms: C_1  and  N_2
REMARK    2  A    between atoms: C_9  and  C_11
REMARK    3  A    between atoms: C_11  and  C_13
REMARK    4  A    between atoms: C_11  and  N_32
REMARK    5  A    between atoms: C_13  and  N_14
REMARK    6  A    between atoms: C_15  and  C_17
REMARK    7  A    between atoms: N_19  and  C_20
REMARK    8  A    between atoms: C_20  and  C_21
REMARK    9  A    between atoms: C_21  and  C_22
REMARK                            x       y       z     vdW  Elec       q    Type
REMARK                         _______ _______ _______ _____ _____    ______ ____
ROOT
ATOM      1  N   UNL     1      -5.590   6.918  -1.622  0.00  0.00    -0.309 N 
ATOM      2  C   UNL     1      -6.924   6.826  -1.791  0.00  0.00    +0.299 C 
ATOM      3  O   UNL     1      -7.507   5.809  -1.476  0.00  0.00    -0.265 OA
ATOM      4  H   UNL     1      -5.061   7.839  -1.907  0.00  0.00    +0.149 HD
ENDROOT
BRANCH   2   5
ATOM      5  C   UNL     1      -7.685   7.976  -2.367  0.00  0.00    +0.299 C 
ATOM      6  O   UNL     1      -7.102   8.993  -2.682  0.00  0.00    -0.265 OA
ATOM      7  N   UNL     1      -9.019   7.885  -2.537  0.00  0.00    -0.307 N 
ATOM      8  H   UNL     1      -9.547   6.963  -2.251  0.00  0.00    +0.149 HD
BRANCH   7   9
ATOM      9  C   UNL     1      -9.765   9.012  -3.101  0.00  0.00    +0.109 C 
BRANCH   9  10
ATOM     10  C   UNL     1     -11.249   8.651  -3.186  0.00  0.00    +0.056 C 
BRANCH  10  11
ATOM     11  C   UNL     1     -12.016   9.810  -3.767  0.00  0.00    -0.021 A 
ATOM     12  C   UNL     1     -12.660  10.767  -3.079  0.00  0.00    +0.087 A 
ATOM     13  N   UNL     1     -13.240  11.654  -3.944  0.00  0.00    -0.360 N 
ATOM     14  H   UNL     1     -13.807  12.512  -3.554  0.00  0.00    +0.165 HD
ATOM     15  C   UNL     1     -12.984  11.276  -5.243  0.00  0.00    +0.047 A 
ATOM     16  C   UNL     1     -12.206  10.105  -5.189  0.00  0.00    +0.003 A 
ATOM     17  C   UNL     1     -11.791   9.489  -6.371  0.00  0.00    +0.010 A 
ATOM     18  C   UNL     1     -12.143  10.028  -7.577  0.00  0.00    +0.001 A 
ATOM     19  C   UNL     1     -12.911  11.183  -7.635  0.00  0.00    +0.002 A 
ATOM     20  C   UNL     1     -13.331  11.807  -6.481  0.00  0.00    +0.026 A 
ENDBRANCH  10  11
ENDBRANCH   9  10
ENDBRANCH   7   9
ENDBRANCH   2   5
BRANCH   1  21
ATOM     21  C   UNL     1      -4.844   5.790  -1.057  0.00  0.00    +0.094 C 
BRANCH  21  22
ATOM     22  C   UNL     1      -3.346   6.098  -1.097  0.00  0.00    -0.020 C 
BRANCH  22  31
ATOM     23  C   UNL     1       0.328   1.843   2.105  0.00  0.00    +0.129 C 
ATOM     24  N   UNL     1      -0.390   1.659   0.836  0.00  0.00    -0.332 N 
ATOM     25  C   UNL     1       0.555   1.440  -0.281  0.00  0.00    +0.109 C 
ATOM     26  C   UNL     1      -0.192   2.055  -1.487  0.00  0.00    +0.056 C 
ATOM     27  C   UNL     1      -1.104   3.074  -0.834  0.00  0.00    -0.025 A 
ATOM     28  C   UNL     1      -1.166   2.786   0.524  0.00  0.00    +0.033 A 
ATOM     29  C   UNL     1      -1.943   3.593   1.354  0.00  0.00    +0.023 A 
ATOM     30  C   UNL     1      -2.642   4.659   0.827  0.00  0.00    +0.004 A 
ATOM     31  C   UNL     1      -2.578   4.934  -0.526  0.00  0.00    -0.059 A 
ATOM     32  C   UNL     1      -1.808   4.139  -1.356  0.00  0.00    +0.007 A 
ENDBRANCH  22  31
BRANCH  22  33
ATOM     33  N   UNL     1      -3.073   7.302  -0.300  0.00  0.00    +0.385 N 
ATOM     34  C   UNL     1      -1.692   7.301   0.199  0.00  0.00    -0.078 C 
ATOM     35  C   UNL     1      -1.399   8.631   0.897  0.00  0.00    -0.019 C 
ATOM     36  C   UNL     1      -2.381   8.819   2.057  0.00  0.00    -0.004 C 
ATOM     37  C   UNL     1      -3.813   8.768   1.517  0.00  0.00    -0.019 C 
ATOM     38  C   UNL     1      -4.035   7.434   0.801  0.00  0.00    -0.078 C 
ATOM     39  H   UNL     1      -3.192   8.178  -0.956  0.00  0.00    -0.081 HD
ENDBRANCH  22  33
ENDBRANCH  21  22
ENDBRANCH   1  21
TORSDOF 8
