REMARK  Name = ZINC39560919
REMARK  8 active torsions:
REMARK  status: ('A' for Active; 'I' for Inactive)
REMARK    1  A    between atoms: C_1  and  O_2
REMARK    2  A    between atoms: O_2  and  C_3
REMARK    3  A    between atoms: C_3  and  C_5
REMARK    4  A    between atoms: C_20  and  C_30
REMARK    5  A    between atoms: C_23  and  N_26
REMARK    6  A    between atoms: N_26  and  C_27
REMARK    7  A    between atoms: C_27  and  C_28
REMARK    8  A    between atoms: C_28  and  O_29
REMARK                            x       y       z     vdW  Elec       q    Type
REMARK                         _______ _______ _______ _____ _____    ______ ____
ROOT
ATOM      1  C   UNL     1      -1.178  -1.735   0.243  0.00  0.00    +0.172 C 
ATOM      2  C   UNL     1      -0.427  -2.018  -1.066  0.00  0.00    +0.067 C 
ATOM      3  C   UNL     1      -1.339  -1.654  -2.211  0.00  0.00    -0.017 C 
ATOM      4  C   UNL     1      -1.058  -1.458  -3.508  0.00  0.00    -0.013 C 
ATOM      5  C   UNL     1       0.243  -1.535  -4.255  0.00  0.00    +0.064 C 
ATOM      6  C   UNL     1       0.014  -1.226  -5.707  0.00  0.00    -0.022 C 
ATOM      7  C   UNL     1      -1.164  -0.928  -6.244  0.00  0.00    -0.002 C 
ATOM      8  C   UNL     1      -2.365  -0.865  -5.507  0.00  0.00    +0.028 C 
ATOM      9  C   UNL     1      -2.296  -1.133  -4.141  0.00  0.00    +0.068 C 
ATOM     10  N   UNL     1      -3.257  -1.149  -3.205  0.00  0.00    -0.250 NA
ATOM     11  C   UNL     1      -2.729  -1.456  -2.048  0.00  0.00    +0.063 C 
ATOM     12  C   UNL     1      -3.415  -1.601  -0.712  0.00  0.00    +0.106 C 
ATOM     13  N   UNL     1      -2.514  -2.336   0.188  0.00  0.00    -0.274 NA
ATOM     14  C   UNL     1      -3.106  -2.466   1.525  0.00  0.00    +0.090 C 
ATOM     15  C   UNL     1      -4.402  -3.275   1.429  0.00  0.00    +0.008 C 
ATOM     16  C   UNL     1      -5.375  -2.568   0.482  0.00  0.00    -0.068 C 
ATOM     17  C   UNL     1      -4.722  -2.377  -0.885  0.00  0.00    +0.009 C 
ENDROOT
BRANCH  14  18
ATOM     18  C   UNL     1      -2.137  -3.173   2.437  0.00  0.00    +0.005 A 
ATOM     19  C   UNL     1      -1.893  -2.678   3.704  0.00  0.00    +0.008 A 
ATOM     20  C   UNL     1      -1.005  -3.327   4.541  0.00  0.00    +0.000 A 
ATOM     21  C   UNL     1      -0.359  -4.471   4.112  0.00  0.00    +0.003 A 
ATOM     22  C   UNL     1      -0.601  -4.968   2.845  0.00  0.00    +0.038 A 
ATOM     23  C   UNL     1      -1.495  -4.322   2.008  0.00  0.00    +0.128 A 
ATOM     24  F   UNL     1      -1.736  -4.810   0.771  0.00  0.00    -0.205 F 
ENDBRANCH  14  18
BRANCH  16  25
ATOM     25  N   UNL     1      -6.593  -3.377   0.337  0.00  0.00    +0.382 N 
ATOM     26  H   UNL     1      -7.199  -2.953  -0.349  0.00  0.00    -0.085 HD
ATOM     27  H   UNL     1      -6.345  -4.308   0.037  0.00  0.00    -0.085 HD
BRANCH  25  28
ATOM     28  C   UNL     1      -7.290  -3.449   1.628  0.00  0.00    -0.054 C 
BRANCH  28  29
ATOM     29  C   UNL     1      -8.558  -4.291   1.477  0.00  0.00    +0.137 C 
BRANCH  29  30
ATOM     30  O   UNL     1      -8.200  -5.639   1.165  0.00  0.00    -0.397 OA
ATOM     31  H   UNL     1      -8.957  -6.232   1.055  0.00  0.00    +0.209 HD
ENDBRANCH  29  30
ENDBRANCH  28  29
ENDBRANCH  25  28
ENDBRANCH  16  25
BRANCH   1  32
ATOM     32  C   UNL     1      -1.306  -0.246   0.435  0.00  0.00    +0.325 C 
ATOM     33  O   UNL     1      -2.053   0.392  -0.268  0.00  0.00    -0.249 OA
BRANCH  32  35
ATOM     34  C   UNL     1      -0.760   1.784   1.514  0.00  0.00    +0.280 C 
ATOM     35  O   UNL     1      -0.590   0.371   1.388  0.00  0.00    -0.467 OA
ENDBRANCH  32  35
ENDBRANCH   1  32
TORSDOF 7
