REMARK  Name = ZINC09125360
REMARK  14 active torsions:
REMARK  status: ('A' for Active; 'I' for Inactive)
REMARK    1  A    between atoms: C_1  and  C_2
REMARK    2  A    between atoms: C_2  and  C_3
REMARK    3  A    between atoms: C_2  and  C_4
REMARK    4  A    between atoms: C_7  and  S_10
REMARK    5  A    between atoms: S_10  and  N_13
REMARK    6  A    between atoms: C_18  and  C_19
REMARK    7  A    between atoms: C_18  and  N_66
REMARK    8  A    between atoms: C_19  and  C_21
REMARK    9  A    between atoms: C_19  and  O_32
REMARK   10  A    between atoms: C_21  and  O_22
REMARK   11  A    between atoms: O_22  and  C_23
REMARK   12  A    between atoms: C_23  and  C_24
REMARK   13  A    between atoms: C_27  and  O_30
REMARK   14  A    between atoms: O_30  and  C_31
REMARK                            x       y       z     vdW  Elec       q    Type
REMARK                         _______ _______ _______ _____ _____    ______ ____
ROOT
ATOM      1  N   UNL     1      -0.897   1.885  -1.312  0.00  0.00    -0.180 NA
ATOM      2  C   UNL     1      -1.887   0.982  -1.919  0.00  0.00    +0.091 C 
ATOM      3  C   UNL     1      -3.215   1.745  -2.057  0.00  0.00    -0.061 C 
ATOM      4  C   UNL     1      -2.076   3.886  -2.056  0.00  0.00    -0.061 C 
ATOM      5  C   UNL     1      -0.706   3.213  -1.915  0.00  0.00    +0.091 C 
ATOM      6  N   UNL     1      -2.969   2.988  -2.820  0.00  0.00    +0.383 N 
ATOM      7  H   UNL     1      -2.517   2.748  -3.710  0.00  0.00    -0.082 HD
ENDROOT
BRANCH   1   8
ATOM      8  S   UNL     1      -0.017   1.417   0.010  0.00  0.00    +0.061 S 
ATOM      9  O   UNL     1       0.002  -0.004   0.002  0.00  0.00    -0.153 OA
ATOM     10  O   UNL     1       1.172   2.195   0.003  0.00  0.00    -0.153 OA
BRANCH   8  14
ATOM     11  C   UNL     1      -2.354   2.659   3.683  0.00  0.00    -0.045 A 
ATOM     12  C   UNL     1      -2.559   1.412   3.121  0.00  0.00    +0.006 A 
ATOM     13  C   UNL     1      -1.846   1.033   2.000  0.00  0.00    +0.029 A 
ATOM     14  C   UNL     1      -0.927   1.900   1.439  0.00  0.00    +0.105 A 
ATOM     15  C   UNL     1      -0.717   3.145   2.004  0.00  0.00    +0.029 A 
ATOM     16  C   UNL     1      -1.434   3.526   3.123  0.00  0.00    +0.006 A 
BRANCH  11  18
ATOM     17  C   UNL     1      -2.163   3.372   6.050  0.00  0.00    +0.012 C 
ATOM     18  C   UNL     1      -3.132   3.072   4.905  0.00  0.00    +0.013 C 
ATOM     19  C   UNL     1      -3.950   4.326   4.588  0.00  0.00    +0.012 C 
ENDBRANCH  11  18
ENDBRANCH   8  14
ENDBRANCH   1   8
BRANCH   6  20
ATOM     20  C   UNL     1      -4.250   3.669  -3.100  0.00  0.00    -0.045 C 
BRANCH  20  21
ATOM     21  C   UNL     1      -5.253   2.648  -3.639  0.00  0.00    +0.124 C 
BRANCH  21  22
ATOM     22  O   UNL     1      -4.732   2.050  -4.828  0.00  0.00    -0.391 OA
ATOM     23  H   UNL     1      -4.555   2.679  -5.540  0.00  0.00    +0.210 HD
ENDBRANCH  21  22
BRANCH  21  24
ATOM     24  C   UNL     1      -6.574   3.351  -3.959  0.00  0.00    +0.189 C 
BRANCH  24  25
ATOM     25  O   UNL     1      -7.547   2.381  -4.352  0.00  0.00    -0.373 OA
BRANCH  25  26
ATOM     26  C   UNL     1      -8.824   2.935  -4.674  0.00  0.00    +0.195 C 
BRANCH  26  27
ATOM     27  C   UNL     1      -9.766   1.829  -5.072  0.00  0.00    -0.022 A 
ATOM     28  C   UNL     1      -9.861   1.447  -6.398  0.00  0.00    +0.009 A 
ATOM     29  C   UNL     1     -10.720   0.429  -6.765  0.00  0.00    +0.046 A 
ATOM     30  C   UNL     1     -11.496  -0.202  -5.803  0.00  0.00    +0.120 A 
ATOM     31  C   UNL     1     -11.403   0.187  -4.475  0.00  0.00    +0.046 A 
ATOM     32  C   UNL     1     -10.539   1.201  -4.113  0.00  0.00    +0.009 A 
BRANCH  30  33
ATOM     33  O   UNL     1     -12.346  -1.200  -6.162  0.00  0.00    -0.495 OA
ATOM     34  C   UNL     1     -12.389  -1.548  -7.548  0.00  0.00    +0.277 C 
ENDBRANCH  30  33
ENDBRANCH  26  27
ENDBRANCH  25  26
ENDBRANCH  24  25
ENDBRANCH  21  24
ENDBRANCH  20  21
ENDBRANCH   6  20
TORSDOF 11
