REMARK  Name = ZINC16778515
REMARK  4 active torsions:
REMARK  status: ('A' for Active; 'I' for Inactive)
REMARK    1  A    between atoms: C_4  and  N_7
REMARK    2  A    between atoms: C_10  and  C_12
REMARK    3  A    between atoms: N_14  and  C_15
REMARK    4  A    between atoms: C_20  and  C_21
REMARK                            x       y       z     vdW  Elec       q    Type
REMARK                         _______ _______ _______ _____ _____    ______ ____
ROOT
ATOM      1  N   UNL     1       1.620   4.623   0.109  0.00  0.00    -0.231 N 
ATOM      2  C   UNL     1       1.997   3.542  -0.602  0.00  0.00    +0.082 A 
ATOM      3  C   UNL     1       3.332   3.683  -0.924  0.00  0.00    +0.011 A 
ATOM      4  C   UNL     1       3.772   4.880  -0.352  0.00  0.00    +0.152 A 
ATOM      5  N   UNL     1       2.747   5.448   0.265  0.00  0.00    -0.161 NA
ATOM      6  C   UNL     1       4.081   2.675  -1.752  0.00  0.00    +0.047 C 
ATOM      7  C   UNL     1       3.525   1.264  -1.554  0.00  0.00    +0.080 C 
ATOM      8  C   UNL     1       2.020   1.266  -1.524  0.00  0.00    +0.114 A 
ATOM      9  C   UNL     1       1.291   2.331  -1.048  0.00  0.00    +0.042 A 
ATOM     10  C   UNL     1      -0.100   1.947  -1.114  0.00  0.00    +0.051 A 
ATOM     11  C   UNL     1      -0.111   0.704  -1.641  0.00  0.00    +0.196 A 
ATOM     12  O   UNL     1       1.155   0.320  -1.888  0.00  0.00    -0.467 OA
ENDROOT
BRANCH   1  16
ATOM     13  C   UNL     1      -2.202   5.383   1.585  0.00  0.00    +0.000 A 
ATOM     14  C   UNL     1      -1.661   4.115   1.691  0.00  0.00    +0.002 A 
ATOM     15  C   UNL     1      -0.395   3.860   1.203  0.00  0.00    +0.028 A 
ATOM     16  C   UNL     1       0.336   4.878   0.605  0.00  0.00    +0.066 A 
ATOM     17  C   UNL     1      -0.208   6.152   0.504  0.00  0.00    +0.028 A 
ATOM     18  C   UNL     1      -1.477   6.400   0.990  0.00  0.00    +0.002 A 
ENDBRANCH   1  16
BRANCH   4  19
ATOM     19  C   UNL     1       5.145   5.419  -0.424  0.00  0.00    +0.269 C 
ATOM     20  O   UNL     1       6.008   4.806  -1.022  0.00  0.00    -0.268 OA
ATOM     21  N   UNL     1       5.441   6.591   0.173  0.00  0.00    -0.280 N 
ATOM     22  H   UNL     1       4.776   7.039   0.719  0.00  0.00    +0.155 HD
BRANCH  21  23
ATOM     23  C   UNL     1       6.707   7.160   0.006  0.00  0.00    +0.045 A 
ATOM     24  C   UNL     1       7.511   6.771  -1.058  0.00  0.00    +0.024 A 
ATOM     25  C   UNL     1       8.759   7.338  -1.222  0.00  0.00    +0.002 A 
ATOM     26  C   UNL     1       9.213   8.286  -0.323  0.00  0.00    +0.001 A 
ATOM     27  C   UNL     1       8.418   8.672   0.740  0.00  0.00    +0.014 A 
ATOM     28  C   UNL     1       7.167   8.112   0.907  0.00  0.00    +0.076 A 
BRANCH  28  29
ATOM     29  C   UNL     1       6.301   8.533   2.067  0.00  0.00    +0.419 C 
ATOM     30  F   UNL     1       6.974   9.495   2.827  0.00  0.00    -0.166 F 
ATOM     31  F   UNL     1       5.105   9.075   1.583  0.00  0.00    -0.166 F 
ATOM     32  F   UNL     1       6.018   7.420   2.866  0.00  0.00    -0.166 F 
ENDBRANCH  28  29
ENDBRANCH  21  23
ENDBRANCH   4  19
TORSDOF 4
