REMARK  Name = ZINC21255342
REMARK  12 active torsions:
REMARK  status: ('A' for Active; 'I' for Inactive)
REMARK    1  A    between atoms: C_1  and  C_2
REMARK    2  A    between atoms: C_2  and  C_3
REMARK    3  A    between atoms: C_3  and  O_4
REMARK    4  A    between atoms: O_4  and  C_5
REMARK    5  A    between atoms: C_8  and  C_11
REMARK    6  A    between atoms: C_16  and  C_26
REMARK    7  A    between atoms: C_29  and  O_36
REMARK    8  A    between atoms: C_30  and  O_34
REMARK    9  A    between atoms: C_31  and  O_32
REMARK   10  A    between atoms: O_32  and  C_33
REMARK   11  A    between atoms: O_34  and  C_35
REMARK   12  A    between atoms: O_36  and  C_37
REMARK                            x       y       z     vdW  Elec       q    Type
REMARK                         _______ _______ _______ _____ _____    ______ ____
ROOT
ATOM      1  C   UNL     1      -1.145   5.755   1.946  0.00  0.00    +0.032 C 
ATOM      2  C   UNL     1      -0.348   5.742   3.249  0.00  0.00    +0.059 C 
ATOM      3  C   UNL     1       0.756   4.701   3.175  0.00  0.00    +0.017 C 
ATOM      4  C   UNL     1       0.588   3.578   2.455  0.00  0.00    +0.037 C 
ATOM      5  C   UNL     1       1.596   2.465   2.303  0.00  0.00    +0.140 C 
ATOM      6  N   UNL     1       2.718   2.544   3.213  0.00  0.00    -0.331 N 
ATOM      7  C   UNL     1       3.628   3.595   3.146  0.00  0.00    +0.049 A 
ATOM      8  C   UNL     1       4.939   3.395   2.744  0.00  0.00    +0.025 A 
ATOM      9  C   UNL     1       5.774   4.487   2.583  0.00  0.00    +0.002 A 
ATOM     10  C   UNL     1       5.307   5.767   2.821  0.00  0.00    +0.002 A 
ATOM     11  C   UNL     1       4.004   5.968   3.242  0.00  0.00    +0.025 A 
ATOM     12  C   UNL     1       3.173   4.876   3.422  0.00  0.00    +0.052 A 
ATOM     13  N   UNL     1       1.870   5.001   3.889  0.00  0.00    -0.316 N 
ATOM     14  C   UNL     1      -0.619   3.359   1.749  0.00  0.00    +0.163 C 
ATOM     15  O   UNL     1      -0.752   2.326   1.122  0.00  0.00    -0.292 OA
ATOM     16  C   UNL     1      -1.739   4.355   1.748  0.00  0.00    +0.088 C 
ATOM     17  H   UNL     1       2.864   1.765   3.975  0.00  0.00    +0.147 HD
ATOM     18  H   UNL     1       1.779   5.374   4.920  0.00  0.00    +0.152 HD
ENDROOT
BRANCH   1  22
ATOM     19  C   UNL     1      -4.287   8.641   2.196  0.00  0.00    +0.121 A 
ATOM     20  C   UNL     1      -3.332   8.738   1.194  0.00  0.00    +0.046 A 
ATOM     21  C   UNL     1      -2.318   7.804   1.115  0.00  0.00    +0.007 A 
ATOM     22  C   UNL     1      -2.252   6.773   2.034  0.00  0.00    -0.043 A 
ATOM     23  C   UNL     1      -3.205   6.671   3.031  0.00  0.00    +0.007 A 
ATOM     24  C   UNL     1      -4.219   7.605   3.118  0.00  0.00    +0.046 A 
BRANCH  19  25
ATOM     25  O   UNL     1      -5.285   9.559   2.277  0.00  0.00    -0.492 OA
BRANCH  25  26
ATOM     26  C   UNL     1      -6.232   9.396   3.334  0.00  0.00    +0.229 C 
BRANCH  26  28
ATOM     27  C   UNL     1      -8.287  10.342   4.396  0.00  0.00    +0.007 C 
ATOM     28  C   UNL     1      -7.274  10.515   3.263  0.00  0.00    +0.038 C 
ENDBRANCH  26  28
ENDBRANCH  25  26
ENDBRANCH  19  25
ENDBRANCH   1  22
BRANCH   5  29
ATOM     29  C   UNL     1       2.123   2.488   0.891  0.00  0.00    +0.023 A 
ATOM     30  C   UNL     1       1.998   3.633   0.126  0.00  0.00    +0.013 A 
ATOM     31  C   UNL     1       2.475   3.658  -1.171  0.00  0.00    +0.050 A 
ATOM     32  C   UNL     1       3.086   2.535  -1.708  0.00  0.00    +0.165 A 
ATOM     33  C   UNL     1       3.219   1.384  -0.941  0.00  0.00    +0.204 A 
ATOM     34  C   UNL     1       2.739   1.363   0.363  0.00  0.00    +0.170 A 
BRANCH  34  35
ATOM     35  O   UNL     1       2.866   0.239   1.118  0.00  0.00    -0.491 OA
ATOM     36  C   UNL     1       4.118   0.041   1.779  0.00  0.00    +0.277 C 
ENDBRANCH  34  35
BRANCH  33  37
ATOM     37  O   UNL     1       3.819   0.280  -1.464  0.00  0.00    -0.488 OA
ATOM     38  C   UNL     1       2.977  -0.658  -2.136  0.00  0.00    +0.277 C 
ENDBRANCH  33  37
BRANCH  32  39
ATOM     39  O   UNL     1       3.555   2.560  -2.985  0.00  0.00    -0.491 OA
ATOM     40  C   UNL     1       3.385   3.777  -3.715  0.00  0.00    +0.277 C 
ENDBRANCH  32  39
ENDBRANCH   5  29
TORSDOF 8
