REMARK  Name = ZINC07776830
REMARK  11 active torsions:
REMARK  status: ('A' for Active; 'I' for Inactive)
REMARK    1  A    between atoms: C_1  and  C_2
REMARK    2  A    between atoms: C_5  and  N_9
REMARK    3  A    between atoms: C_6  and  C_8
REMARK    4  A    between atoms: C_10  and  C_12
REMARK    5  A    between atoms: C_12  and  C_14
REMARK    6  A    between atoms: C_12  and  S_15
REMARK    7  A    between atoms: S_15  and  C_16
REMARK    8  A    between atoms: C_19  and  C_22
REMARK    9  A    between atoms: N_20  and  C_21
REMARK   10  A    between atoms: C_25  and  O_28
REMARK   11  A    between atoms: O_28  and  C_29
REMARK                            x       y       z     vdW  Elec       q    Type
REMARK                         _______ _______ _______ _____ _____    ______ ____
ROOT
ATOM      1  S   UNL     1       0.413  -6.992  -2.822  0.00  0.00    -0.074 S 
ENDROOT
BRANCH   1   2
ATOM      2  C   UNL     1       0.416  -8.738  -2.581  0.00  0.00    +0.192 A 
ATOM      3  N   UNL     1       0.034  -9.376  -1.498  0.00  0.00    -0.122 NA
ATOM      4  N   UNL     1       0.166 -10.643  -1.663  0.00  0.00    -0.128 NA
ATOM      5  C   UNL     1       0.641 -10.893  -2.861  0.00  0.00    +0.165 A 
ATOM      6  N   UNL     1       0.811  -9.680  -3.488  0.00  0.00    -0.305 N 
ATOM      7  C   UNL     1       1.313  -9.448  -4.845  0.00  0.00    +0.153 C 
BRANCH   5   8
ATOM      8  C   UNL     1       0.934 -12.225  -3.430  0.00  0.00    +0.019 A 
ATOM      9  C   UNL     1       1.806 -12.347  -4.514  0.00  0.00    +0.015 A 
ATOM     10  C   UNL     1       2.076 -13.591  -5.042  0.00  0.00    +0.046 A 
ATOM     11  C   UNL     1       1.483 -14.723  -4.497  0.00  0.00    +0.120 A 
ATOM     12  C   UNL     1       0.616 -14.606  -3.419  0.00  0.00    +0.046 A 
ATOM     13  C   UNL     1       0.344 -13.366  -2.882  0.00  0.00    +0.015 A 
BRANCH  11  14
ATOM     14  O   UNL     1       1.752 -15.947  -5.021  0.00  0.00    -0.495 OA
ATOM     15  C   UNL     1       1.108 -17.069  -4.412  0.00  0.00    +0.277 C 
ENDBRANCH  11  14
ENDBRANCH   5   8
ENDBRANCH   1   2
BRANCH   1  16
ATOM     16  C   UNL     1      -0.217  -6.334  -1.253  0.00  0.00    +0.137 C 
ATOM     17  C   UNL     1      -1.667  -6.782  -1.058  0.00  0.00    +0.029 C 
BRANCH  16  19
ATOM     18  N   UNL     1      -0.078  -4.137  -0.125  0.00  0.00    -0.284 N 
ATOM     19  C   UNL     1      -0.156  -4.829  -1.280  0.00  0.00    +0.230 C 
ATOM     20  O   UNL     1      -0.176  -4.239  -2.339  0.00  0.00    -0.274 OA
ATOM     21  H   UNL     1      -0.005  -4.609   0.719  0.00  0.00    +0.155 HD
BRANCH  18  26
ATOM     22  C   UNL     1      -0.180   1.535  -0.205  0.00  0.00    +0.044 C 
ATOM     23  C   UNL     1      -0.153   0.028  -0.184  0.00  0.00    -0.050 A 
ATOM     24  C   UNL     1       0.458  -0.666  -1.212  0.00  0.00    +0.005 A 
ATOM     25  C   UNL     1       0.485  -2.046  -1.196  0.00  0.00    +0.024 A 
ATOM     26  C   UNL     1      -0.103  -2.738  -0.145  0.00  0.00    +0.036 A 
ATOM     27  C   UNL     1      -0.715  -2.039   0.887  0.00  0.00    -0.029 A 
ATOM     28  C   UNL     1      -0.734  -0.658   0.867  0.00  0.00    +0.008 A 
ATOM     29  C   UNL     1      -1.354  -2.785   2.029  0.00  0.00    +0.045 C 
ENDBRANCH  18  26
ENDBRANCH  16  19
ENDBRANCH   1  16
TORSDOF 6
