REMARK  Name = ZINC12218591
REMARK  9 active torsions:
REMARK  status: ('A' for Active; 'I' for Inactive)
REMARK    1  A    between atoms: C_1  and  N_60
REMARK    2  A    between atoms: C_2  and  C_3
REMARK    3  A    between atoms: C_2  and  N_60
REMARK    4  A    between atoms: C_9  and  C_10
REMARK    5  A    between atoms: C_9  and  N_60
REMARK    6  A    between atoms: C_13  and  C_18
REMARK    7  A    between atoms: N_20  and  C_21
REMARK    8  A    between atoms: C_21  and  C_23
REMARK    9  A    between atoms: C_21  and  C_29
REMARK                            x       y       z     vdW  Elec       q    Type
REMARK                         _______ _______ _______ _____ _____    ______ ____
ROOT
ATOM      1  C   UNL     1       1.113   3.196   0.219  0.00  0.00    +0.003 A 
ATOM      2  C   UNL     1      -0.104   3.798   0.249  0.00  0.00    +0.020 A 
ATOM      3  C   UNL     1      -1.261   3.031   0.384  0.00  0.00    +0.020 A 
ATOM      4  C   UNL     1      -1.145   1.646   0.482  0.00  0.00    +0.101 A 
ATOM      5  C   UNL     1       0.148   1.064   0.451  0.00  0.00    +0.261 A 
ATOM      6  O   UNL     1       0.277  -0.145   0.539  0.00  0.00    -0.267 OA
ATOM      7  N   UNL     1       1.233   1.851   0.318  0.00  0.00    -0.327 N 
ATOM      8  H   UNL     1       2.115   1.448   0.294  0.00  0.00    +0.169 HD
ENDROOT
BRANCH   4   9
ATOM      9  C   UNL     1      -2.342   0.803   0.619  0.00  0.00    +0.250 C 
ATOM     10  O   UNL     1      -3.437   1.317   0.751  0.00  0.00    -0.270 OA
ATOM     11  N   UNL     1      -2.227  -0.540   0.599  0.00  0.00    -0.300 N 
ATOM     12  H   UNL     1      -1.349  -0.951   0.565  0.00  0.00    +0.150 HD
BRANCH  11  13
ATOM     13  C   UNL     1      -3.427  -1.379   0.630  0.00  0.00    +0.134 C 
BRANCH  13  14
ATOM     14  C   UNL     1      -3.122  -2.715   0.003  0.00  0.00    -0.023 A 
ATOM     15  C   UNL     1      -1.908  -3.330   0.243  0.00  0.00    +0.007 A 
ATOM     16  C   UNL     1      -1.630  -4.558  -0.328  0.00  0.00    +0.020 A 
ATOM     17  C   UNL     1      -2.563  -5.166  -1.148  0.00  0.00    +0.041 A 
ATOM     18  C   UNL     1      -3.776  -4.548  -1.392  0.00  0.00    +0.020 A 
ATOM     19  C   UNL     1      -4.055  -3.323  -0.817  0.00  0.00    +0.007 A 
ATOM     20 CL   UNL     1      -2.212  -6.705  -1.871  0.00  0.00    -0.084 Cl
ENDBRANCH  13  14
BRANCH  13  21
ATOM     21  C   UNL     1      -3.861  -1.583   2.059  0.00  0.00    -0.023 A 
ATOM     22  C   UNL     1      -2.916  -1.797   3.045  0.00  0.00    +0.006 A 
ATOM     23  C   UNL     1      -3.315  -1.979   4.356  0.00  0.00    +0.000 A 
ATOM     24  C   UNL     1      -4.658  -1.956   4.680  0.00  0.00    +0.000 A 
ATOM     25  C   UNL     1      -5.604  -1.746   3.693  0.00  0.00    +0.000 A 
ATOM     26  C   UNL     1      -5.205  -1.560   2.382  0.00  0.00    +0.006 A 
ENDBRANCH  13  21
ENDBRANCH  11  13
ENDBRANCH   4   9
BRANCH   1  27
ATOM     27  C   UNL     1       2.352   4.041   0.072  0.00  0.00    -0.025 C 
BRANCH  27  29
ATOM     28  C   UNL     1       4.465   4.598   1.115  0.00  0.00    -0.095 C 
ATOM     29  N   UNL     1       3.178   3.893   1.289  0.00  0.00    +0.384 N 
ATOM     30  H   UNL     1       3.363   2.895   1.447  0.00  0.00    -0.081 HD
BRANCH  29  31
ATOM     31  C   UNL     1       2.457   4.438   2.459  0.00  0.00    -0.043 C 
BRANCH  31  32
ATOM     32  C   UNL     1       3.217   4.079   3.709  0.00  0.00    -0.064 A 
ATOM     33  C   UNL     1       2.949   2.891   4.364  0.00  0.00    +0.002 A 
ATOM     34  C   UNL     1       3.650   2.559   5.508  0.00  0.00    +0.000 A 
ATOM     35  C   UNL     1       4.612   3.420   6.003  0.00  0.00    +0.000 A 
ATOM     36  C   UNL     1       4.877   4.610   5.352  0.00  0.00    +0.000 A 
ATOM     37  C   UNL     1       4.179   4.939   4.204  0.00  0.00    +0.002 A 
ENDBRANCH  31  32
ENDBRANCH  29  31
ENDBRANCH  27  29
ENDBRANCH   1  27
TORSDOF 8
