REMARK  Name = ZINC09296883
REMARK  7 active torsions:
REMARK  status: ('A' for Active; 'I' for Inactive)
REMARK    1  A    between atoms: C_1  and  C_2
REMARK    2  A    between atoms: C_2  and  C_3
REMARK    3  A    between atoms: C_2  and  C_4
REMARK    4  A    between atoms: C_2  and  C_5
REMARK    5  A    between atoms: C_8  and  N_11
REMARK    6  A    between atoms: C_14  and  C_26
REMARK    7  A    between atoms: C_16  and  C_18
REMARK                            x       y       z     vdW  Elec       q    Type
REMARK                         _______ _______ _______ _____ _____    ______ ____
ROOT
ATOM      1  N   UNL     1      -6.141   3.370  -0.119  0.00  0.00    -0.245 N 
ATOM      2  C   UNL     1      -4.828   3.790   0.006  0.00  0.00    +0.170 A 
ATOM      3  C   UNL     1      -4.862   5.194   0.100  0.00  0.00    +0.117 A 
ATOM      4  C   UNL     1      -3.656   5.883   0.235  0.00  0.00    +0.154 A 
ATOM      5  N   UNL     1      -2.522   5.182   0.275  0.00  0.00    -0.220 NA
ATOM      6  C   UNL     1      -2.534   3.862   0.178  0.00  0.00    +0.164 A 
ATOM      7  N   UNL     1      -3.661   3.172   0.048  0.00  0.00    -0.208 NA
ATOM      8  N   UNL     1      -6.191   5.569   0.029  0.00  0.00    -0.303 N 
ATOM      9  H   UNL     1      -6.528   6.477   0.067  0.00  0.00    +0.171 HD
ATOM     10  C   UNL     1      -6.939   4.455  -0.102  0.00  0.00    +0.333 A 
ATOM     11  O   UNL     1      -8.152   4.433  -0.192  0.00  0.00    -0.246 OA
ENDROOT
BRANCH   6  12
ATOM     12  C   UNL     1      -1.246   3.129   0.222  0.00  0.00    +0.038 A 
ATOM     13  C   UNL     1      -0.041   3.831   0.226  0.00  0.00    +0.014 A 
ATOM     14  C   UNL     1       1.155   3.145   0.266  0.00  0.00    +0.021 A 
ATOM     15  C   UNL     1       1.161   1.760   0.302  0.00  0.00    +0.042 A 
ATOM     16  C   UNL     1      -0.031   1.058   0.298  0.00  0.00    +0.040 A 
ATOM     17  C   UNL     1      -1.234   1.735   0.253  0.00  0.00    +0.053 A 
ATOM     18 CL   UNL     1      -2.729   0.853   0.240  0.00  0.00    -0.083 Cl
ATOM     19 CL   UNL     1       2.670   0.903   0.352  0.00  0.00    -0.083 Cl
ENDBRANCH   6  12
BRANCH   1  23
ATOM     20  C   UNL     1      -7.412  -0.583  -0.485  0.00  0.00    -0.042 A 
ATOM     21  C   UNL     1      -7.888   0.203   0.549  0.00  0.00    +0.006 A 
ATOM     22  C   UNL     1      -7.469   1.513   0.673  0.00  0.00    +0.026 A 
ATOM     23  C   UNL     1      -6.568   2.041  -0.242  0.00  0.00    +0.053 A 
ATOM     24  C   UNL     1      -6.095   1.252  -1.281  0.00  0.00    +0.026 A 
ATOM     25  C   UNL     1      -6.514  -0.059  -1.397  0.00  0.00    +0.006 A 
BRANCH  20  27
ATOM     26  C   UNL     1      -9.390  -2.044  -0.798  0.00  0.00    +0.015 C 
ATOM     27  C   UNL     1      -7.871  -2.011  -0.618  0.00  0.00    -0.013 C 
ATOM     28  C   UNL     1      -7.200  -2.653  -1.834  0.00  0.00    +0.015 C 
ATOM     29  C   UNL     1      -7.491  -2.789   0.644  0.00  0.00    +0.015 C 
ENDBRANCH  20  27
ENDBRANCH   1  23
BRANCH   4  30
ATOM     30  C   UNL     1      -3.637   7.360   0.338  0.00  0.00    +0.262 C 
ATOM     31  O   UNL     1      -4.678   7.985   0.305  0.00  0.00    -0.269 OA
ATOM     32  N   UNL     1      -2.464   8.011   0.468  0.00  0.00    -0.324 N 
ATOM     33  H   UNL     1      -1.633   7.512   0.495  0.00  0.00    +0.145 HD
ATOM     34  H   UNL     1      -2.451   8.979   0.536  0.00  0.00    +0.145 HD
ENDBRANCH   4  30
TORSDOF 4
