REMARK  Name = ZINC57426065
REMARK  8 active torsions:
REMARK  status: ('A' for Active; 'I' for Inactive)
REMARK    1  A    between atoms: C_1  and  C_2
REMARK    2  A    between atoms: C_2  and  C_3
REMARK    3  A    between atoms: C_2  and  C_4
REMARK    4  A    between atoms: C_4  and  C_5
REMARK    5  A    between atoms: C_5  and  N_6
REMARK    6  A    between atoms: C_15  and  S_16
REMARK    7  A    between atoms: S_16  and  C_17
REMARK    8  A    between atoms: C_17  and  C_18
REMARK                            x       y       z     vdW  Elec       q    Type
REMARK                         _______ _______ _______ _____ _____    ______ ____
ROOT
ATOM      1  N   UNL     1       2.873  -0.545  -2.413  0.00  0.00    -0.287 N 
ATOM      2  C   UNL     1       3.459  -1.767  -2.434  0.00  0.00    +0.269 A 
ATOM      3  O   UNL     1       3.427  -2.493  -1.454  0.00  0.00    -0.266 OA
ATOM      4  C   UNL     1       4.098  -2.171  -3.603  0.00  0.00    +0.102 A 
ATOM      5  C   UNL     1       4.143  -1.346  -4.741  0.00  0.00    +0.086 A 
ATOM      6  C   UNL     1       4.820  -1.880  -5.847  0.00  0.00    +0.036 A 
ATOM      7  C   UNL     1       5.375  -3.109  -5.775  0.00  0.00    +0.048 A 
ATOM      8  S   UNL     1       4.981  -3.623  -4.112  0.00  0.00    -0.090 S 
ATOM      9  N   UNL     1       3.526  -0.132  -4.629  0.00  0.00    -0.222 NA
ATOM     10  C   UNL     1       2.924   0.238  -3.530  0.00  0.00    +0.173 A 
ENDROOT
BRANCH   1  11
ATOM     11  C   UNL     1       2.187  -0.073  -1.207  0.00  0.00    +0.127 C 
BRANCH  11  12
ATOM     12  C   UNL     1       0.718  -0.497  -1.257  0.00  0.00    +0.025 C 
BRANCH  12  14
ATOM     13  C   UNL     1      -0.019   1.526   0.010  0.00  0.00    +0.007 C 
ATOM     14  C   UNL     1       0.002  -0.004   0.002  0.00  0.00    -0.016 C 
ATOM     15  C   UNL     1      -1.433  -0.534   0.013  0.00  0.00    +0.007 C 
ENDBRANCH  12  14
ENDBRANCH  11  12
ENDBRANCH   1  11
BRANCH  10  16
ATOM     16  S   UNL     1       2.150   1.820  -3.486  0.00  0.00    -0.078 S 
BRANCH  16  17
ATOM     17  C   UNL     1       2.453   2.503  -5.139  0.00  0.00    +0.173 C 
BRANCH  17  18
ATOM     18  C   UNL     1       1.835   3.874  -5.237  0.00  0.00    +0.230 C 
ATOM     19  O   UNL     1       1.247   4.344  -4.286  0.00  0.00    -0.274 OA
ATOM     20  N   UNL     1       1.934   4.578  -6.382  0.00  0.00    -0.270 N 
ATOM     21  C   UNL     1       1.381   5.918  -6.595  0.00  0.00    +0.118 C 
ATOM     22  C   UNL     1       1.755   6.283  -8.041  0.00  0.00    +0.056 C 
ATOM     23  C   UNL     1       2.517   5.081  -8.553  0.00  0.00    -0.024 A 
ATOM     24  C   UNL     1       2.586   4.139  -7.539  0.00  0.00    +0.040 A 
ATOM     25  C   UNL     1       3.253   2.936  -7.776  0.00  0.00    +0.024 A 
ATOM     26  C   UNL     1       3.836   2.694  -9.002  0.00  0.00    +0.002 A 
ATOM     27  C   UNL     1       3.764   3.642 -10.006  0.00  0.00    +0.000 A 
ATOM     28  C   UNL     1       3.098   4.833  -9.781  0.00  0.00    +0.005 A 
ENDBRANCH  17  18
ENDBRANCH  16  17
ENDBRANCH  10  16
TORSDOF 6
