REMARK  Name = ZINC24876842
REMARK  10 active torsions:
REMARK  status: ('A' for Active; 'I' for Inactive)
REMARK    1  A    between atoms: C_1  and  C_2
REMARK    2  A    between atoms: C_2  and  C_3
REMARK    3  A    between atoms: C_2  and  C_4
REMARK    4  A    between atoms: C_7  and  C_10
REMARK    5  A    between atoms: C_10  and  C_35
REMARK    6  A    between atoms: N_13  and  C_17
REMARK    7  A    between atoms: C_17  and  C_18
REMARK    8  A    between atoms: N_20  and  C_21
REMARK    9  A    between atoms: C_26  and  C_27
REMARK   10  A    between atoms: N_29  and  C_30
REMARK                            x       y       z     vdW  Elec       q    Type
REMARK                         _______ _______ _______ _____ _____    ______ ____
ROOT
ATOM      1  C   UNL     1       3.349   6.299   2.752  0.00  0.00    +0.214 C 
ENDROOT
BRANCH   1   5
ATOM      2  C   UNL     1       2.504   3.939   0.011  0.00  0.00    +0.135 C 
ATOM      3  C   UNL     1       2.342   5.265   0.728  0.00  0.00    +0.251 C 
ATOM      4  O   UNL     1       1.608   6.179   0.419  0.00  0.00    -0.272 OA
ATOM      5  N   UNL     1       3.183   5.216   1.779  0.00  0.00    -0.215 N 
ATOM      6  C   UNL     1       3.848   4.056   1.826  0.00  0.00    +0.310 C 
ATOM      7  O   UNL     1       4.663   3.778   2.684  0.00  0.00    -0.252 OA
ATOM      8  N   UNL     1       3.513   3.231   0.818  0.00  0.00    -0.281 N 
ATOM      9  C   UNL     1       3.008   4.157  -1.417  0.00  0.00    +0.047 C 
ATOM     10  H   UNL     1       3.837   2.220   0.529  0.00  0.00    +0.152 HD
BRANCH   2  14
ATOM     11  C   UNL     1      -1.184   1.784  -0.021  0.00  0.00    -0.045 A 
ATOM     12  C   UNL     1       0.017   1.099  -0.015  0.00  0.00    +0.004 A 
ATOM     13  C   UNL     1       1.210   1.796  -0.006  0.00  0.00    +0.006 A 
ATOM     14  C   UNL     1       1.203   3.179   0.002  0.00  0.00    -0.015 A 
ATOM     15  C   UNL     1       0.002   3.863   0.002  0.00  0.00    +0.006 A 
ATOM     16  C   UNL     1      -1.191   3.166  -0.007  0.00  0.00    +0.004 A 
BRANCH  11  18
ATOM     17  C   UNL     1      -3.300   1.381   1.208  0.00  0.00    +0.012 C 
ATOM     18  C   UNL     1      -2.485   1.023  -0.036  0.00  0.00    +0.013 C 
ATOM     19  C   UNL     1      -3.278   1.396  -1.290  0.00  0.00    +0.012 C 
ENDBRANCH  11  18
ENDBRANCH   2  14
ENDBRANCH   1   5
BRANCH   1  20
ATOM     20  C   UNL     1       2.374   6.111   3.885  0.00  0.00    +0.235 C 
ATOM     21  O   UNL     1       1.615   5.165   3.881  0.00  0.00    -0.274 OA
ATOM     22  N   UNL     1       2.346   6.994   4.903  0.00  0.00    -0.284 N 
ATOM     23  H   UNL     1       3.082   7.810   4.944  0.00  0.00    +0.155 HD
BRANCH  22  24
ATOM     24  C   UNL     1       1.384   6.872   5.903  0.00  0.00    +0.046 A 
ATOM     25  C   UNL     1       0.964   5.616   6.319  0.00  0.00    +0.024 A 
ATOM     26  C   UNL     1       0.015   5.498   7.314  0.00  0.00    +0.002 A 
ATOM     27  C   UNL     1      -0.533   6.628   7.897  0.00  0.00    +0.001 A 
ATOM     28  C   UNL     1      -0.133   7.884   7.494  0.00  0.00    +0.015 A 
ATOM     29  C   UNL     1       0.831   8.019   6.492  0.00  0.00    +0.058 A 
BRANCH  29  30
ATOM     30  C   UNL     1       1.264   9.360   6.055  0.00  0.00    +0.246 C 
ATOM     31  O   UNL     1       2.028   9.476   5.117  0.00  0.00    -0.270 OA
ATOM     32  N   UNL     1       0.813  10.456   6.697  0.00  0.00    -0.308 N 
ATOM     33  H   UNL     1       0.121  10.351   7.546  0.00  0.00    +0.149 HD
BRANCH  32  34
ATOM     34  C   UNL     1       1.243  11.788   6.263  0.00  0.00    +0.073 C 
ATOM     35  C   UNL     1       2.555  12.177   6.976  0.00  0.00    +0.022 C 
ATOM     36  C   UNL     1       2.404  13.695   7.246  0.00  0.00    +0.002 C 
ATOM     37  C   UNL     1       0.905  13.830   7.612  0.00  0.00    +0.002 C 
ATOM     38  C   UNL     1       0.194  12.838   6.668  0.00  0.00    +0.022 C 
ENDBRANCH  32  34
ENDBRANCH  29  30
ENDBRANCH  22  24
ENDBRANCH   1  20
TORSDOF 7
