REMARK  Name = ZINC35427200
REMARK  10 active torsions:
REMARK  status: ('A' for Active; 'I' for Inactive)
REMARK    1  A    between atoms: C_1  and  C_2
REMARK    2  A    between atoms: C_2  and  O_3
REMARK    3  A    between atoms: O_3  and  C_4
REMARK    4  A    between atoms: C_4  and  C_6
REMARK    5  A    between atoms: C_6  and  C_7
REMARK    6  A    between atoms: C_7  and  N_8
REMARK    7  A    between atoms: C_23  and  C_25
REMARK    8  A    between atoms: C_28  and  O_31
REMARK    9  A    between atoms: O_31  and  C_32
REMARK   10  A    between atoms: N_34  and  C_37
REMARK                            x       y       z     vdW  Elec       q    Type
REMARK                         _______ _______ _______ _____ _____    ______ ____
ROOT
ATOM      1  N   UNL     1       1.688  -5.086  -2.871  0.00  0.00    -0.299 N 
ATOM      2  C   UNL     1       2.027  -6.298  -3.351  0.00  0.00    +0.303 C 
ATOM      3  O   UNL     1       1.821  -7.295  -2.686  0.00  0.00    -0.253 OA
ATOM      4  N   UNL     1       2.595  -6.406  -4.569  0.00  0.00    -0.269 N 
ATOM      5  C   UNL     1       2.867  -5.222  -5.402  0.00  0.00    +0.148 C 
ATOM      6  C   UNL     1       2.579  -5.458  -6.868  0.00  0.00    +0.004 A 
ATOM      7  C   UNL     1       1.511  -4.848  -7.551  0.00  0.00    -0.034 A 
ATOM      8  C   UNL     1       1.362  -5.125  -8.875  0.00  0.00    -0.021 A 
ATOM      9  S   UNL     1       2.694  -6.241  -9.225  0.00  0.00    -0.077 S 
ATOM     10  C   UNL     1       3.369  -6.297  -7.593  0.00  0.00    +0.090 A 
ATOM     11  N   UNL     1       4.436  -7.013  -7.065  0.00  0.00    -0.312 N 
ATOM     12  C   UNL     1       5.698  -7.203  -7.515  0.00  0.00    +0.092 A 
ATOM     13  C   UNL     1       6.368  -7.926  -6.588  0.00  0.00    +0.020 A 
ATOM     14  C   UNL     1       5.469  -8.205  -5.535  0.00  0.00    +0.025 A 
ATOM     15  C   UNL     1       4.288  -7.658  -5.860  0.00  0.00    +0.049 A 
ATOM     16  C   UNL     1       2.982  -7.722  -5.132  0.00  0.00    +0.155 C 
ATOM     17  C   UNL     1       0.306  -4.596  -9.788  0.00  0.00    -0.036 C 
ATOM     18  N   UNL     1      -0.772  -4.018  -8.963  0.00  0.00    +0.381 N 
ATOM     19  C   UNL     1      -0.192  -3.103  -7.971  0.00  0.00    -0.074 C 
ATOM     20  C   UNL     1       0.528  -3.894  -6.875  0.00  0.00    +0.018 C 
ATOM     21  C   UNL     1      -1.705  -3.278  -9.824  0.00  0.00    -0.096 C 
ATOM     22  H   UNL     1       1.853  -4.291  -3.401  0.00  0.00    +0.150 HD
ATOM     23  H   UNL     1      -1.267  -4.758  -8.489  0.00  0.00    -0.082 HD
ENDROOT
BRANCH  16  24
ATOM     24  C   UNL     1       1.913  -8.180  -6.090  0.00  0.00    -0.021 A 
ATOM     25  C   UNL     1       2.210  -9.124  -7.056  0.00  0.00    +0.009 A 
ATOM     26  C   UNL     1       1.232  -9.545  -7.936  0.00  0.00    +0.046 A 
ATOM     27  C   UNL     1      -0.050  -9.020  -7.849  0.00  0.00    +0.120 A 
ATOM     28  C   UNL     1      -0.345  -8.073  -6.879  0.00  0.00    +0.046 A 
ATOM     29  C   UNL     1       0.635  -7.660  -5.998  0.00  0.00    +0.009 A 
BRANCH  27  30
ATOM     30  O   UNL     1      -1.014  -9.432  -8.714  0.00  0.00    -0.495 OA
ATOM     31  C   UNL     1      -2.310  -8.849  -8.566  0.00  0.00    +0.277 C 
ENDBRANCH  27  30
ENDBRANCH  16  24
BRANCH   1  32
ATOM     32  C   UNL     1       1.071  -4.968  -1.548  0.00  0.00    +0.117 C 
BRANCH  32  33
ATOM     33  C   UNL     1       0.788  -3.495  -1.246  0.00  0.00    +0.139 C 
BRANCH  33  34
ATOM     34  C   UNL     1       0.153  -3.375   0.116  0.00  0.00    +0.309 C 
ATOM     35  O   UNL     1      -0.052  -4.365   0.777  0.00  0.00    -0.251 OA
BRANCH  34  36
ATOM     36  O   UNL     1      -0.185  -2.167   0.594  0.00  0.00    -0.465 OA
BRANCH  36  38
ATOM     37  C   UNL     1      -1.096  -0.676   2.264  0.00  0.00    +0.048 C 
ATOM     38  C   UNL     1      -0.782  -2.127   1.892  0.00  0.00    +0.229 C 
ENDBRANCH  36  38
ENDBRANCH  34  36
ENDBRANCH  33  34
ENDBRANCH  32  33
ENDBRANCH   1  32
TORSDOF 7
