REMARK  Name = ZINC35746935
REMARK  16 active torsions:
REMARK  status: ('A' for Active; 'I' for Inactive)
REMARK    1  A    between atoms: C_1  and  C_2
REMARK    2  A    between atoms: C_3  and  C_32
REMARK    3  A    between atoms: C_11  and  C_13
REMARK    4  A    between atoms: C_13  and  N_14
REMARK    5  A    between atoms: N_14  and  C_15
REMARK    6  A    between atoms: N_14  and  C_20
REMARK    7  A    between atoms: C_15  and  C_16
REMARK    8  A    between atoms: C_16  and  C_17
REMARK    9  A    between atoms: C_17  and  O_18
REMARK   10  A    between atoms: O_18  and  C_19
REMARK   11  A    between atoms: C_20  and  C_21
REMARK   12  A    between atoms: C_21  and  C_23
REMARK   13  A    between atoms: C_21  and  O_31
REMARK   14  A    between atoms: C_23  and  O_24
REMARK   15  A    between atoms: O_24  and  C_25
REMARK   16  A    between atoms: C_25  and  C_26
REMARK                            x       y       z     vdW  Elec       q    Type
REMARK                         _______ _______ _______ _____ _____    ______ ____
ROOT
ATOM      1  N   UNL     1       0.367  -4.875   4.110  0.00  0.00    +0.386 N 
ATOM      2  H   UNL     1       1.095  -5.401   3.649  0.00  0.00    -0.081 HD
ENDROOT
BRANCH   1   3
ATOM      3  C   UNL     1       0.884  -3.553   4.490  0.00  0.00    -0.003 C 
BRANCH   3  14
ATOM      4  C   UNL     1       3.680   0.193  -0.316  0.00  0.00    +0.045 C 
ATOM      5  C   UNL     1       3.148  -1.210  -0.179  0.00  0.00    -0.026 A 
ATOM      6  C   UNL     1       3.182  -2.054  -1.223  0.00  0.00    -0.008 A 
ATOM      7  S   UNL     1       2.457  -3.547  -0.571  0.00  0.00    -0.073 S 
ATOM      8  C   UNL     1       2.130  -2.994   1.083  0.00  0.00    +0.116 A 
ATOM      9  C   UNL     1       2.598  -1.667   1.083  0.00  0.00    +0.075 A 
ATOM     10  C   UNL     1       2.460  -0.962   2.323  0.00  0.00    +0.260 A 
ATOM     11  O   UNL     1       2.832   0.194   2.423  0.00  0.00    -0.267 OA
ATOM     12  N   UNL     1       1.912  -1.597   3.377  0.00  0.00    -0.312 N 
ATOM     13  H   UNL     1       1.816  -1.125   4.218  0.00  0.00    +0.170 HD
ATOM     14  C   UNL     1       1.491  -2.885   3.284  0.00  0.00    +0.094 A 
ATOM     15  N   UNL     1       1.595  -3.551   2.166  0.00  0.00    -0.229 NA
ATOM     16  C   UNL     1       3.706  -1.800  -2.613  0.00  0.00    +0.052 C 
ENDBRANCH   3  14
ENDBRANCH   1   3
BRANCH   1  17
ATOM     17  C   UNL     1      -0.771  -4.711   3.196  0.00  0.00    -0.076 C 
BRANCH  17  18
ATOM     18  C   UNL     1      -1.909  -3.992   3.924  0.00  0.00    +0.009 C 
BRANCH  18  19
ATOM     19  C   UNL     1      -3.129  -3.907   3.004  0.00  0.00    +0.157 C 
BRANCH  19  20
ATOM     20  O   UNL     1      -4.192  -3.236   3.683  0.00  0.00    -0.383 OA
ATOM     21  C   UNL     1      -5.385  -3.102   2.908  0.00  0.00    +0.193 C 
ENDBRANCH  19  20
ENDBRANCH  18  19
ENDBRANCH  17  18
ENDBRANCH   1  17
BRANCH   1  22
ATOM     22  C   UNL     1      -0.070  -5.595   5.313  0.00  0.00    -0.044 C 
BRANCH  22  23
ATOM     23  C   UNL     1      -0.451  -7.029   4.939  0.00  0.00    +0.124 C 
BRANCH  23  24
ATOM     24  O   UNL     1      -1.624  -7.013   4.124  0.00  0.00    -0.391 OA
ATOM     25  H   UNL     1      -2.395  -6.615   4.551  0.00  0.00    +0.210 HD
ENDBRANCH  23  24
BRANCH  23  26
ATOM     26  C   UNL     1      -0.725  -7.832   6.213  0.00  0.00    +0.189 C 
BRANCH  26  27
ATOM     27  O   UNL     1      -0.967  -9.198   5.871  0.00  0.00    -0.370 OA
BRANCH  27  28
ATOM     28  C   UNL     1      -1.235 -10.039   6.995  0.00  0.00    +0.234 C 
BRANCH  28  29
ATOM     29  C   UNL     1      -1.473 -11.450   6.520  0.00  0.00    +0.130 A 
ATOM     30  C   UNL     1      -0.533 -12.400   6.374  0.00  0.00    +0.047 A 
ATOM     31  C   UNL     1      -1.192 -13.562   5.911  0.00  0.00    +0.041 A 
ATOM     32  C   UNL     1      -2.497 -13.252   5.802  0.00  0.00    +0.195 A 
ATOM     33  O   UNL     1      -2.662 -11.973   6.178  0.00  0.00    -0.465 OA
ENDBRANCH  28  29
ENDBRANCH  27  28
ENDBRANCH  26  27
ENDBRANCH  23  26
ENDBRANCH  22  23
ENDBRANCH   1  22
TORSDOF 13
