REMARK  Name = ZINC06719615
REMARK  4 active torsions:
REMARK  status: ('A' for Active; 'I' for Inactive)
REMARK    1  A    between atoms: C_1  and  C_2
REMARK    2  A    between atoms: C_5  and  N_8
REMARK    3  A    between atoms: C_9  and  C_19
REMARK    4  A    between atoms: C_19  and  C_20
REMARK                            x       y       z     vdW  Elec       q    Type
REMARK                         _______ _______ _______ _____ _____    ______ ____
ROOT
ATOM      1  N   UNL     1       0.074  -4.171  -0.022  0.00  0.00    -0.264 N 
ATOM      2  C   UNL     1       0.170  -4.850   1.153  0.00  0.00    +0.119 A 
ATOM      3  N   UNL     1       0.179  -6.146   1.228  0.00  0.00    -0.233 NA
ATOM      4  C   UNL     1       0.091  -6.924   0.121  0.00  0.00    +0.078 A 
ATOM      5  C   UNL     1       0.099  -8.319   0.202  0.00  0.00    +0.028 A 
ATOM      6  C   UNL     1       0.007  -9.069  -0.948  0.00  0.00    +0.002 A 
ATOM      7  C   UNL     1      -0.094  -8.458  -2.191  0.00  0.00    +0.001 A 
ATOM      8  C   UNL     1      -0.104  -7.084  -2.297  0.00  0.00    +0.015 A 
ATOM      9  C   UNL     1      -0.012  -6.306  -1.145  0.00  0.00    +0.065 A 
ATOM     10  C   UNL     1      -0.024  -4.837  -1.197  0.00  0.00    +0.266 A 
ATOM     11  O   UNL     1      -0.115  -4.242  -2.255  0.00  0.00    -0.267 OA
ENDROOT
BRANCH   1  16
ATOM     12  C   UNL     1       0.065   1.503   0.005  0.00  0.00    +0.044 C 
ATOM     13  C   UNL     1       0.067  -0.004  -0.003  0.00  0.00    -0.050 A 
ATOM     14  C   UNL     1      -1.125  -0.696   0.102  0.00  0.00    +0.005 A 
ATOM     15  C   UNL     1      -1.126  -2.077   0.095  0.00  0.00    +0.026 A 
ATOM     16  C   UNL     1       0.072  -2.770  -0.016  0.00  0.00    +0.051 A 
ATOM     17  C   UNL     1       1.268  -2.072  -0.120  0.00  0.00    +0.026 A 
ATOM     18  C   UNL     1       1.262  -0.691  -0.119  0.00  0.00    +0.005 A 
ENDBRANCH   1  16
BRANCH   2  19
ATOM     19  C   UNL     1       0.272  -4.058   2.431  0.00  0.00    +0.092 C 
BRANCH  19  20
ATOM     20  C   UNL     1       0.514  -5.011   3.603  0.00  0.00    +0.114 C 
ATOM     21  C   UNL     1       0.545  -4.248   4.907  0.00  0.00    -0.014 A 
ATOM     22  C   UNL     1      -0.388  -3.477   5.563  0.00  0.00    +0.006 A 
ATOM     23  C   UNL     1      -0.068  -2.888   6.774  0.00  0.00    +0.000 A 
ATOM     24  C   UNL     1       1.188  -3.077   7.321  0.00  0.00    +0.002 A 
ATOM     25  C   UNL     1       2.125  -3.849   6.666  0.00  0.00    +0.023 A 
ATOM     26  C   UNL     1       1.810  -4.446   5.446  0.00  0.00    +0.037 A 
ATOM     27  N   UNL     1       2.571  -5.258   4.604  0.00  0.00    -0.285 N 
ATOM     28  C   UNL     1       1.890  -5.634   3.505  0.00  0.00    +0.225 C 
ATOM     29  O   UNL     1       2.300  -6.339   2.607  0.00  0.00    -0.275 OA
ATOM     30  H   UNL     1       3.486  -5.521   4.790  0.00  0.00    +0.155 HD
ENDBRANCH  19  20
ENDBRANCH   2  19
TORSDOF 3
