REMARK  Name = ZINC41219560
REMARK  7 active torsions:
REMARK  status: ('A' for Active; 'I' for Inactive)
REMARK    1  A    between atoms: C_1  and  C_2
REMARK    2  A    between atoms: C_5  and  C_7
REMARK    3  A    between atoms: C_7  and  C_8
REMARK    4  A    between atoms: C_8  and  N_9
REMARK    5  A    between atoms: N_12  and  C_13
REMARK    6  A    between atoms: C_13  and  C_14
REMARK    7  A    between atoms: C_17  and  C_20
REMARK                            x       y       z     vdW  Elec       q    Type
REMARK                         _______ _______ _______ _____ _____    ______ ____
ROOT
ATOM      1  N   UNL     1      -1.362  -4.215   3.828  0.00  0.00    -0.299 N 
ATOM      2  C   UNL     1      -2.521  -4.655   4.358  0.00  0.00    +0.300 C 
ATOM      3  O   UNL     1      -3.581  -4.288   3.890  0.00  0.00    -0.253 OA
ATOM      4  N   UNL     1      -2.504  -5.501   5.407  0.00  0.00    -0.295 N 
ATOM      5  H   UNL     1      -0.516  -4.508   4.201  0.00  0.00    +0.150 HD
ATOM      6  H   UNL     1      -1.657  -5.793   5.780  0.00  0.00    +0.151 HD
ENDROOT
BRANCH   1   7
ATOM      7  C   UNL     1      -1.381  -3.296   2.688  0.00  0.00    +0.112 C 
BRANCH   7   8
ATOM      8  C   UNL     1       0.055  -2.955   2.284  0.00  0.00    +0.081 C 
BRANCH   8  13
ATOM      9  C   UNL     1      -0.018   1.503   0.010  0.00  0.00    +0.066 C 
ATOM     10  C   UNL     1       0.002  -0.004   0.002  0.00  0.00    +0.046 A 
ATOM     11  C   UNL     1       0.006  -0.708  -1.159  0.00  0.00    +0.070 A 
ATOM     12  S   UNL     1       0.032  -2.379  -0.531  0.00  0.00    -0.080 S 
ATOM     13  C   UNL     1       0.036  -2.009   1.111  0.00  0.00    +0.080 A 
ATOM     14  N   UNL     1       0.023  -0.699   1.122  0.00  0.00    -0.249 NA
ENDBRANCH   8  13
ENDBRANCH   7   8
ENDBRANCH   1   7
BRANCH   4  15
ATOM     15  C   UNL     1      -3.763  -5.979   5.983  0.00  0.00    +0.141 C 
BRANCH  15  16
ATOM     16  C   UNL     1      -3.469  -6.905   7.135  0.00  0.00    -0.030 A 
ATOM     17  C   UNL     1      -3.319  -8.261   6.907  0.00  0.00    +0.006 A 
ATOM     18  C   UNL     1      -3.050  -9.114   7.957  0.00  0.00    +0.013 A 
ATOM     19  C   UNL     1      -2.928  -8.607   9.252  0.00  0.00    +0.037 A 
ATOM     20  C   UNL     1      -3.080  -7.237   9.475  0.00  0.00    +0.013 A 
ATOM     21  C   UNL     1      -3.344  -6.394   8.415  0.00  0.00    +0.006 A 
BRANCH  19  22
ATOM     22  C   UNL     1      -2.640  -9.515  10.382  0.00  0.00    +0.242 C 
ATOM     23  O   UNL     1      -2.508 -10.707  10.185  0.00  0.00    -0.270 OA
ATOM     24  N   UNL     1      -2.523  -9.022  11.631  0.00  0.00    -0.325 N 
ATOM     25  H   UNL     1      -2.628  -8.070  11.788  0.00  0.00    +0.145 HD
ATOM     26  H   UNL     1      -2.334  -9.618  12.372  0.00  0.00    +0.145 HD
ENDBRANCH  19  22
ENDBRANCH  15  16
ENDBRANCH   4  15
TORSDOF 6
