REMARK  Name = ZINC38790629
REMARK  15 active torsions:
REMARK  status: ('A' for Active; 'I' for Inactive)
REMARK    1  A    between atoms: C_1  and  C_2
REMARK    2  A    between atoms: C_2  and  O_3
REMARK    3  A    between atoms: O_3  and  C_4
REMARK    4  A    between atoms: C_4  and  C_6
REMARK    5  A    between atoms: C_7  and  C_37
REMARK    6  A    between atoms: C_10  and  C_22
REMARK    7  A    between atoms: C_11  and  C_12
REMARK    8  A    between atoms: C_14  and  O_20
REMARK    9  A    between atoms: C_17  and  O_18
REMARK   10  A    between atoms: O_18  and  C_19
REMARK   11  A    between atoms: O_20  and  C_21
REMARK   12  A    between atoms: C_22  and  C_24
REMARK   13  A    between atoms: N_26  and  C_27
REMARK   14  A    between atoms: C_29  and  N_34
REMARK   15  A    between atoms: C_32  and  C_33
REMARK                            x       y       z     vdW  Elec       q    Type
REMARK                         _______ _______ _______ _____ _____    ______ ____
ROOT
ATOM      1  C   UNL     1       1.456  -2.320  -2.531  0.00  0.00    +0.088 A 
ATOM      2  C   UNL     1       2.798  -2.630  -2.640  0.00  0.00    +0.028 A 
ATOM      3  N   UNL     1       3.039  -3.114  -3.869  0.00  0.00    -0.354 N 
ATOM      4  H   UNL     1       3.905  -3.406  -4.195  0.00  0.00    +0.166 HD
ATOM      5  C   UNL     1       1.867  -3.134  -4.595  0.00  0.00    +0.101 A 
ATOM      6  C   UNL     1       0.848  -2.643  -3.774  0.00  0.00    +0.029 A 
ATOM      7  C   UNL     1       3.827  -2.453  -1.554  0.00  0.00    +0.064 C 
ENDROOT
BRANCH   6   8
ATOM      8  C   UNL     1      -0.577  -2.488  -4.129  0.00  0.00    +0.030 A 
ATOM      9  C   UNL     1      -1.032  -1.298  -4.702  0.00  0.00    +0.057 A 
ATOM     10  C   UNL     1      -2.367  -1.160  -5.032  0.00  0.00    +0.121 A 
ATOM     11  C   UNL     1      -3.257  -2.201  -4.795  0.00  0.00    +0.049 A 
ATOM     12  C   UNL     1      -2.815  -3.381  -4.229  0.00  0.00    +0.050 A 
ATOM     13  C   UNL     1      -1.478  -3.536  -3.899  0.00  0.00    +0.128 A 
BRANCH  13  14
ATOM     14  O   UNL     1      -1.043  -4.699  -3.348  0.00  0.00    -0.494 OA
ATOM     15  C   UNL     1      -2.018  -5.723  -3.141  0.00  0.00    +0.277 C 
ENDBRANCH  13  14
BRANCH  10  16
ATOM     16  O   UNL     1      -2.812  -0.002  -5.590  0.00  0.00    -0.495 OA
ATOM     17  C   UNL     1      -4.203   0.073  -5.906  0.00  0.00    +0.277 C 
ENDBRANCH  10  16
ENDBRANCH   6   8
BRANCH   1  18
ATOM     18  C   UNL     1       0.781  -1.765  -1.347  0.00  0.00    +0.342 C 
ATOM     19  O   UNL     1       0.310  -2.510  -0.511  0.00  0.00    -0.245 OA
BRANCH  18  20
ATOM     20  O   UNL     1       0.686  -0.429  -1.190  0.00  0.00    -0.461 OA
BRANCH  20  22
ATOM     21  C   UNL     1       0.008   1.570  -0.014  0.00  0.00    +0.048 C 
ATOM     22  C   UNL     1       0.018   0.040  -0.018  0.00  0.00    +0.229 C 
ENDBRANCH  20  22
ENDBRANCH  18  20
ENDBRANCH   1  18
BRANCH   5  23
ATOM     23  C   UNL     1       1.721  -3.576  -5.927  0.00  0.00    +0.264 C 
ATOM     24  O   UNL     1       0.629  -3.545  -6.463  0.00  0.00    -0.280 OA
BRANCH  23  25
ATOM     25  C   UNL     1       2.904  -4.082  -6.677  0.00  0.00    +0.290 C 
ATOM     26  O   UNL     1       3.994  -4.113  -6.143  0.00  0.00    -0.266 OA
ATOM     27  N   UNL     1       2.765  -4.504  -7.950  0.00  0.00    -0.278 N 
ATOM     28  H   UNL     1       1.883  -4.554  -8.350  0.00  0.00    +0.155 HD
BRANCH  27  29
ATOM     29  C   UNL     1       3.892  -4.869  -8.692  0.00  0.00    +0.039 A 
ATOM     30  C   UNL     1       5.137  -4.345  -8.370  0.00  0.00    +0.056 A 
ATOM     31  C   UNL     1       6.248  -4.708  -9.105  0.00  0.00    +0.128 A 
ATOM     32  C   UNL     1       6.122  -5.592 -10.161  0.00  0.00    +0.033 A 
ATOM     33  C   UNL     1       4.884  -6.115 -10.485  0.00  0.00    +0.007 A 
ATOM     34  C   UNL     1       3.769  -5.761  -9.749  0.00  0.00    -0.029 A 
ATOM     35  C   UNL     1       2.421  -6.337 -10.098  0.00  0.00    +0.045 C 
BRANCH  31  36
ATOM     36  N   UNL     1       7.576  -4.150  -8.762  0.00  0.00    +0.056 N 
ATOM     37  O   UNL     1       7.687  -3.377  -7.840  0.00  0.00    -0.126 OA
ATOM     38  O   UNL     1       8.549  -4.468  -9.406  0.00  0.00    -0.126 OA
ENDBRANCH  31  36
ENDBRANCH  27  29
ENDBRANCH  23  25
ENDBRANCH   5  23
TORSDOF 10
