REMARK  Name = ZINC08878942
REMARK  11 active torsions:
REMARK  status: ('A' for Active; 'I' for Inactive)
REMARK    1  A    between atoms: C_1  and  C_2
REMARK    2  A    between atoms: C_4  and  C_34
REMARK    3  A    between atoms: C_9  and  C_18
REMARK    4  A    between atoms: C_12  and  C_14
REMARK    5  A    between atoms: C_14  and  C_16
REMARK    6  A    between atoms: C_14  and  O_17
REMARK    7  A    between atoms: N_20  and  C_21
REMARK    8  A    between atoms: C_23  and  O_29
REMARK    9  A    between atoms: C_26  and  O_27
REMARK   10  A    between atoms: O_27  and  C_28
REMARK   11  A    between atoms: O_29  and  C_30
REMARK                            x       y       z     vdW  Elec       q    Type
REMARK                         _______ _______ _______ _____ _____    ______ ____
ROOT
ATOM      1  C   UNL     1      -1.608   6.274  -1.367  0.00  0.00    +0.044 C 
ATOM      2  C   UNL     1      -2.503   5.098  -1.661  0.00  0.00    -0.050 A 
ATOM      3  C   UNL     1      -3.201   5.038  -2.853  0.00  0.00    +0.008 A 
ATOM      4  C   UNL     1      -4.022   3.964  -3.127  0.00  0.00    -0.029 A 
ATOM      5  C   UNL     1      -4.153   2.929  -2.204  0.00  0.00    +0.039 A 
ATOM      6  C   UNL     1      -3.445   2.999  -1.008  0.00  0.00    -0.027 A 
ATOM      7  C   UNL     1      -2.627   4.074  -0.738  0.00  0.00    +0.008 A 
ATOM      8  C   UNL     1      -3.796   1.751  -0.244  0.00  0.00    +0.049 C 
ATOM      9  C   UNL     1      -2.542   0.904   0.025  0.00  0.00    +0.076 C 
ATOM     10  C   UNL     1      -2.820   0.316   1.435  0.00  0.00    -0.001 C 
ATOM     11  C   UNL     1      -3.577   1.482   2.120  0.00  0.00    -0.040 C 
ATOM     12  C   UNL     1      -4.757   1.010  -1.138  0.00  0.00    +0.211 C 
ATOM     13  O   UNL     1      -5.290  -0.053  -0.903  0.00  0.00    -0.277 OA
ATOM     14  N   UNL     1      -4.909   1.756  -2.249  0.00  0.00    -0.286 N 
ATOM     15  C   UNL     1      -4.778   3.909  -4.429  0.00  0.00    +0.045 C 
ATOM     16  H   UNL     1      -5.478   1.507  -2.994  0.00  0.00    +0.155 HD
ATOM     17  N   UNL     1      -4.405   2.067   1.048  0.00  0.00    +0.395 N 
ATOM     18  H   UNL     1      -5.352   1.672   1.089  0.00  0.00    -0.083 HD
ATOM     19  H   UNL     1      -4.454   3.086   1.167  0.00  0.00    -0.083 HD
ENDROOT
BRANCH   9  20
ATOM     20  C   UNL     1      -1.308   1.768   0.041  0.00  0.00    +0.220 C 
ATOM     21  O   UNL     1      -0.962   2.314   1.067  0.00  0.00    -0.275 OA
ATOM     22  N   UNL     1      -0.588   1.935  -1.086  0.00  0.00    -0.282 N 
ATOM     23  H   UNL     1      -0.896   1.549  -1.921  0.00  0.00    +0.155 HD
BRANCH  22  24
ATOM     24  C   UNL     1       0.604   2.672  -1.054  0.00  0.00    +0.079 A 
ATOM     25  C   UNL     1       0.786   3.656  -0.094  0.00  0.00    +0.072 A 
ATOM     26  C   UNL     1       1.966   4.383  -0.064  0.00  0.00    +0.122 A 
ATOM     27  C   UNL     1       2.964   4.126  -0.993  0.00  0.00    +0.049 A 
ATOM     28  C   UNL     1       2.784   3.146  -1.951  0.00  0.00    +0.051 A 
ATOM     29  C   UNL     1       1.610   2.413  -1.982  0.00  0.00    +0.141 A 
BRANCH  29  30
ATOM     30  O   UNL     1       1.436   1.444  -2.921  0.00  0.00    -0.493 OA
ATOM     31  C   UNL     1       2.509   1.233  -3.841  0.00  0.00    +0.277 C 
ENDBRANCH  29  30
BRANCH  26  32
ATOM     32  O   UNL     1       2.146   5.348   0.877  0.00  0.00    -0.495 OA
ATOM     33  C   UNL     1       3.386   6.058   0.850  0.00  0.00    +0.277 C 
ENDBRANCH  26  32
ENDBRANCH  22  24
ENDBRANCH   9  20
BRANCH  11  34
ATOM     34  C   UNL     1      -4.458   0.952   3.252  0.00  0.00    +0.098 C 
ATOM     35  C   UNL     1      -5.289   2.099   3.831  0.00  0.00    +0.036 C 
BRANCH  34  36
ATOM     36  O   UNL     1      -5.331  -0.058   2.744  0.00  0.00    -0.394 OA
ATOM     37  H   UNL     1      -5.921  -0.440   3.409  0.00  0.00    +0.210 HD
ENDBRANCH  34  36
ENDBRANCH  11  34
TORSDOF 6
