REMARK  Name = ZINC06445475
REMARK  5 active torsions:
REMARK  status: ('A' for Active; 'I' for Inactive)
REMARK    1  A    between atoms: C_6  and  C_7
REMARK    2  A    between atoms: C_12  and  C_14
REMARK    3  A    between atoms: C_12  and  C_29
REMARK    4  A    between atoms: C_12  and  N_65
REMARK    5  A    between atoms: N_33  and  C_34
REMARK                            x       y       z     vdW  Elec       q    Type
REMARK                         _______ _______ _______ _____ _____    ______ ____
ROOT
ATOM      1  C   UNL     1      -2.491   0.995   0.019  0.00  0.00    +0.039 C 
ENDROOT
BRANCH   1   2
ATOM      2  C   UNL     1      -1.224   1.810  -0.021  0.00  0.00    +0.011 A 
ATOM      3  C   UNL     1      -0.025   1.188  -0.159  0.00  0.00    +0.017 A 
ATOM      4  C   UNL     1       1.186   2.006  -0.201  0.00  0.00    +0.002 A 
ATOM      5  C   UNL     1       2.449   1.419  -0.349  0.00  0.00    +0.059 A 
ATOM      6  C   UNL     1       3.572   2.216  -0.385  0.00  0.00    +0.167 A 
ATOM      7  C   UNL     1       3.454   3.607  -0.276  0.00  0.00    +0.168 A 
ATOM      8  C   UNL     1       2.211   4.195  -0.130  0.00  0.00    +0.075 A 
ATOM      9  C   UNL     1       1.069   3.405  -0.091  0.00  0.00    +0.053 A 
ATOM     10  N   UNL     1      -0.180   3.975   0.052  0.00  0.00    -0.322 N 
ATOM     11  H   UNL     1      -0.260   4.938   0.129  0.00  0.00    +0.169 HD
ATOM     12  C   UNL     1      -1.287   3.213   0.089  0.00  0.00    +0.251 A 
ATOM     13  O   UNL     1      -2.374   3.751   0.217  0.00  0.00    -0.268 OA
ATOM     14  O   UNL     1       4.703   4.153  -0.341  0.00  0.00    -0.453 OA
ATOM     15  C   UNL     1       5.544   3.128  -0.903  0.00  0.00    +0.466 C 
ATOM     16  O   UNL     1       4.895   1.902  -0.519  0.00  0.00    -0.453 OA
ENDBRANCH   1   2
BRANCH   1  22
ATOM     17  C   UNL     1      -4.670   1.368   3.601  0.00  0.00    -0.048 C 
ATOM     18  C   UNL     1      -5.280   0.933   2.520  0.00  0.00    -0.041 C 
ATOM     19  C   UNL     1      -4.566   0.675   1.225  0.00  0.00    -0.049 C 
ATOM     20  C   UNL     1      -2.508   0.995   2.443  0.00  0.00    -0.072 C 
ATOM     21  C   UNL     1      -3.195   1.656   3.640  0.00  0.00    +0.017 C 
ATOM     22  N   UNL     1      -3.263   1.365   1.228  0.00  0.00    +0.392 N 
ATOM     23  H   UNL     1      -3.420   2.379   1.227  0.00  0.00    -0.080 HD
BRANCH  17  29
ATOM     24  C   UNL     1      -5.613   2.866   5.352  0.00  0.00    +0.011 A 
ATOM     25  C   UNL     1      -6.363   3.061   6.494  0.00  0.00    +0.039 A 
ATOM     26  C   UNL     1      -6.960   1.982   7.125  0.00  0.00    +0.123 A 
ATOM     27  C   UNL     1      -6.814   0.704   6.612  0.00  0.00    +0.039 A 
ATOM     28  C   UNL     1      -6.071   0.499   5.467  0.00  0.00    +0.011 A 
ATOM     29  C   UNL     1      -5.467   1.582   4.827  0.00  0.00    -0.022 A 
ATOM     30  F   UNL     1      -7.689   2.178   8.246  0.00  0.00    -0.205 F 
ENDBRANCH  17  29
ENDBRANCH   1  22
BRANCH   1  31
ATOM     31  C   UNL     1      -3.319   1.293  -1.205  0.00  0.00    +0.143 A 
ATOM     32  N   UNL     1      -4.030   2.372  -1.425  0.00  0.00    -0.115 NA
ATOM     33  N   UNL     1      -4.588   2.252  -2.580  0.00  0.00    -0.023 NA
ATOM     34  N   UNL     1      -4.258   1.121  -3.099  0.00  0.00    -0.044 NA
ATOM     35  N   UNL     1      -3.476   0.501  -2.281  0.00  0.00    -0.227 N 
BRANCH  35  36
ATOM     36  C   UNL     1      -2.872  -0.819  -2.486  0.00  0.00    +0.111 C 
ATOM     37  C   UNL     1      -2.027  -0.819  -3.776  0.00  0.00    +0.027 C 
ATOM     38  C   UNL     1      -2.260  -2.226  -4.382  0.00  0.00    +0.002 C 
ATOM     39  C   UNL     1      -3.758  -2.484  -4.082  0.00  0.00    +0.002 C 
ATOM     40  C   UNL     1      -3.972  -1.877  -2.680  0.00  0.00    +0.027 C 
ENDBRANCH  35  36
ENDBRANCH   1  31
TORSDOF 5
