REMARK  Name = ZINC06788701
REMARK  7 active torsions:
REMARK  status: ('A' for Active; 'I' for Inactive)
REMARK    1  A    between atoms: C_1  and  C_2
REMARK    2  A    between atoms: C_2  and  S_3
REMARK    3  A    between atoms: S_3  and  C_4
REMARK    4  A    between atoms: C_10  and  C_12
REMARK    5  A    between atoms: N_14  and  C_23
REMARK    6  A    between atoms: C_16  and  C_17
REMARK    7  A    between atoms: C_20  and  C_22
REMARK                            x       y       z     vdW  Elec       q    Type
REMARK                         _______ _______ _______ _____ _____    ______ ____
ROOT
ATOM      1  C   UNL     1      -3.316  -0.117   4.493  0.00  0.00    +0.086 A 
ATOM      2  C   UNL     1      -3.740  -0.171   5.805  0.00  0.00    +0.128 A 
ATOM      3  N   UNL     1      -3.230   0.894   6.449  0.00  0.00    -0.238 N 
ATOM      4  N   UNL     1      -2.461   1.655   5.563  0.00  0.00    -0.162 NA
ATOM      5  C   UNL     1      -2.480   1.085   4.377  0.00  0.00    +0.140 A 
ENDROOT
BRANCH   1  12
ATOM      6  C   UNL     1      -5.544  -5.009   1.030  0.00  0.00    +0.160 A 
ATOM      7  N   UNL     1      -4.766  -4.048   0.568  0.00  0.00    -0.133 NA
ATOM      8  N   UNL     1      -4.348  -3.043   1.409  0.00  0.00    -0.125 NA
ATOM      9  C   UNL     1      -4.725  -3.045   2.672  0.00  0.00    +0.189 A 
ATOM     10  S   UNL     1      -5.723  -4.525   2.740  0.00  0.00    -0.024 S 
ATOM     11  N   UNL     1      -4.423  -2.138   3.684  0.00  0.00    -0.259 N 
ATOM     12  C   UNL     1      -3.636  -1.075   3.423  0.00  0.00    +0.253 C 
ATOM     13  O   UNL     1      -3.191  -0.908   2.304  0.00  0.00    -0.270 OA
ATOM     14  H   UNL     1      -4.778  -2.272   4.577  0.00  0.00    +0.157 HD
BRANCH   6  15
ATOM     15  S   UNL     1      -6.220  -6.401   0.187  0.00  0.00    -0.097 S 
BRANCH  15  17
ATOM     16  C   UNL     1      -6.120  -7.390  -2.362  0.00  0.00    +0.016 C 
ATOM     17  C   UNL     1      -5.601  -6.230  -1.510  0.00  0.00    +0.073 C 
ENDBRANCH  15  17
ENDBRANCH   6  15
ENDBRANCH   1  12
BRANCH   5  18
ATOM     18  C   UNL     1      -1.798   1.565   3.160  0.00  0.00    +0.156 A 
ATOM     19  C   UNL     1      -1.613   2.867   2.809  0.00  0.00    +0.052 A 
ATOM     20  C   UNL     1      -0.916   2.862   1.585  0.00  0.00    +0.045 A 
ATOM     21  C   UNL     1      -0.718   1.572   1.248  0.00  0.00    +0.103 A 
ATOM     22  O   UNL     1      -1.249   0.791   2.203  0.00  0.00    -0.458 OA
ATOM     23  C   UNL     1      -0.013   1.086   0.008  0.00  0.00    +0.086 C 
ENDBRANCH   5  18
BRANCH   3  24
ATOM     24  C   UNL     1      -3.438   1.196   7.800  0.00  0.00    +0.065 A 
ATOM     25  C   UNL     1      -4.229   0.367   8.584  0.00  0.00    +0.028 A 
ATOM     26  C   UNL     1      -4.429   0.664   9.918  0.00  0.00    +0.002 A 
ATOM     27  C   UNL     1      -3.850   1.792  10.470  0.00  0.00    +0.000 A 
ATOM     28  C   UNL     1      -3.066   2.623   9.691  0.00  0.00    +0.002 A 
ATOM     29  C   UNL     1      -2.858   2.328   8.358  0.00  0.00    +0.028 A 
ENDBRANCH   3  24
TORSDOF 5
