REMARK  Name = ZINC59040247
REMARK  6 active torsions:
REMARK  status: ('A' for Active; 'I' for Inactive)
REMARK    1  A    between atoms: C_6  and  C_7
REMARK    2  A    between atoms: C_7  and  N_8
REMARK    3  A    between atoms: C_9  and  C_11
REMARK    4  A    between atoms: C_11  and  S_12
REMARK    5  A    between atoms: S_12  and  C_13
REMARK    6  A    between atoms: N_18  and  N_19
REMARK                            x       y       z     vdW  Elec       q    Type
REMARK                         _______ _______ _______ _____ _____    ______ ____
ROOT
ATOM      1  C   UNL     1      -4.971  -3.591  -4.782  0.00  0.00    +0.211 A 
ATOM      2  N   UNL     1      -6.123  -4.084  -5.249  0.00  0.00    -0.186 NA
ATOM      3  C   UNL     1      -6.218  -3.842  -6.539  0.00  0.00    +0.232 A 
ATOM      4  N   UNL     1      -5.106  -3.179  -6.921  0.00  0.00    -0.245 N 
ATOM      5  N   UNL     1      -4.319  -3.025  -5.769  0.00  0.00    -0.144 NA
ATOM      6  N   UNL     1      -7.271  -4.204  -7.360  0.00  0.00    -0.205 N 
ATOM      7  H   UNL     1      -7.250  -3.980  -8.303  0.00  0.00    +0.177 HD
ATOM      8  H   UNL     1      -4.894  -2.868  -7.815  0.00  0.00    +0.192 HD
ENDROOT
BRANCH   6   9
ATOM      9  N   UNL     1      -8.368  -4.893  -6.828  0.00  0.00    -0.189 NA
ATOM     10  C   UNL     1      -9.294  -5.319  -7.603  0.00  0.00    +0.037 C 
ATOM     11  C   UNL     1      -9.151  -5.225  -9.106  0.00  0.00    +0.052 C 
ATOM     12  C   UNL     1      -9.433  -6.604  -9.710  0.00  0.00    +0.006 C 
ATOM     13  C   UNL     1     -10.802  -7.096  -9.236  0.00  0.00    +0.001 C 
ATOM     14  C   UNL     1     -10.789  -7.284  -7.719  0.00  0.00    +0.006 C 
ATOM     15  C   UNL     1     -10.555  -5.935  -7.040  0.00  0.00    +0.052 C 
ENDBRANCH   6   9
BRANCH   1  16
ATOM     16  S   UNL     1      -4.422  -3.682  -3.110  0.00  0.00    -0.075 S 
BRANCH  16  17
ATOM     17  C   UNL     1      -2.817  -2.836  -3.129  0.00  0.00    +0.173 C 
BRANCH  17  19
ATOM     18  N   UNL     1      -1.033  -2.266  -1.513  0.00  0.00    -0.311 N 
ATOM     19  C   UNL     1      -2.229  -2.843  -1.741  0.00  0.00    +0.224 C 
ATOM     20  O   UNL     1      -2.834  -3.366  -0.829  0.00  0.00    -0.275 OA
ATOM     21  H   UNL     1      -0.549  -1.847  -2.243  0.00  0.00    +0.149 HD
BRANCH  18  22
ATOM     22  C   UNL     1      -0.461  -2.273  -0.164  0.00  0.00    +0.139 C 
BRANCH  22  28
ATOM     23  C   UNL     1       0.937  -0.208   0.049  0.00  0.00    +0.006 A 
ATOM     24  C   UNL     1       2.160   0.437   0.035  0.00  0.00    +0.020 A 
ATOM     25  C   UNL     1       3.317  -0.280  -0.208  0.00  0.00    +0.041 A 
ATOM     26  C   UNL     1       3.251  -1.643  -0.436  0.00  0.00    +0.020 A 
ATOM     27  C   UNL     1       2.028  -2.287  -0.422  0.00  0.00    +0.006 A 
ATOM     28  C   UNL     1       0.872  -1.570  -0.180  0.00  0.00    -0.030 A 
ATOM     29 CL   UNL     1       4.853   0.529  -0.226  0.00  0.00    -0.084 Cl
ENDBRANCH  22  28
ENDBRANCH  18  22
ENDBRANCH  17  19
ENDBRANCH  16  17
ENDBRANCH   1  16
TORSDOF 6
