REMARK  Name = ZINC62496261
REMARK  8 active torsions:
REMARK  status: ('A' for Active; 'I' for Inactive)
REMARK    1  A    between atoms: C_1  and  C_2
REMARK    2  A    between atoms: C_2  and  C_3
REMARK    3  A    between atoms: C_3  and  N_4
REMARK    4  A    between atoms: C_8  and  N_25
REMARK    5  A    between atoms: C_12  and  C_16
REMARK    6  A    between atoms: C_16  and  C_17
REMARK    7  A    between atoms: C_20  and  C_24
REMARK    8  A    between atoms: C_22  and  C_23
REMARK                            x       y       z     vdW  Elec       q    Type
REMARK                         _______ _______ _______ _____ _____    ______ ____
ROOT
ATOM      1  N   UNL     1       0.965  -2.510   2.123  0.00  0.00    -0.265 N 
ATOM      2  C   UNL     1      -0.042  -3.362   2.604  0.00  0.00    +0.078 A 
ATOM      3  C   UNL     1      -1.198  -2.839   3.163  0.00  0.00    +0.029 A 
ATOM      4  C   UNL     1      -2.188  -3.688   3.620  0.00  0.00    +0.025 A 
ATOM      5  C   UNL     1      -2.027  -5.064   3.520  0.00  0.00    +0.028 A 
ATOM      6  C   UNL     1      -0.868  -5.591   2.966  0.00  0.00    +0.070 A 
ATOM      7  C   UNL     1       0.127  -4.742   2.513  0.00  0.00    +0.145 A 
ATOM      8  O   UNL     1       1.280  -5.247   1.997  0.00  0.00    -0.477 OA
ATOM      9  C   UNL     1       1.925  -4.480   0.979  0.00  0.00    +0.263 C 
ATOM     10  C   UNL     1       1.967  -3.028   1.382  0.00  0.00    +0.261 C 
ATOM     11  O   UNL     1       2.899  -2.329   1.045  0.00  0.00    -0.271 OA
ENDROOT
BRANCH   5  12
ATOM     12  N   UNL     1      -3.034  -5.920   3.979  0.00  0.00    -0.358 N 
ATOM     13  H   UNL     1      -3.843  -5.552   4.367  0.00  0.00    +0.142 HD
ATOM     14  H   UNL     1      -2.922  -6.881   3.910  0.00  0.00    +0.142 HD
ENDBRANCH   5  12
BRANCH   1  15
ATOM     15  C   UNL     1       0.926  -1.075   2.417  0.00  0.00    +0.113 C 
BRANCH  15  17
ATOM     16  C   UNL     1       0.100   1.147   1.628  0.00  0.00    +0.005 C 
ATOM     17  C   UNL     1       0.141  -0.351   1.321  0.00  0.00    +0.016 C 
ENDBRANCH  15  17
ENDBRANCH   1  15
BRANCH   9  18
ATOM     18  C   UNL     1       1.147  -4.616  -0.332  0.00  0.00    +0.089 C 
BRANCH  18  19
ATOM     19  C   UNL     1       1.208  -6.045  -0.806  0.00  0.00    -0.040 A 
ATOM     20  C   UNL     1       0.149  -6.900  -0.562  0.00  0.00    +0.004 A 
ATOM     21  C   UNL     1       0.204  -8.210  -0.997  0.00  0.00    +0.003 A 
ATOM     22  C   UNL     1       1.319  -8.667  -1.676  0.00  0.00    -0.050 A 
ATOM     23  C   UNL     1       2.377  -7.812  -1.921  0.00  0.00    +0.007 A 
ATOM     24  C   UNL     1       2.319  -6.500  -1.490  0.00  0.00    -0.047 A 
ATOM     25  C   UNL     1       3.471  -5.566  -1.761  0.00  0.00    +0.044 C 
ATOM     26  C   UNL     1       1.380 -10.096  -2.150  0.00  0.00    +0.044 C 
ENDBRANCH  18  19
ENDBRANCH   9  18
TORSDOF 5
