REMARK  Name = ZINC39730029
REMARK  6 active torsions:
REMARK  status: ('A' for Active; 'I' for Inactive)
REMARK    1  A    between atoms: C_1  and  C_2
REMARK    2  A    between atoms: C_3  and  C_24
REMARK    3  A    between atoms: C_5  and  S_9
REMARK    4  A    between atoms: C_7  and  C_8
REMARK    5  A    between atoms: S_9  and  C_10
REMARK    6  A    between atoms: C_10  and  C_11
REMARK                            x       y       z     vdW  Elec       q    Type
REMARK                         _______ _______ _______ _____ _____    ______ ____
ROOT
ATOM      1  C   UNL     1       0.218  -6.567   1.808  0.00  0.00    +0.227 C 
ATOM      2  O   UNL     1       0.297  -7.396   0.927  0.00  0.00    -0.275 OA
ATOM      3  N   UNL     1       0.110  -6.958   3.094  0.00  0.00    -0.285 N 
ATOM      4  C   UNL     1      -0.867  -7.767   3.457  0.00  0.00    +0.036 C 
ATOM      5  C   UNL     1      -1.907  -8.142   2.491  0.00  0.00    +0.025 C 
ATOM      6  C   UNL     1      -2.908  -8.967   2.855  0.00  0.00    +0.032 C 
ATOM      7  C   UNL     1      -2.964  -9.497   4.221  0.00  0.00    +0.095 C 
ATOM      8  N   UNL     1      -3.790 -10.301   4.862  0.00  0.00    -0.190 NA
ATOM      9  C   UNL     1      -3.363 -10.458   6.126  0.00  0.00    +0.369 C 
ATOM     10  O   UNL     1      -3.988 -11.225   7.052  0.00  0.00    -0.243 OA
ATOM     11  N   UNL     1      -2.264  -9.777   6.351  0.00  0.00    -0.190 NA
ATOM     12  C   UNL     1      -1.924  -9.127   5.200  0.00  0.00    +0.097 C 
ATOM     13  C   UNL     1      -0.911  -8.300   4.835  0.00  0.00    +0.053 C 
ATOM     14  H   UNL     1       0.750  -6.645   3.752  0.00  0.00    +0.155 HD
ENDROOT
BRANCH   1  15
ATOM     15  C   UNL     1       0.241  -5.100   1.467  0.00  0.00    +0.173 C 
BRANCH  15  16
ATOM     16  S   UNL     1       0.394  -4.900  -0.330  0.00  0.00    -0.077 S 
BRANCH  16  21
ATOM     17  C   UNL     1       0.435   0.994  -1.122  0.00  0.00    +0.047 C 
ATOM     18  C   UNL     1       0.425  -0.500  -0.921  0.00  0.00    -0.008 A 
ATOM     19  C   UNL     1       0.522  -1.361  -2.004  0.00  0.00    +0.046 A 
ATOM     20  N   UNL     1       0.510  -2.666  -1.793  0.00  0.00    -0.227 NA
ATOM     21  C   UNL     1       0.407  -3.153  -0.565  0.00  0.00    +0.189 A 
ATOM     22  N   UNL     1       0.312  -2.358   0.491  0.00  0.00    -0.227 NA
ATOM     23  C   UNL     1       0.324  -1.043   0.350  0.00  0.00    +0.046 A 
ATOM     24  C   UNL     1       0.223  -0.145   1.556  0.00  0.00    +0.066 C 
ATOM     25  C   UNL     1       0.639  -0.815  -3.404  0.00  0.00    +0.066 C 
ENDBRANCH  16  21
ENDBRANCH  15  16
ENDBRANCH   1  15
TORSDOF 3
