REMARK  Name = ZINC13064237
REMARK  15 active torsions:
REMARK  status: ('A' for Active; 'I' for Inactive)
REMARK    1  A    between atoms: C_1  and  C_2
REMARK    2  A    between atoms: C_2  and  C_3
REMARK    3  A    between atoms: C_3  and  C_5
REMARK    4  A    between atoms: C_3  and  N_72
REMARK    5  A    between atoms: N_9  and  C_10
REMARK    6  A    between atoms: C_10  and  C_11
REMARK    7  A    between atoms: C_10  and  C_12
REMARK    8  A    between atoms: C_10  and  C_13
REMARK    9  A    between atoms: C_13  and  C_14
REMARK   10  A    between atoms: C_15  and  C_16
REMARK   11  A    between atoms: C_15  and  N_72
REMARK   12  A    between atoms: C_25  and  C_26
REMARK   13  A    between atoms: C_25  and  N_72
REMARK   14  A    between atoms: C_31  and  O_38
REMARK   15  A    between atoms: O_38  and  C_39
REMARK                            x       y       z     vdW  Elec       q    Type
REMARK                         _______ _______ _______ _____ _____    ______ ____
ROOT
ATOM      1  N   UNL     1      -8.350  -0.522   4.370  0.00  0.00    +0.392 N 
ATOM      2  H   UNL     1      -8.162  -0.347   5.364  0.00  0.00    -0.080 HD
ENDROOT
BRANCH   1   3
ATOM      3  C   UNL     1      -7.115  -1.020   3.727  0.00  0.00    +0.003 C 
BRANCH   3   4
ATOM      4  C   UNL     1      -6.334  -1.815   4.741  0.00  0.00    +0.139 A 
ATOM      5  N   UNL     1      -6.828  -2.564   5.697  0.00  0.00    -0.115 NA
ATOM      6  N   UNL     1      -5.842  -3.077   6.349  0.00  0.00    -0.023 NA
ATOM      7  N   UNL     1      -4.733  -2.675   5.835  0.00  0.00    -0.043 NA
ATOM      8  N   UNL     1      -4.994  -1.899   4.837  0.00  0.00    -0.225 N 
BRANCH   8   9
ATOM      9  C   UNL     1      -4.016  -1.232   3.974  0.00  0.00    +0.061 C 
ATOM     10  C   UNL     1      -4.306  -1.579   2.512  0.00  0.00    +0.036 C 
ATOM     11  C   UNL     1      -4.114   0.282   4.168  0.00  0.00    +0.036 C 
BRANCH   9  12
ATOM     12  C   UNL     1      -2.608  -1.703   4.340  0.00  0.00    +0.026 C 
ATOM     13  C   UNL     1      -1.587  -1.007   3.439  0.00  0.00    +0.006 C 
ENDBRANCH   9  12
ENDBRANCH   8   9
ENDBRANCH   3   4
BRANCH   3  15
ATOM     14  C   UNL     1      -8.120  -1.070   1.440  0.00  0.00    +0.002 C 
ATOM     15  C   UNL     1      -7.458  -1.912   2.533  0.00  0.00    -0.011 C 
ENDBRANCH   3  15
ENDBRANCH   1   3
BRANCH   1  16
ATOM     16  C   UNL     1      -9.422  -1.533   4.255  0.00  0.00    -0.041 C 
BRANCH  16  17
ATOM     17  C   UNL     1      -9.152  -2.638   5.243  0.00  0.00    -0.060 A 
ATOM     18  C   UNL     1      -8.747  -3.881   4.793  0.00  0.00    +0.005 A 
ATOM     19  C   UNL     1      -8.492  -4.897   5.696  0.00  0.00    +0.050 A 
ATOM     20  C   UNL     1      -8.654  -4.674   7.054  0.00  0.00    +0.166 A 
ATOM     21  C   UNL     1      -9.068  -3.424   7.506  0.00  0.00    +0.166 A 
ATOM     22  C   UNL     1      -9.315  -2.409   6.596  0.00  0.00    +0.051 A 
ATOM     23  O   UNL     1      -9.152  -3.458   8.868  0.00  0.00    -0.453 OA
ATOM     24  C   UNL     1      -9.181  -4.855   9.216  0.00  0.00    +0.466 C 
ATOM     25  O   UNL     1      -8.479  -5.492   8.133  0.00  0.00    -0.453 OA
ENDBRANCH  16  17
ENDBRANCH   1  16
BRANCH   1  26
ATOM     26  C   UNL     1      -8.777   0.742   3.732  0.00  0.00    -0.036 C 
BRANCH  26  27
ATOM     27  C   UNL     1      -7.829   1.837   4.145  0.00  0.00    +0.001 A 
ATOM     28  C   UNL     1      -6.845   2.234   3.298  0.00  0.00    +0.017 A 
ATOM     29  C   UNL     1      -5.940   3.300   3.729  0.00  0.00    -0.001 A 
ATOM     30  C   UNL     1      -4.908   3.751   2.898  0.00  0.00    +0.013 A 
ATOM     31  C   UNL     1      -4.083   4.750   3.323  0.00  0.00    +0.046 A 
ATOM     32  C   UNL     1      -4.253   5.320   4.585  0.00  0.00    +0.122 A 
ATOM     33  C   UNL     1      -5.268   4.888   5.421  0.00  0.00    +0.072 A 
ATOM     34  C   UNL     1      -6.121   3.876   5.002  0.00  0.00    +0.053 A 
ATOM     35  N   UNL     1      -7.141   3.426   5.814  0.00  0.00    -0.322 N 
ATOM     36  H   UNL     1      -7.264   3.823   6.691  0.00  0.00    +0.169 HD
ATOM     37  C   UNL     1      -7.966   2.445   5.409  0.00  0.00    +0.251 A 
ATOM     38  O   UNL     1      -8.856   2.073   6.154  0.00  0.00    -0.268 OA
BRANCH  32  39
ATOM     39  O   UNL     1      -3.419   6.310   4.994  0.00  0.00    -0.495 OA
ATOM     40  C   UNL     1      -2.392   6.710   4.085  0.00  0.00    +0.277 C 
ENDBRANCH  32  39
ENDBRANCH  26  27
ENDBRANCH   1  26
TORSDOF 10
