REMARK  Name = ZINC67460766
REMARK  8 active torsions:
REMARK  status: ('A' for Active; 'I' for Inactive)
REMARK    1  A    between atoms: C_1  and  C_2
REMARK    2  A    between atoms: C_3  and  C_8
REMARK    3  A    between atoms: N_6  and  C_7
REMARK    4  A    between atoms: C_8  and  C_10
REMARK    5  A    between atoms: C_8  and  N_11
REMARK    6  A    between atoms: C_17  and  C_20
REMARK    7  A    between atoms: C_20  and  C_22
REMARK    8  A    between atoms: C_20  and  O_29
REMARK                            x       y       z     vdW  Elec       q    Type
REMARK                         _______ _______ _______ _____ _____    ______ ____
ROOT
ATOM      1  N   UNL     1       1.129   0.180  -4.987  0.00  0.00    -0.293 N 
ATOM      2  C   UNL     1       1.028  -1.105  -4.592  0.00  0.00    +0.303 C 
ATOM      3  O   UNL     1       0.620  -1.368  -3.477  0.00  0.00    -0.253 OA
ATOM      4  N   UNL     1       1.379  -2.098  -5.433  0.00  0.00    -0.286 N 
ATOM      5  C   UNL     1       1.162  -3.503  -5.064  0.00  0.00    +0.109 C 
ATOM      6  C   UNL     1       2.486  -4.261  -5.207  0.00  0.00    +0.025 C 
ATOM      7  C   UNL     1       3.034  -4.060  -6.621  0.00  0.00    +0.025 C 
ATOM      8  C   UNL     1       3.300  -2.572  -6.861  0.00  0.00    +0.025 C 
ATOM      9  C   UNL     1       1.980  -1.795  -6.739  0.00  0.00    +0.109 C 
ATOM     10  H   UNL     1       1.522   0.393  -5.848  0.00  0.00    +0.151 HD
ENDROOT
BRANCH   1  11
ATOM     11  C   UNL     1       0.646   1.254  -4.116  0.00  0.00    +0.105 C 
ATOM     12  C   UNL     1       1.740   1.629  -3.114  0.00  0.00    +0.033 C 
BRANCH  11  15
ATOM     13  C   UNL     1      -1.228   3.608  -3.257  0.00  0.00    +0.065 C 
ATOM     14  C   UNL     1      -0.515   3.477  -4.579  0.00  0.00    +0.041 A 
ATOM     15  C   UNL     1       0.295   2.459  -4.951  0.00  0.00    +0.013 A 
ATOM     16  C   UNL     1       0.750   2.722  -6.247  0.00  0.00    +0.140 A 
ATOM     17  N   UNL     1       0.231   3.857  -6.639  0.00  0.00    -0.179 NA
ATOM     18  N   UNL     1      -0.576   4.350  -5.605  0.00  0.00    -0.271 N 
ATOM     19  C   UNL     1      -1.346   5.596  -5.633  0.00  0.00    +0.172 C 
ENDBRANCH  11  15
ENDBRANCH   1  11
BRANCH   7  20
ATOM     20  C   UNL     1       4.339  -4.843  -6.779  0.00  0.00    +0.148 C 
BRANCH  20  21
ATOM     21  C   UNL     1       4.878  -4.645  -8.172  0.00  0.00    -0.019 A 
ATOM     22  C   UNL     1       4.351  -5.368  -9.226  0.00  0.00    +0.007 A 
ATOM     23  C   UNL     1       4.846  -5.188 -10.504  0.00  0.00    +0.020 A 
ATOM     24  C   UNL     1       5.869  -4.283 -10.728  0.00  0.00    +0.041 A 
ATOM     25  C   UNL     1       6.396  -3.560  -9.673  0.00  0.00    +0.020 A 
ATOM     26  C   UNL     1       5.896  -3.737  -8.396  0.00  0.00    +0.007 A 
ATOM     27 CL   UNL     1       6.491  -4.056 -12.333  0.00  0.00    -0.084 Cl
ENDBRANCH  20  21
BRANCH  20  28
ATOM     28  O   UNL     1       4.090  -6.232  -6.557  0.00  0.00    -0.387 OA
ATOM     29  H   UNL     1       3.449  -6.620  -7.168  0.00  0.00    +0.210 HD
ENDBRANCH  20  28
ENDBRANCH   7  20
TORSDOF 5
