REMARK  Name = ZINC15947742
REMARK  7 active torsions:
REMARK  status: ('A' for Active; 'I' for Inactive)
REMARK    1  A    between atoms: C_1  and  C_2
REMARK    2  A    between atoms: C_11  and  O_27
REMARK    3  A    between atoms: C_13  and  C_16
REMARK    4  A    between atoms: C_18  and  O_25
REMARK    5  A    between atoms: C_19  and  O_23
REMARK    6  A    between atoms: O_23  and  C_24
REMARK    7  A    between atoms: O_25  and  C_26
REMARK                            x       y       z     vdW  Elec       q    Type
REMARK                         _______ _______ _______ _____ _____    ______ ____
ROOT
ATOM      1  C   UNL     1      -0.019   1.526   0.010  0.00  0.00    +0.008 C 
ATOM      2  C   UNL     1       0.002  -0.004   0.002  0.00  0.00    -0.009 C 
ATOM      3  C   UNL     1       0.724  -0.500  -1.254  0.00  0.00    +0.008 C 
ATOM      4  C   UNL     1       0.537  -2.012  -1.399  0.00  0.00    +0.037 C 
ATOM      5  C   UNL     1       0.939  -2.682  -0.093  0.00  0.00    -0.023 A 
ATOM      6  C   UNL     1       1.022  -1.976   1.058  0.00  0.00    -0.004 A 
ATOM      7  S   UNL     1       1.515  -3.161   2.281  0.00  0.00    -0.078 S 
ATOM      8  C   UNL     1       1.602  -4.516   1.329  0.00  0.00    +0.080 A 
ATOM      9  C   UNL     1       1.260  -4.091   0.040  0.00  0.00    +0.068 A 
ATOM     10  C   UNL     1       1.270  -5.109  -1.042  0.00  0.00    +0.220 C 
ATOM     11  N   UNL     1       1.347  -6.365  -0.692  0.00  0.00    -0.223 NA
ATOM     12  C   UNL     1       1.361  -6.839   0.686  0.00  0.00    +0.224 C 
ATOM     13  N   UNL     1       1.918  -5.828   1.603  0.00  0.00    -0.313 N 
ATOM     14  C   UNL     1       0.750  -0.515   1.242  0.00  0.00    +0.046 C 
ATOM     15  H   UNL     1       2.476  -6.073   2.358  0.00  0.00    +0.149 HD
ENDROOT
BRANCH  12  16
ATOM     16  C   UNL     1      -0.050  -7.161   1.109  0.00  0.00    -0.001 A 
ATOM     17  C   UNL     1      -0.969  -7.595   0.172  0.00  0.00    +0.056 A 
ATOM     18  C   UNL     1      -2.265  -7.892   0.559  0.00  0.00    +0.163 A 
ATOM     19  C   UNL     1      -2.640  -7.752   1.893  0.00  0.00    +0.175 A 
ATOM     20  C   UNL     1      -1.714  -7.316   2.827  0.00  0.00    +0.059 A 
ATOM     21  C   UNL     1      -0.419  -7.026   2.434  0.00  0.00    +0.025 A 
ATOM     22  I   UNL     1      -2.272  -7.102   4.835  0.00  0.00    -0.040 I 
BRANCH  19  23
ATOM     23  O   UNL     1      -3.912  -8.042   2.277  0.00  0.00    -0.490 OA
ATOM     24  C   UNL     1      -4.176  -9.386   2.684  0.00  0.00    +0.277 C 
ENDBRANCH  19  23
BRANCH  18  25
ATOM     25  O   UNL     1      -3.171  -8.320  -0.361  0.00  0.00    -0.491 OA
ATOM     26  C   UNL     1      -2.716  -8.440  -1.711  0.00  0.00    +0.277 C 
ENDBRANCH  18  25
ENDBRANCH  12  16
BRANCH  10  27
ATOM     27  O   UNL     1       1.200  -4.748  -2.344  0.00  0.00    -0.492 OA
ATOM     28  H   UNL     1       1.214  -5.493  -2.960  0.00  0.00    +0.294 HD
ENDBRANCH  10  27
TORSDOF 4
