REMARK  Name = ZINC63383498
REMARK  10 active torsions:
REMARK  status: ('A' for Active; 'I' for Inactive)
REMARK    1  A    between atoms: C_1  and  C_2
REMARK    2  A    between atoms: C_2  and  C_3
REMARK    3  A    between atoms: C_3  and  N_4
REMARK    4  A    between atoms: C_5  and  C_7
REMARK    5  A    between atoms: C_7  and  C_9
REMARK    6  A    between atoms: C_7  and  N_14
REMARK    7  A    between atoms: C_9  and  C_11
REMARK    8  A    between atoms: C_9  and  C_12
REMARK    9  A    between atoms: C_12  and  C_13
REMARK   10  A    between atoms: C_15  and  C_17
REMARK                            x       y       z     vdW  Elec       q    Type
REMARK                         _______ _______ _______ _____ _____    ______ ____
ROOT
ATOM      1  C   UNL     1      -5.971  -6.728  -0.471  0.00  0.00    +0.167 C 
ATOM      2  C   UNL     1      -6.962  -6.065   0.506  0.00  0.00    +0.065 C 
ATOM      3  C   UNL     1      -6.841  -6.790   1.823  0.00  0.00    -0.034 C 
ATOM      4  C   UNL     1      -6.626  -6.329   3.051  0.00  0.00    -0.001 A 
ATOM      5  C   UNL     1      -6.524  -4.959   3.579  0.00  0.00    +0.010 A 
ATOM      6  C   UNL     1      -6.273  -4.846   4.910  0.00  0.00    +0.001 A 
ATOM      7  C   UNL     1      -6.117  -5.946   5.760  0.00  0.00    +0.002 A 
ATOM      8  C   UNL     1      -6.204  -7.240   5.362  0.00  0.00    +0.026 A 
ATOM      9  C   UNL     1      -6.471  -7.487   3.984  0.00  0.00    +0.043 A 
ATOM     10  N   UNL     1      -6.623  -8.608   3.345  0.00  0.00    -0.375 N 
ATOM     11  C   UNL     1      -6.943  -8.306   1.948  0.00  0.00    +0.131 C 
ATOM     12  C   UNL     1      -5.900  -8.891   0.990  0.00  0.00    +0.134 C 
ATOM     13  N   UNL     1      -6.054  -8.185  -0.306  0.00  0.00    -0.276 N 
ATOM     14  C   UNL     1      -6.291  -9.091  -1.272  0.00  0.00    +0.248 C 
ATOM     15  O   UNL     1      -6.389  -8.837  -2.456  0.00  0.00    -0.270 OA
ATOM     16  C   UNL     1      -6.414 -10.429  -0.689  0.00  0.00    +0.042 A 
ATOM     17  C   UNL     1      -6.176 -10.334   0.718  0.00  0.00    -0.013 A 
ATOM     18  C   UNL     1      -6.222 -11.431   1.550  0.00  0.00    +0.006 A 
ATOM     19  C   UNL     1      -6.509 -12.659   0.960  0.00  0.00    +0.000 A 
ATOM     20  C   UNL     1      -6.736 -12.779  -0.397  0.00  0.00    +0.001 A 
ATOM     21  C   UNL     1      -6.701 -11.661  -1.283  0.00  0.00    +0.013 A 
ATOM     22  H   UNL     1      -6.537  -9.495   3.728  0.00  0.00    +0.160 HD
ENDROOT
BRANCH   1  24
ATOM     23  N   UNL     1      -4.264  -4.952  -0.245  0.00  0.00    -0.302 N 
ATOM     24  C   UNL     1      -4.571  -6.262  -0.166  0.00  0.00    +0.235 C 
ATOM     25  O   UNL     1      -3.720  -7.066   0.151  0.00  0.00    -0.274 OA
ATOM     26  H   UNL     1      -4.945  -4.309  -0.498  0.00  0.00    +0.150 HD
BRANCH  23  27
ATOM     27  C   UNL     1      -2.903  -4.500   0.052  0.00  0.00    +0.162 C 
BRANCH  27  29
ATOM     28  N   UNL     1      -1.898  -2.538   1.174  0.00  0.00    -0.314 N 
ATOM     29  C   UNL     1      -2.938  -3.059   0.493  0.00  0.00    +0.234 C 
ATOM     30  O   UNL     1      -3.901  -2.369   0.236  0.00  0.00    -0.274 OA
ATOM     31  H   UNL     1      -1.159  -3.107   1.442  0.00  0.00    +0.149 HD
BRANCH  28  32
ATOM     32  C   UNL     1      -1.883  -1.112   1.509  0.00  0.00    +0.104 C 
BRANCH  32  34
ATOM     33  C   UNL     1      -0.586   0.708   2.627  0.00  0.00    +0.005 C 
ATOM     34  C   UNL     1      -0.601  -0.781   2.276  0.00  0.00    +0.015 C 
ENDBRANCH  32  34
ENDBRANCH  28  32
ENDBRANCH  27  29
BRANCH  27  35
ATOM     35  C   UNL     1      -2.038  -4.628  -1.204  0.00  0.00    +0.015 C 
ATOM     36  C   UNL     1      -2.711  -3.892  -2.364  0.00  0.00    +0.010 C 
BRANCH  35  37
ATOM     37  C   UNL     1      -1.875  -6.106  -1.562  0.00  0.00    +0.002 C 
ATOM     38  C   UNL     1      -1.051  -6.806  -0.480  0.00  0.00    +0.004 C 
ENDBRANCH  35  37
ENDBRANCH  27  35
ENDBRANCH  23  27
ENDBRANCH   1  24
TORSDOF 7
