REMARK  Name = ZINC41847928
REMARK  6 active torsions:
REMARK  status: ('A' for Active; 'I' for Inactive)
REMARK    1  A    between atoms: C_8  and  C_11
REMARK    2  A    between atoms: C_11  and  N_12
REMARK    3  A    between atoms: C_13  and  C_15
REMARK    4  A    between atoms: N_17  and  C_18
REMARK    5  A    between atoms: C_21  and  C_24
REMARK    6  A    between atoms: C_24  and  C_25
REMARK                            x       y       z     vdW  Elec       q    Type
REMARK                         _______ _______ _______ _____ _____    ______ ____
ROOT
ATOM      1  C   UNL     1       7.530  -4.034  -0.075  0.00  0.00    +0.303 C 
ATOM      2  O   UNL     1       7.900  -3.199  -0.875  0.00  0.00    -0.265 OA
ATOM      3  N   UNL     1       8.410  -4.922   0.428  0.00  0.00    -0.278 N 
ATOM      4  H   UNL     1       8.130  -5.545   1.116  0.00  0.00    +0.155 HD
ENDROOT
BRANCH   3   5
ATOM      5  C   UNL     1       9.726  -4.944  -0.041  0.00  0.00    +0.034 A 
ATOM      6  C   UNL     1      10.405  -6.151  -0.152  0.00  0.00    +0.023 A 
ATOM      7  C   UNL     1      11.705  -6.169  -0.617  0.00  0.00    +0.006 A 
ATOM      8  C   UNL     1      12.331  -4.988  -0.971  0.00  0.00    -0.039 A 
ATOM      9  C   UNL     1      11.658  -3.785  -0.862  0.00  0.00    +0.006 A 
ATOM     10  C   UNL     1      10.356  -3.760  -0.404  0.00  0.00    +0.023 A 
BRANCH   8  11
ATOM     11  C   UNL     1      13.751  -5.013  -1.477  0.00  0.00    +0.130 C 
BRANCH  11  12
ATOM     12  C   UNL     1      13.747  -5.167  -2.976  0.00  0.00    +0.215 C 
ATOM     13  O   UNL     1      12.695  -5.249  -3.575  0.00  0.00    -0.276 OA
ATOM     14  N   UNL     1      14.912  -5.214  -3.652  0.00  0.00    -0.329 N 
ATOM     15  H   UNL     1      15.753  -5.148  -3.174  0.00  0.00    +0.145 HD
ATOM     16  H   UNL     1      14.909  -5.313  -4.617  0.00  0.00    +0.145 HD
ENDBRANCH  11  12
ENDBRANCH   8  11
ENDBRANCH   3   5
BRANCH   1  18
ATOM     17  N   UNL     1       5.219  -3.189  -0.153  0.00  0.00    -0.304 N 
ATOM     18  C   UNL     1       6.099  -4.077   0.350  0.00  0.00    +0.299 C 
ATOM     19  O   UNL     1       5.729  -4.912   1.150  0.00  0.00    -0.265 OA
ATOM     20  H   UNL     1       5.514  -2.522  -0.792  0.00  0.00    +0.149 HD
BRANCH  17  21
ATOM     21  C   UNL     1       3.815  -3.232   0.265  0.00  0.00    +0.149 C 
BRANCH  21  29
ATOM     22  C   UNL     1      -0.006   1.393   0.009  0.00  0.00    +0.000 A 
ATOM     23  C   UNL     1       1.186   2.093  -0.008  0.00  0.00    +0.004 A 
ATOM     24  C   UNL     1       2.389   1.420  -0.020  0.00  0.00    +0.046 A 
ATOM     25  C   UNL     1       2.414   0.028  -0.016  0.00  0.00    +0.124 A 
ATOM     26  C   UNL     1       1.211  -0.665  -0.007  0.00  0.00    -0.002 A 
ATOM     27  C   UNL     1       0.010   0.009   0.010  0.00  0.00    +0.007 A 
ATOM     28  C   UNL     1       1.548  -2.143  -0.029  0.00  0.00    +0.085 C 
ATOM     29  C   UNL     1       3.037  -2.125  -0.450  0.00  0.00    +0.195 C 
ATOM     30  O   UNL     1       3.474  -0.827  -0.015  0.00  0.00    -0.487 OA
ENDBRANCH  21  29
ENDBRANCH  17  21
ENDBRANCH   1  18
TORSDOF 6
