REMARK  Name = ZINC06559780
REMARK  6 active torsions:
REMARK  status: ('A' for Active; 'I' for Inactive)
REMARK    1  A    between atoms: C_1  and  C_2
REMARK    2  A    between atoms: C_12  and  C_14
REMARK    3  A    between atoms: C_14  and  C_16
REMARK    4  A    between atoms: C_14  and  S_17
REMARK    5  A    between atoms: S_17  and  C_18
REMARK    6  A    between atoms: N_23  and  C_24
REMARK                            x       y       z     vdW  Elec       q    Type
REMARK                         _______ _______ _______ _____ _____    ______ ____
ROOT
ATOM      1  C   UNL     1      -2.007   3.482   1.023  0.00  0.00    +0.136 C 
ATOM      2  C   UNL     1      -1.382   2.824  -0.209  0.00  0.00    +0.029 C 
ENDROOT
BRANCH   1  13
ATOM      3  C   UNL     1      -6.229   3.253   2.301  0.00  0.00    +0.029 C 
ATOM      4  C   UNL     1      -5.656   2.249   1.299  0.00  0.00    +0.083 C 
ATOM      5  C   UNL     1      -5.945   0.811   1.760  0.00  0.00    +0.059 C 
ATOM      6  C   UNL     1      -4.579   0.190   1.949  0.00  0.00    -0.024 A 
ATOM      7  C   UNL     1      -4.209  -1.079   2.351  0.00  0.00    +0.005 A 
ATOM      8  C   UNL     1      -2.872  -1.419   2.432  0.00  0.00    +0.000 A 
ATOM      9  C   UNL     1      -1.903  -0.480   2.124  0.00  0.00    +0.002 A 
ATOM     10  C   UNL     1      -2.268   0.788   1.727  0.00  0.00    +0.024 A 
ATOM     11  C   UNL     1      -3.617   1.136   1.634  0.00  0.00    +0.040 A 
ATOM     12  N   UNL     1      -4.195   2.352   1.256  0.00  0.00    -0.267 N 
ATOM     13  C   UNL     1      -3.508   3.456   0.899  0.00  0.00    +0.233 C 
ATOM     14  O   UNL     1      -4.099   4.428   0.478  0.00  0.00    -0.274 OA
ENDBRANCH   1  13
BRANCH   1  15
ATOM     15  S   UNL     1      -1.440   5.201   1.143  0.00  0.00    -0.084 S 
BRANCH  15  16
ATOM     16  C   UNL     1       0.293   5.059   1.429  0.00  0.00    +0.161 A 
ATOM     17  N   UNL     1       1.036   3.975   1.541  0.00  0.00    -0.133 NA
ATOM     18  N   UNL     1       2.389   4.092   1.762  0.00  0.00    -0.125 NA
ATOM     19  C   UNL     1       2.935   5.287   1.871  0.00  0.00    +0.187 A 
ATOM     20  S   UNL     1       1.513   6.345   1.650  0.00  0.00    -0.024 S 
ATOM     21  N   UNL     1       4.263   5.632   2.097  0.00  0.00    -0.292 N 
ATOM     22  H   UNL     1       4.507   6.561   2.232  0.00  0.00    +0.154 HD
BRANCH  21  23
ATOM     23  C   UNL     1       5.246   4.640   2.130  0.00  0.00    +0.033 A 
ATOM     24  C   UNL     1       6.354   4.785   2.956  0.00  0.00    +0.023 A 
ATOM     25  C   UNL     1       7.322   3.801   2.989  0.00  0.00    +0.002 A 
ATOM     26  C   UNL     1       7.194   2.676   2.195  0.00  0.00    +0.000 A 
ATOM     27  C   UNL     1       6.095   2.531   1.368  0.00  0.00    +0.002 A 
ATOM     28  C   UNL     1       5.121   3.509   1.333  0.00  0.00    +0.023 A 
ENDBRANCH  21  23
ENDBRANCH  15  16
ENDBRANCH   1  15
TORSDOF 4
