REMARK  Name = ZINC39916352
REMARK  2 active torsions:
REMARK  status: ('A' for Active; 'I' for Inactive)
REMARK    1  A    between atoms: C_1  and  C_2
REMARK    2  A    between atoms: C_5  and  C_8
REMARK                            x       y       z     vdW  Elec       q    Type
REMARK                         _______ _______ _______ _____ _____    ______ ____
ROOT
ATOM      1  C   UNL     1       0.059  -4.275  -0.021  0.00  0.00    +0.156 C 
ATOM      2  C   UNL     1      -1.347  -4.806   0.238  0.00  0.00    +0.149 C 
ATOM      3  C   UNL     1      -1.682  -4.454   1.673  0.00  0.00    +0.034 C 
ATOM      4  C   UNL     1      -2.932  -3.890   1.919  0.00  0.00    +0.014 A 
ATOM      5  C   UNL     1      -3.372  -3.623   3.229  0.00  0.00    +0.011 A 
ATOM      6  C   UNL     1      -4.619  -3.113   3.429  0.00  0.00    +0.001 A 
ATOM      7  C   UNL     1      -5.467  -2.841   2.361  0.00  0.00    +0.002 A 
ATOM      8  C   UNL     1      -5.088  -3.058   1.069  0.00  0.00    +0.024 A 
ATOM      9  C   UNL     1      -3.813  -3.575   0.789  0.00  0.00    +0.042 A 
ATOM     10  N   UNL     1      -3.425  -3.745  -0.483  0.00  0.00    -0.284 N 
ATOM     11  C   UNL     1      -2.275  -4.318  -0.845  0.00  0.00    +0.228 C 
ATOM     12  O   UNL     1      -1.968  -4.436  -2.017  0.00  0.00    -0.275 OA
ATOM     13  N   UNL     1      -0.757  -4.631   2.625  0.00  0.00    -0.289 N 
ATOM     14  C   UNL     1       0.544  -4.923   2.254  0.00  0.00    +0.186 C 
ATOM     15  N   UNL     1       0.955  -4.760   1.032  0.00  0.00    -0.246 NA
ATOM     16  N   UNL     1       1.425  -5.397   3.202  0.00  0.00    -0.266 N 
ATOM     17  C   UNL     1       2.729  -5.694   2.848  0.00  0.00    +0.165 A 
ATOM     18  N   UNL     1       3.309  -5.585   1.675  0.00  0.00    -0.225 NA
ATOM     19  C   UNL     1       4.603  -5.914   1.472  0.00  0.00    +0.080 A 
ATOM     20  C   UNL     1       5.343  -5.845   0.269  0.00  0.00    +0.029 A 
ATOM     21  C   UNL     1       6.661  -6.221   0.235  0.00  0.00    +0.002 A 
ATOM     22  C   UNL     1       7.313  -6.680   1.370  0.00  0.00    +0.001 A 
ATOM     23  C   UNL     1       6.620  -6.760   2.564  0.00  0.00    +0.017 A 
ATOM     24  C   UNL     1       5.301  -6.385   2.608  0.00  0.00    +0.041 A 
ATOM     25  S   UNL     1       4.055  -6.315   3.873  0.00  0.00    -0.052 S 
ATOM     26  H   UNL     1      -0.995  -4.556   3.562  0.00  0.00    +0.155 HD
ATOM     27  H   UNL     1       1.130  -5.523   4.118  0.00  0.00    +0.157 HD
ATOM     28  H   UNL     1      -4.021  -3.443  -1.187  0.00  0.00    +0.155 HD
ENDROOT
BRANCH   1  33
ATOM     29  C   UNL     1      -0.018   1.503   0.010  0.00  0.00    +0.044 C 
ATOM     30  C   UNL     1       0.002  -0.004   0.002  0.00  0.00    -0.050 A 
ATOM     31  C   UNL     1       0.006  -0.689  -1.199  0.00  0.00    +0.004 A 
ATOM     32  C   UNL     1       0.025  -2.071  -1.206  0.00  0.00    +0.006 A 
ATOM     33  C   UNL     1       0.040  -2.768  -0.013  0.00  0.00    -0.022 A 
ATOM     34  C   UNL     1       0.037  -2.084   1.188  0.00  0.00    +0.006 A 
ATOM     35  C   UNL     1       0.023  -0.702   1.195  0.00  0.00    +0.004 A 
ENDBRANCH   1  33
TORSDOF 1
