REMARK  Name = ZINC02569007
REMARK  9 active torsions:
REMARK  status: ('A' for Active; 'I' for Inactive)
REMARK    1  A    between atoms: C_1  and  C_2
REMARK    2  A    between atoms: C_2  and  C_3
REMARK    3  A    between atoms: C_9  and  C_23
REMARK    4  A    between atoms: C_11  and  C_13
REMARK    5  A    between atoms: C_16  and  C_19
REMARK    6  A    between atoms: C_19  and  C_20
REMARK    7  A    between atoms: C_20  and  C_21
REMARK    8  A    between atoms: C_20  and  C_22
REMARK    9  A    between atoms: N_25  and  N_26
REMARK                            x       y       z     vdW  Elec       q    Type
REMARK                         _______ _______ _______ _____ _____    ______ ____
ROOT
ATOM      1  C   UNL     1      -5.632   3.368   8.691  0.00  0.00    -0.047 A 
ATOM      2  C   UNL     1      -5.948   2.158   8.075  0.00  0.00    +0.006 A 
ATOM      3  C   UNL     1      -5.305   1.757   6.945  0.00  0.00    +0.028 A 
ATOM      4  C   UNL     1      -4.304   2.572   6.384  0.00  0.00    +0.072 A 
ATOM      5  C   UNL     1      -3.987   3.802   7.014  0.00  0.00    +0.013 A 
ATOM      6  C   UNL     1      -4.670   4.183   8.175  0.00  0.00    +0.014 A 
ATOM      7  C   UNL     1      -2.978   4.626   6.449  0.00  0.00    +0.049 A 
ATOM      8  C   UNL     1      -2.346   4.181   5.298  0.00  0.00    +0.042 A 
ATOM      9  C   UNL     1      -2.719   2.950   4.737  0.00  0.00    +0.072 A 
ATOM     10  N   UNL     1      -3.663   2.203   5.274  0.00  0.00    -0.247 NA
ENDROOT
BRANCH   9  11
ATOM     11  C   UNL     1      -2.039   2.482   3.505  0.00  0.00    +0.000 A 
ATOM     12  C   UNL     1      -2.394   1.262   2.931  0.00  0.00    +0.010 A 
ATOM     13  C   UNL     1      -1.757   0.831   1.785  0.00  0.00    +0.004 A 
ATOM     14  C   UNL     1      -0.768   1.606   1.207  0.00  0.00    -0.047 A 
ATOM     15  C   UNL     1      -0.408   2.814   1.775  0.00  0.00    +0.004 A 
ATOM     16  C   UNL     1      -1.042   3.259   2.918  0.00  0.00    +0.010 A 
BRANCH  14  17
ATOM     17  C   UNL     1      -0.076   1.129  -0.044  0.00  0.00    +0.038 C 
BRANCH  17  18
ATOM     18  C   UNL     1      -0.836   1.636  -1.272  0.00  0.00    -0.013 C 
ATOM     19  C   UNL     1      -0.067   1.258  -2.539  0.00  0.00    +0.007 C 
ATOM     20  C   UNL     1      -2.226   0.998  -1.310  0.00  0.00    +0.007 C 
ENDBRANCH  17  18
ENDBRANCH  14  17
ENDBRANCH   9  11
BRANCH   7  21
ATOM     21  C   UNL     1      -2.612   5.918   7.070  0.00  0.00    +0.258 C 
ATOM     22  O   UNL     1      -3.249   6.339   8.015  0.00  0.00    -0.269 OA
ATOM     23  N   UNL     1      -1.573   6.627   6.587  0.00  0.00    -0.250 N 
ATOM     24  H   UNL     1      -1.065   6.290   5.832  0.00  0.00    +0.169 HD
BRANCH  23  25
ATOM     25  N   UNL     1      -1.235   7.820   7.160  0.00  0.00    -0.254 NA
ATOM     26  H   UNL     1      -1.058   7.710   8.147  0.00  0.00    +0.140 HD
ATOM     27  H   UNL     1      -0.442   8.233   6.694  0.00  0.00    +0.140 HD
ENDBRANCH  23  25
ENDBRANCH   7  21
BRANCH   1  29
ATOM     28  C   UNL     1      -5.619   3.251  11.168  0.00  0.00    +0.009 C 
ATOM     29  C   UNL     1      -6.365   3.780   9.941  0.00  0.00    +0.032 C 
ENDBRANCH   1  29
TORSDOF 6
