REMARK  Name = ZINC65006072
REMARK  12 active torsions:
REMARK  status: ('A' for Active; 'I' for Inactive)
REMARK    1  A    between atoms: C_1  and  C_2
REMARK    2  A    between atoms: C_2  and  O_3
REMARK    3  A    between atoms: O_3  and  C_4
REMARK    4  A    between atoms: C_4  and  C_5
REMARK    5  A    between atoms: C_5  and  C_6
REMARK    6  A    between atoms: C_6  and  N_7
REMARK    7  A    between atoms: C_8  and  C_10
REMARK    8  A    between atoms: C_10  and  C_12
REMARK    9  A    between atoms: C_10  and  C_13
REMARK   10  A    between atoms: C_19  and  C_21
REMARK   11  A    between atoms: C_28  and  C_30
REMARK   12  A    between atoms: C_33  and  C_36
REMARK                            x       y       z     vdW  Elec       q    Type
REMARK                         _______ _______ _______ _____ _____    ______ ____
ROOT
ATOM      1  C   UNL     1      -6.422  -7.079   0.934  0.00  0.00    +0.004 C 
ATOM      2  C   UNL     1      -5.636  -7.952   1.915  0.00  0.00    +0.023 C 
ATOM      3  C   UNL     1      -5.721  -9.416   1.471  0.00  0.00    +0.108 C 
ATOM      4  N   UNL     1      -7.136  -9.787   1.332  0.00  0.00    -0.298 N 
ATOM      5  C   UNL     1      -8.003  -8.959   0.483  0.00  0.00    +0.108 C 
ATOM      6  C   UNL     1      -7.893  -7.500   0.938  0.00  0.00    +0.023 C 
ATOM      7  C   UNL     1      -7.629 -10.866   1.972  0.00  0.00    +0.247 C 
ATOM      8  O   UNL     1      -6.887 -11.582   2.616  0.00  0.00    -0.270 OA
ENDROOT
BRANCH   7   9
ATOM      9  C   UNL     1      -9.070 -11.178   1.891  0.00  0.00    +0.039 A 
ATOM     10  C   UNL     1      -9.803 -11.408   3.062  0.00  0.00    +0.017 A 
ATOM     11  C   UNL     1     -11.136 -11.698   2.999  0.00  0.00    +0.049 A 
ATOM     12  C   UNL     1     -11.780 -11.768   1.771  0.00  0.00    +0.156 A 
ATOM     13  C   UNL     1     -11.059 -11.539   0.585  0.00  0.00    +0.111 A 
ATOM     14  C   UNL     1      -9.699 -11.238   0.650  0.00  0.00    +0.044 A 
ATOM     15  N   UNL     1     -11.941 -11.673  -0.439  0.00  0.00    -0.209 NA
ATOM     16  C   UNL     1     -13.118 -11.962   0.055  0.00  0.00    +0.228 A 
ATOM     17  O   UNL     1     -13.052 -12.026   1.398  0.00  0.00    -0.435 OA
BRANCH  16  18
ATOM     18  C   UNL     1     -14.341 -12.184  -0.745  0.00  0.00    +0.037 A 
ATOM     19  C   UNL     1     -14.293 -12.097  -2.137  0.00  0.00    +0.013 A 
ATOM     20  C   UNL     1     -15.439 -12.305  -2.878  0.00  0.00    +0.004 A 
ATOM     21  C   UNL     1     -16.632 -12.599  -2.243  0.00  0.00    -0.050 A 
ATOM     22  C   UNL     1     -16.686 -12.687  -0.864  0.00  0.00    +0.004 A 
ATOM     23  C   UNL     1     -15.547 -12.487  -0.112  0.00  0.00    +0.013 A 
ATOM     24  C   UNL     1     -17.880 -12.825  -3.058  0.00  0.00    +0.044 C 
ENDBRANCH  16  18
ENDBRANCH   7   9
BRANCH   1  25
ATOM     25  C   UNL     1      -6.311  -5.612   1.355  0.00  0.00    +0.075 C 
ATOM     26  C   UNL     1      -7.094  -4.739   0.373  0.00  0.00    +0.017 C 
BRANCH  25  28
ATOM     27  N   UNL     1      -4.521  -3.938   1.691  0.00  0.00    -0.315 N 
ATOM     28  C   UNL     1      -4.862  -5.197   1.351  0.00  0.00    +0.216 C 
ATOM     29  O   UNL     1      -4.003  -5.995   1.042  0.00  0.00    -0.276 OA
ATOM     30  H   UNL     1      -5.208  -3.299   1.938  0.00  0.00    +0.149 HD
BRANCH  27  31
ATOM     31  C   UNL     1      -3.113  -3.534   1.687  0.00  0.00    +0.106 C 
BRANCH  31  32
ATOM     32  C   UNL     1      -3.002  -2.067   2.108  0.00  0.00    +0.047 C 
BRANCH  32  33
ATOM     33  C   UNL     1      -1.531  -1.646   2.103  0.00  0.00    +0.161 C 
BRANCH  33  34
ATOM     34  O   UNL     1      -1.427  -0.276   2.497  0.00  0.00    -0.380 OA
BRANCH  34  36
ATOM     35  C   UNL     1      -0.097   1.688   2.958  0.00  0.00    +0.034 C 
ATOM     36  C   UNL     1      -0.087   0.221   2.526  0.00  0.00    +0.156 C 
ENDBRANCH  34  36
ENDBRANCH  33  34
ENDBRANCH  32  33
ENDBRANCH  31  32
ENDBRANCH  27  31
ENDBRANCH  25  28
ENDBRANCH   1  25
TORSDOF 9
