REMARK  Name = ZINC12874568
REMARK  8 active torsions:
REMARK  status: ('A' for Active; 'I' for Inactive)
REMARK    1  A    between atoms: C_1  and  C_2
REMARK    2  A    between atoms: C_2  and  O_3
REMARK    3  A    between atoms: O_3  and  C_4
REMARK    4  A    between atoms: C_4  and  C_6
REMARK    5  A    between atoms: C_9  and  N_12
REMARK    6  A    between atoms: C_17  and  C_35
REMARK    7  A    between atoms: C_26  and  C_34
REMARK    8  A    between atoms: C_35  and  C_36
REMARK                            x       y       z     vdW  Elec       q    Type
REMARK                         _______ _______ _______ _____ _____    ______ ____
ROOT
ATOM      1  N   UNL     1      -0.235   5.433   2.304  0.00  0.00    -0.210 N 
ATOM      2  C   UNL     1       0.627   6.217   1.646  0.00  0.00    +0.228 C 
ATOM      3  O   UNL     1       0.659   7.427   1.705  0.00  0.00    -0.275 OA
ATOM      4  C   UNL     1       1.556   5.358   0.817  0.00  0.00    +0.074 C 
ATOM      5  C   UNL     1       1.241   5.569  -0.679  0.00  0.00    -0.049 C 
ATOM      6  C   UNL     1       0.549   3.386  -0.215  0.00  0.00    +0.050 C 
ATOM      7  C   UNL     1       1.076   3.913   1.124  0.00  0.00    +0.088 C 
ATOM      8  C   UNL     1      -0.075   4.123   2.082  0.00  0.00    +0.229 C 
ATOM      9  O   UNL     1      -0.748   3.243   2.572  0.00  0.00    -0.275 OA
ATOM     10  C   UNL     1      -0.948   3.482  -0.300  0.00  0.00    -0.026 A 
ATOM     11  C   UNL     1      -1.837   4.530  -0.217  0.00  0.00    +0.008 A 
ATOM     12  C   UNL     1      -3.196   4.298  -0.339  0.00  0.00    -0.049 A 
ATOM     13  C   UNL     1      -3.658   3.011  -0.543  0.00  0.00    +0.025 A 
ATOM     14  C   UNL     1      -2.771   1.956  -0.625  0.00  0.00    +0.063 A 
ATOM     15  C   UNL     1      -1.401   2.183  -0.510  0.00  0.00    +0.054 A 
ATOM     16  N   UNL     1      -0.322   1.296  -0.552  0.00  0.00    -0.285 N 
ATOM     17  C   UNL     1       0.858   1.923  -0.390  0.00  0.00    +0.211 C 
ATOM     18  O   UNL     1       1.957   1.410  -0.386  0.00  0.00    -0.277 OA
ATOM     19 CL   UNL     1      -3.364   0.345  -0.882  0.00  0.00    -0.082 Cl
ATOM     20  C   UNL     1      -4.169   5.445  -0.249  0.00  0.00    +0.044 C 
ATOM     21  H   UNL     1      -0.413   0.339  -0.686  0.00  0.00    +0.155 HD
ATOM     22  N   UNL     1       1.191   4.211  -1.224  0.00  0.00    +0.394 N 
ATOM     23  H   UNL     1       2.140   3.868  -1.412  0.00  0.00    -0.083 HD
ATOM     24  H   UNL     1       0.644   4.197  -2.094  0.00  0.00    -0.083 HD
ENDROOT
BRANCH   1  28
ATOM     25  C   UNL     1      -3.178   6.949   4.837  0.00  0.00    +0.059 A 
ATOM     26  C   UNL     1      -2.140   6.171   5.356  0.00  0.00    +0.017 A 
ATOM     27  C   UNL     1      -1.169   5.672   4.516  0.00  0.00    +0.025 A 
ATOM     28  C   UNL     1      -1.222   5.941   3.153  0.00  0.00    +0.044 A 
ATOM     29  C   UNL     1      -2.250   6.720   2.633  0.00  0.00    +0.025 A 
ATOM     30  C   UNL     1      -3.228   7.217   3.466  0.00  0.00    +0.017 A 
BRANCH  25  31
ATOM     31  C   UNL     1      -4.219   7.486   5.733  0.00  0.00    +0.339 C 
ATOM     32  O   UNL     1      -4.175   7.252   6.925  0.00  0.00    -0.245 OA
BRANCH  31  33
ATOM     33  O   UNL     1      -5.220   8.236   5.231  0.00  0.00    -0.461 OA
BRANCH  33  35
ATOM     34  C   UNL     1      -7.258   9.555   5.422  0.00  0.00    +0.048 C 
ATOM     35  C   UNL     1      -6.209   8.731   6.171  0.00  0.00    +0.229 C 
ENDBRANCH  33  35
ENDBRANCH  31  33
ENDBRANCH  25  31
ENDBRANCH   1  28
BRANCH   5  36
ATOM     36  C   UNL     1       2.343   6.397  -1.344  0.00  0.00    +0.080 C 
BRANCH  36  37
ATOM     37  C   UNL     1       1.993   6.630  -2.791  0.00  0.00    +0.209 C 
ATOM     38  O   UNL     1       0.964   6.178  -3.246  0.00  0.00    -0.276 OA
ATOM     39  N   UNL     1       2.824   7.340  -3.579  0.00  0.00    -0.329 N 
ATOM     40  H   UNL     1       3.647   7.701  -3.216  0.00  0.00    +0.145 HD
ATOM     41  H   UNL     1       2.599   7.489  -4.511  0.00  0.00    +0.145 HD
ENDBRANCH  36  37
ENDBRANCH   5  36
TORSDOF 6
