REMARK  Name = ZINC39596012
REMARK  8 active torsions:
REMARK  status: ('A' for Active; 'I' for Inactive)
REMARK    1  A    between atoms: C_1  and  C_2
REMARK    2  A    between atoms: C_5  and  C_9
REMARK    3  A    between atoms: C_13  and  C_22
REMARK    4  A    between atoms: N_24  and  C_25
REMARK    5  A    between atoms: C_25  and  C_26
REMARK    6  A    between atoms: C_26  and  C_28
REMARK    7  A    between atoms: C_26  and  O_29
REMARK    8  A    between atoms: O_29  and  C_30
REMARK                            x       y       z     vdW  Elec       q    Type
REMARK                         _______ _______ _______ _____ _____    ______ ____
ROOT
ATOM      1  C   UNL     1       0.103  -4.286  -0.030  0.00  0.00    +0.247 C 
ATOM      2  O   UNL     1       0.002  -4.893  -1.078  0.00  0.00    -0.270 OA
ATOM      3  N   UNL     1       0.213  -4.962   1.131  0.00  0.00    -0.296 N 
ATOM      4  C   UNL     1       0.216  -4.410   2.507  0.00  0.00    +0.121 C 
ATOM      5  C   UNL     1      -0.607  -5.422   3.335  0.00  0.00    +0.100 C 
ATOM      6  C   UNL     1      -0.508  -6.742   2.553  0.00  0.00    -0.004 C 
ATOM      7  C   UNL     1       0.352  -6.426   1.321  0.00  0.00    +0.115 C 
ATOM      8  C   UNL     1      -1.896  -7.203   2.115  0.00  0.00    -0.010 C 
ATOM      9  C   UNL     1      -1.777  -8.546   1.389  0.00  0.00    -0.082 C 
ATOM     10  N   UNL     1      -1.171  -9.537   2.286  0.00  0.00    +0.379 N 
ATOM     11  C   UNL     1       0.198  -9.132   2.628  0.00  0.00    -0.082 C 
ATOM     12  C   UNL     1       0.163  -7.814   3.406  0.00  0.00    -0.010 C 
ATOM     13  H   UNL     1      -1.721  -9.606   3.129  0.00  0.00    -0.086 HD
ATOM     14  H   UNL     1      -1.150 -10.435   1.827  0.00  0.00    -0.086 HD
ENDROOT
BRANCH   1  19
ATOM     15  C   UNL     1       0.117   1.470  -0.018  0.00  0.00    +0.047 C 
ATOM     16  C   UNL     1       0.113  -0.037  -0.022  0.00  0.00    -0.015 A 
ATOM     17  C   UNL     1       0.710  -0.730   1.016  0.00  0.00    +0.007 A 
ATOM     18  C   UNL     1       0.711  -2.110   1.019  0.00  0.00    +0.013 A 
ATOM     19  C   UNL     1       0.105  -2.808  -0.028  0.00  0.00    +0.040 A 
ATOM     20  C   UNL     1      -0.496  -2.105  -1.072  0.00  0.00    +0.051 A 
ATOM     21  C   UNL     1      -0.495  -0.723  -1.061  0.00  0.00    +0.127 A 
ATOM     22  F   UNL     1      -1.082  -0.040  -2.068  0.00  0.00    -0.205 F 
ENDBRANCH   1  19
BRANCH   5  23
ATOM     23  C   UNL     1      -0.015  -5.579   4.711  0.00  0.00    +0.218 C 
ATOM     24  O   UNL     1       1.161  -5.346   4.895  0.00  0.00    -0.275 OA
ATOM     25  N   UNL     1      -0.791  -5.979   5.738  0.00  0.00    -0.312 N 
ATOM     26  H   UNL     1      -1.732  -6.165   5.591  0.00  0.00    +0.149 HD
BRANCH  25  27
ATOM     27  C   UNL     1      -0.215  -6.131   7.076  0.00  0.00    +0.148 C 
BRANCH  27  28
ATOM     28  C   UNL     1      -1.301  -6.592   8.050  0.00  0.00    +0.187 C 
ATOM     29  C   UNL     1      -0.731  -6.631   9.469  0.00  0.00    +0.053 C 
BRANCH  28  30
ATOM     30  O   UNL     1      -1.750  -7.897   7.681  0.00  0.00    -0.488 OA
BRANCH  30  31
ATOM     31  C   UNL     1      -3.005  -8.251   8.067  0.00  0.00    +0.121 A 
ATOM     32  C   UNL     1      -3.825  -7.324   8.694  0.00  0.00    +0.048 A 
ATOM     33  C   UNL     1      -5.100  -7.685   9.086  0.00  0.00    +0.042 A 
ATOM     34  C   UNL     1      -5.558  -8.970   8.854  0.00  0.00    +0.124 A 
ATOM     35  C   UNL     1      -4.740  -9.896   8.229  0.00  0.00    +0.042 A 
ATOM     36  C   UNL     1      -3.468  -9.536   7.830  0.00  0.00    +0.048 A 
ATOM     37  F   UNL     1      -6.805  -9.322   9.239  0.00  0.00    -0.205 F 
ENDBRANCH  30  31
ENDBRANCH  28  30
ENDBRANCH  27  28
ENDBRANCH  25  27
ENDBRANCH   5  23
TORSDOF 6
