REMARK  Name = ZINC09199058
REMARK  10 active torsions:
REMARK  status: ('A' for Active; 'I' for Inactive)
REMARK    1  A    between atoms: C_1  and  C_2
REMARK    2  A    between atoms: C_12  and  C_13
REMARK    3  A    between atoms: C_13  and  C_14
REMARK    4  A    between atoms: C_14  and  C_15
REMARK    5  A    between atoms: N_17  and  C_18
REMARK    6  A    between atoms: C_18  and  C_19
REMARK    7  A    between atoms: C_30  and  C_31
REMARK    8  A    between atoms: C_31  and  C_32
REMARK    9  A    between atoms: C_31  and  C_33
REMARK   10  A    between atoms: C_31  and  C_34
REMARK                            x       y       z     vdW  Elec       q    Type
REMARK                         _______ _______ _______ _____ _____    ______ ____
ROOT
ATOM      1  C   UNL     1      11.098   0.200  -0.544  0.00  0.00    +0.045 C 
ATOM      2  C   UNL     1      11.342  -1.271  -0.762  0.00  0.00    -0.030 A 
ATOM      3  C   UNL     1      12.279  -1.735  -1.790  0.00  0.00    +0.022 A 
ATOM      4  C   UNL     1      12.967  -0.824  -2.592  0.00  0.00    +0.023 A 
ATOM      5  C   UNL     1      13.847  -1.295  -3.555  0.00  0.00    +0.025 A 
ATOM      6  C   UNL     1      14.046  -2.681  -3.725  0.00  0.00    +0.139 A 
ATOM      7  C   UNL     1      13.358  -3.581  -2.924  0.00  0.00    +0.093 A 
ATOM      8  C   UNL     1      12.478  -3.121  -1.960  0.00  0.00    +0.143 A 
ATOM      9  O   UNL     1      11.805  -3.994  -1.177  0.00  0.00    -0.422 OA
ATOM     10  C   UNL     1      10.951  -3.574  -0.231  0.00  0.00    +0.341 A 
ATOM     11  O   UNL     1      10.373  -4.399   0.453  0.00  0.00    -0.245 OA
ATOM     12  C   UNL     1      10.701  -2.203  -0.012  0.00  0.00    +0.041 A 
ATOM     13  O   UNL     1      14.943  -2.835  -4.720  0.00  0.00    -0.463 OA
ATOM     14  C   UNL     1      15.335  -1.642  -5.203  0.00  0.00    +0.200 A 
ATOM     15  C   UNL     1      14.716  -0.651  -4.550  0.00  0.00    +0.003 A 
ENDROOT
BRANCH  15  16
ATOM     16  C   UNL     1      14.879   0.829  -4.786  0.00  0.00    -0.009 C 
ATOM     17  C   UNL     1      15.884   1.057  -5.916  0.00  0.00    +0.015 C 
ATOM     18  C   UNL     1      13.528   1.434  -5.175  0.00  0.00    +0.015 C 
ATOM     19  C   UNL     1      15.388   1.497  -3.508  0.00  0.00    +0.015 C 
ENDBRANCH  15  16
BRANCH  12  20
ATOM     20  C   UNL     1       9.729  -1.774   1.058  0.00  0.00    +0.052 C 
BRANCH  20  21
ATOM     21  C   UNL     1       8.326  -1.665   0.457  0.00  0.00    +0.100 C 
BRANCH  21  22
ATOM     22  C   UNL     1       7.355  -1.236   1.526  0.00  0.00    +0.214 C 
ATOM     23  O   UNL     1       7.746  -1.037   2.657  0.00  0.00    -0.276 OA
ATOM     24  N   UNL     1       6.051  -1.073   1.226  0.00  0.00    -0.311 N 
ATOM     25  H   UNL     1       5.738  -1.231   0.322  0.00  0.00    +0.149 HD
BRANCH  24  26
ATOM     26  C   UNL     1       5.107  -0.655   2.265  0.00  0.00    +0.139 C 
BRANCH  26  27
ATOM     27  C   UNL     1       3.725  -0.548   1.674  0.00  0.00    -0.027 A 
ATOM     28  C   UNL     1       2.885  -1.646   1.677  0.00  0.00    +0.009 A 
ATOM     29  C   UNL     1       1.617  -1.553   1.135  0.00  0.00    +0.050 A 
ATOM     30  C   UNL     1       1.183  -0.356   0.589  0.00  0.00    +0.166 A 
ATOM     31  C   UNL     1       2.028   0.751   0.586  0.00  0.00    +0.167 A 
ATOM     32  C   UNL     1       3.298   0.650   1.131  0.00  0.00    +0.054 A 
ATOM     33  O   UNL     1       1.376   1.797  -0.001  0.00  0.00    -0.453 OA
ATOM     34  C   UNL     1      -0.018   1.436   0.010  0.00  0.00    +0.466 C 
ATOM     35  O   UNL     1       0.002  -0.004   0.002  0.00  0.00    -0.453 OA
ENDBRANCH  26  27
ENDBRANCH  24  26
ENDBRANCH  21  22
ENDBRANCH  20  21
ENDBRANCH  12  20
TORSDOF 6
