REMARK  Name = ZINC67158666
REMARK  5 active torsions:
REMARK  status: ('A' for Active; 'I' for Inactive)
REMARK    1  A    between atoms: C_1  and  C_2
REMARK    2  A    between atoms: C_2  and  C_3
REMARK    3  A    between atoms: C_6  and  C_8
REMARK    4  A    between atoms: C_14  and  C_17
REMARK    5  A    between atoms: C_22  and  C_26
REMARK                            x       y       z     vdW  Elec       q    Type
REMARK                         _______ _______ _______ _____ _____    ______ ____
ROOT
ATOM      1  C   UNL     1       0.821  -1.542  -4.693  0.00  0.00    +0.282 C 
ATOM      2  O   UNL     1       1.761  -1.774  -5.429  0.00  0.00    -0.267 OA
ATOM      3  N   UNL     1      -0.438  -1.586  -5.173  0.00  0.00    -0.294 N 
ATOM      4  C   UNL     1      -1.571  -1.149  -4.345  0.00  0.00    +0.108 C 
ATOM      5  C   UNL     1      -2.373  -0.101  -5.123  0.00  0.00    +0.020 C 
ATOM      6  C   UNL     1      -2.774  -0.677  -6.483  0.00  0.00    +0.014 C 
ATOM      7  C   UNL     1      -1.516  -1.015  -7.286  0.00  0.00    +0.072 C 
ATOM      8  C   UNL     1      -0.703  -2.068  -6.535  0.00  0.00    +0.119 C 
ENDROOT
BRANCH   7   9
ATOM      9  C   UNL     1      -1.911  -1.551  -8.638  0.00  0.00    +0.113 A 
ATOM     10  N   UNL     1      -1.998  -0.841  -9.725  0.00  0.00    -0.232 NA
ATOM     11  C   UNL     1      -2.378  -1.635 -10.759  0.00  0.00    +0.089 A 
ATOM     12  C   UNL     1      -2.619  -1.400 -12.115  0.00  0.00    +0.030 A 
ATOM     13  C   UNL     1      -3.000  -2.431 -12.927  0.00  0.00    +0.005 A 
ATOM     14  C   UNL     1      -3.152  -3.713 -12.419  0.00  0.00    -0.048 A 
ATOM     15  C   UNL     1      -2.919  -3.968 -11.084  0.00  0.00    +0.031 A 
ATOM     16  C   UNL     1      -2.531  -2.933 -10.244  0.00  0.00    +0.066 A 
ATOM     17  N   UNL     1      -2.223  -2.849  -8.901  0.00  0.00    -0.342 N 
ATOM     18  C   UNL     1      -3.574  -4.835 -13.332  0.00  0.00    +0.044 C 
ATOM     19  H   UNL     1      -2.230  -3.579  -8.263  0.00  0.00    +0.167 HD
ENDBRANCH   7   9
BRANCH   1  23
ATOM     20  C   UNL     1       0.693  -0.774  -1.164  0.00  0.00    +0.106 A 
ATOM     21  C   UNL     1       2.030  -0.711  -1.350  0.00  0.00    +0.045 A 
ATOM     22  C   UNL     1       2.273  -0.991  -2.703  0.00  0.00    +0.055 A 
ATOM     23  C   UNL     1       1.056  -1.213  -3.283  0.00  0.00    +0.190 A 
ATOM     24  O   UNL     1       0.110  -1.082  -2.330  0.00  0.00    -0.455 OA
BRANCH  20  26
ATOM     25  C   UNL     1      -0.382   0.939   0.270  0.00  0.00    +0.012 C 
ATOM     26  C   UNL     1      -0.024  -0.543   0.141  0.00  0.00    +0.071 C 
ENDBRANCH  20  26
ENDBRANCH   1  23
TORSDOF 3
