REMARK  Name = ZINC45047580
REMARK  5 active torsions:
REMARK  status: ('A' for Active; 'I' for Inactive)
REMARK    1  A    between atoms: C_1  and  C_2
REMARK    2  A    between atoms: C_2  and  N_8
REMARK    3  A    between atoms: C_9  and  C_11
REMARK    4  A    between atoms: C_11  and  C_17
REMARK    5  A    between atoms: N_18  and  O_19
REMARK                            x       y       z     vdW  Elec       q    Type
REMARK                         _______ _______ _______ _____ _____    ______ ____
ROOT
ATOM      1  C   UNL     1       0.977  -0.541  -3.654  0.00  0.00    +0.109 C 
ATOM      2  C   UNL     1       0.279   0.043  -4.885  0.00  0.00    +0.052 C 
ATOM      3  C   UNL     1      -1.121  -0.563  -5.005  0.00  0.00    +0.161 C 
ATOM      4  O   UNL     1      -1.017  -1.986  -5.085  0.00  0.00    -0.380 OA
ATOM      5  C   UNL     1      -0.415  -2.593  -3.939  0.00  0.00    +0.161 C 
ATOM      6  C   UNL     1       1.014  -2.068  -3.777  0.00  0.00    +0.052 C 
ENDROOT
BRANCH   1   7
ATOM      7  C   UNL     1       2.385  -0.009  -3.569  0.00  0.00    +0.147 C 
ATOM      8  N   UNL     1       3.388  -0.812  -3.699  0.00  0.00    -0.076 NA
ATOM      9  N   UNL     1       2.601   1.334  -3.353  0.00  0.00    -0.343 N 
ATOM     10  H   UNL     1       1.851   1.949  -3.332  0.00  0.00    +0.144 HD
ATOM     11  H   UNL     1       3.503   1.665  -3.223  0.00  0.00    +0.144 HD
BRANCH   8  12
ATOM     12  O   UNL     1       4.710  -0.312  -3.620  0.00  0.00    -0.408 OA
ATOM     13  H   UNL     1       5.394  -0.988  -3.729  0.00  0.00    +0.328 HD
ENDBRANCH   8  12
ENDBRANCH   1   7
BRANCH   1  15
ATOM     14  N   UNL     1       0.565  -0.674  -1.218  0.00  0.00    -0.309 N 
ATOM     15  C   UNL     1       0.216  -0.154  -2.412  0.00  0.00    +0.227 C 
ATOM     16  O   UNL     1      -0.710   0.626  -2.486  0.00  0.00    -0.275 OA
ATOM     17  H   UNL     1       1.258  -1.351  -1.168  0.00  0.00    +0.149 HD
BRANCH  14  19
ATOM     18  C   UNL     1       0.122   1.286   0.175  0.00  0.00    +0.031 C 
ATOM     19  C   UNL     1      -0.103  -0.217   0.003  0.00  0.00    +0.032 C 
ATOM     20  C   UNL     1      -1.603  -0.500  -0.100  0.00  0.00    +0.025 C 
ATOM     21  C   UNL     1      -1.827  -2.004  -0.272  0.00  0.00    +0.002 C 
ATOM     22  C   UNL     1      -1.250  -2.747   0.934  0.00  0.00    +0.000 C 
ATOM     23  C   UNL     1       0.251  -2.464   1.037  0.00  0.00    +0.002 C 
ATOM     24  C   UNL     1       0.475  -0.961   1.209  0.00  0.00    +0.025 C 
ENDBRANCH  14  19
ENDBRANCH   1  15
TORSDOF 4
