REMARK  Name = ZINC01679991
REMARK  3 active torsions:
REMARK  status: ('A' for Active; 'I' for Inactive)
REMARK    1  A    between atoms: C_1  and  C_2
REMARK    2  A    between atoms: C_2  and  C_3
REMARK    3  A    between atoms: C_3  and  C_5
REMARK                            x       y       z     vdW  Elec       q    Type
REMARK                         _______ _______ _______ _____ _____    ______ ____
ROOT
ATOM      1  C   UNL     1      -1.345   3.596   2.571  0.00  0.00    +0.224 C 
ATOM      2  O   UNL     1      -2.353   3.082   3.007  0.00  0.00    -0.275 OA
ATOM      3  N   UNL     1      -0.756   4.603   3.246  0.00  0.00    -0.328 N 
ATOM      4  H   UNL     1       0.051   5.015   2.898  0.00  0.00    +0.145 HD
ATOM      5  H   UNL     1      -1.139   4.917   4.081  0.00  0.00    +0.145 HD
ENDROOT
BRANCH   1   6
ATOM      6  C   UNL     1      -0.750   3.109   1.275  0.00  0.00    +0.142 C 
ATOM      7 BR   UNL     1      -1.836   3.758  -0.229  0.00  0.00    -0.078 Br
BRANCH   6   9
ATOM      8  C   UNL     1      -0.013   1.086   0.008  0.00  0.00    +0.005 C 
ATOM      9  C   UNL     1      -0.729   1.579   1.267  0.00  0.00    +0.021 C 
ENDBRANCH   6   9
ENDBRANCH   1   6
TORSDOF 2
