REMARK  Name = ZINC05671605
REMARK  4 active torsions:
REMARK  status: ('A' for Active; 'I' for Inactive)
REMARK    1  A    between atoms: C_6  and  C_7
REMARK    2  A    between atoms: C_8  and  C_9
REMARK    3  A    between atoms: N_11  and  C_12
REMARK    4  A    between atoms: C_13  and  C_22
REMARK                            x       y       z     vdW  Elec       q    Type
REMARK                         _______ _______ _______ _____ _____    ______ ____
ROOT
ATOM      1  C   UNL     1      -2.520   4.083   0.036  0.00  0.00    +0.085 A 
ATOM      2  C   UNL     1      -2.742   5.451   0.050  0.00  0.00    +0.068 A 
ATOM      3  C   UNL     1      -4.123   5.914   0.050  0.00  0.00    -0.023 A 
ATOM      4  C   UNL     1      -5.052   4.933   0.054  0.00  0.00    -0.004 A 
ATOM      5  S   UNL     1      -4.122   3.424   0.041  0.00  0.00    -0.077 S 
ATOM      6  C   UNL     1      -6.541   5.083   0.079  0.00  0.00    +0.043 C 
ATOM      7  C   UNL     1      -6.967   6.096  -0.992  0.00  0.00    +0.005 C 
ATOM      8  C   UNL     1      -6.963   7.488  -0.368  0.00  0.00    +0.001 C 
ATOM      9  C   UNL     1      -5.862   7.588   0.686  0.00  0.00    +0.005 C 
ATOM     10  C   UNL     1      -4.492   7.392   0.045  0.00  0.00    +0.037 C 
ENDROOT
BRANCH   2  11
ATOM     11  C   UNL     1      -1.625   6.400   0.061  0.00  0.00    +0.244 C 
ATOM     12  O   UNL     1      -1.161   6.806  -0.989  0.00  0.00    -0.270 OA
ATOM     13  N   UNL     1      -1.112   6.824   1.233  0.00  0.00    -0.325 N 
ATOM     14  H   UNL     1      -1.482   6.501   2.069  0.00  0.00    +0.145 HD
ATOM     15  H   UNL     1      -0.373   7.452   1.240  0.00  0.00    +0.145 HD
ENDBRANCH   2  11
BRANCH   1  18
ATOM     16  C   UNL     1      -1.293   2.059   0.019  0.00  0.00    +0.241 C 
ATOM     17  O   UNL     1      -2.339   1.436   0.021  0.00  0.00    -0.270 OA
ATOM     18  N   UNL     1      -1.311   3.407   0.027  0.00  0.00    -0.276 N 
ATOM     19  H   UNL     1      -0.478   3.903   0.025  0.00  0.00    +0.156 HD
BRANCH  16  21
ATOM     20  C   UNL     1       0.002  -0.004   0.002  0.00  0.00    +0.013 C 
ATOM     21  C   UNL     1      -0.016   1.345   0.009  0.00  0.00    +0.068 C 
BRANCH  20  27
ATOM     22  C   UNL     1       2.490  -0.010  -0.028  0.00  0.00    +0.009 A 
ATOM     23  C   UNL     1       3.689  -0.689  -0.038  0.00  0.00    +0.020 A 
ATOM     24  C   UNL     1       3.704  -2.075  -0.045  0.00  0.00    +0.041 A 
ATOM     25  C   UNL     1       2.515  -2.787  -0.037  0.00  0.00    +0.020 A 
ATOM     26  C   UNL     1       1.309  -2.121  -0.022  0.00  0.00    +0.009 A 
ATOM     27  C   UNL     1       1.286  -0.722  -0.014  0.00  0.00    -0.025 A 
ATOM     28 CL   UNL     1       5.219  -2.922  -0.064  0.00  0.00    -0.084 Cl
ENDBRANCH  20  27
ENDBRANCH  16  21
ENDBRANCH   1  18
TORSDOF 4
