REMARK  Name = ZINC66730140
REMARK  11 active torsions:
REMARK  status: ('A' for Active; 'I' for Inactive)
REMARK    1  A    between atoms: C_1  and  C_2
REMARK    2  A    between atoms: C_2  and  C_4
REMARK    3  A    between atoms: C_2  and  O_15
REMARK    4  A    between atoms: O_15  and  C_16
REMARK    5  A    between atoms: C_16  and  C_18
REMARK    6  A    between atoms: C_18  and  C_20
REMARK    7  A    between atoms: C_18  and  N_23
REMARK    8  A    between atoms: C_20  and  C_21
REMARK    9  A    between atoms: C_20  and  C_22
REMARK   10  A    between atoms: C_24  and  O_26
REMARK   11  A    between atoms: O_26  and  C_27
REMARK                            x       y       z     vdW  Elec       q    Type
REMARK                         _______ _______ _______ _____ _____    ______ ____
ROOT
ATOM      1  C   UNL     1      -0.019   1.526   0.010  0.00  0.00    +0.057 C 
ATOM      2  C   UNL     1       0.002  -0.004   0.002  0.00  0.00    +0.204 C 
ENDROOT
BRANCH   2   3
ATOM      3  C   UNL     1      -1.412  -0.526   0.013  0.00  0.00    -0.006 A 
ATOM      4  C   UNL     1      -2.121  -0.570   1.199  0.00  0.00    +0.011 A 
ATOM      5  C   UNL     1      -3.420  -1.046   1.217  0.00  0.00    +0.048 A 
ATOM      6  C   UNL     1      -4.011  -1.480   0.044  0.00  0.00    +0.142 A 
ATOM      7  C   UNL     1      -3.296  -1.437  -1.152  0.00  0.00    +0.076 A 
ATOM      8  C   UNL     1      -1.998  -0.953  -1.165  0.00  0.00    +0.034 A 
ATOM      9  N   UNL     1      -3.906  -1.883  -2.333  0.00  0.00    -0.280 N 
ATOM     10  C   UNL     1      -5.247  -2.043  -2.357  0.00  0.00    +0.255 C 
ATOM     11  O   UNL     1      -5.793  -2.457  -3.357  0.00  0.00    -0.272 OA
ATOM     12  C   UNL     1      -6.062  -1.706  -1.134  0.00  0.00    +0.325 C 
ATOM     13  O   UNL     1      -5.287  -1.951   0.043  0.00  0.00    -0.481 OA
ATOM     14  H   UNL     1      -3.373  -2.072  -3.121  0.00  0.00    +0.155 HD
ENDBRANCH   2   3
BRANCH   2  15
ATOM     15  O   UNL     1       0.693  -0.477   1.160  0.00  0.00    -0.456 OA
BRANCH  15  16
ATOM     16  C   UNL     1       2.018  -0.662   1.046  0.00  0.00    +0.329 C 
ATOM     17  O   UNL     1       2.572  -0.429  -0.002  0.00  0.00    -0.249 OA
BRANCH  16  18
ATOM     18  C   UNL     1       2.814  -1.159   2.225  0.00  0.00    +0.187 C 
BRANCH  18  19
ATOM     19  N   UNL     1       4.224  -1.277   1.847  0.00  0.00    -0.268 N 
ATOM     20  C   UNL     1       5.028  -2.136   2.504  0.00  0.00    +0.401 C 
ATOM     21  O   UNL     1       4.583  -2.814   3.409  0.00  0.00    -0.226 OA
ATOM     22  H   UNL     1       4.580  -0.736   1.125  0.00  0.00    +0.153 HD
BRANCH  20  23
ATOM     23  O   UNL     1       6.325  -2.244   2.157  0.00  0.00    -0.454 OA
ATOM     24  C   UNL     1       7.119  -3.175   2.895  0.00  0.00    +0.282 C 
ENDBRANCH  20  23
ENDBRANCH  18  19
BRANCH  18  25
ATOM     25  C   UNL     1       2.677  -0.172   3.385  0.00  0.00    +0.014 C 
ATOM     26  C   UNL     1       1.203  -0.050   3.780  0.00  0.00    +0.009 C 
ATOM     27  C   UNL     1       3.485  -0.677   4.583  0.00  0.00    +0.009 C 
ENDBRANCH  18  25
ENDBRANCH  16  18
ENDBRANCH  15  16
ENDBRANCH   2  15
TORSDOF 7
