REMARK  Name = ZINC50701775
REMARK  4 active torsions:
REMARK  status: ('A' for Active; 'I' for Inactive)
REMARK    1  A    between atoms: C_3  and  N_16
REMARK    2  A    between atoms: C_6  and  C_7
REMARK    3  A    between atoms: N_9  and  C_10
REMARK    4  A    between atoms: C_10  and  C_11
REMARK                            x       y       z     vdW  Elec       q    Type
REMARK                         _______ _______ _______ _____ _____    ______ ____
ROOT
ATOM      1  C   UNL     1      -1.267  -0.763   0.011  0.00  0.00    +0.264 C 
ATOM      2  O   UNL     1      -2.329  -0.171   0.024  0.00  0.00    -0.268 OA
ATOM      3  N   UNL     1      -1.246  -2.110   0.003  0.00  0.00    -0.310 N 
ATOM      4  H   UNL     1      -0.399  -2.583  -0.008  0.00  0.00    +0.149 HD
ENDROOT
BRANCH   1  10
ATOM      5  C   UNL     1      -0.017   1.396   0.010  0.00  0.00    +0.038 A 
ATOM      6  C   UNL     1       1.196   2.062   0.002  0.00  0.00    +0.047 A 
ATOM      7  C   UNL     1       2.363   1.298  -0.013  0.00  0.00    +0.139 A 
ATOM      8  N   UNL     1       2.287  -0.029  -0.020  0.00  0.00    -0.134 NA
ATOM      9  N   UNL     1       1.163  -0.648  -0.013  0.00  0.00    -0.143 NA
ATOM     10  C   UNL     1       0.002  -0.004   0.002  0.00  0.00    +0.148 A 
BRANCH   7  11
ATOM     11  N   UNL     1       3.600   1.922  -0.022  0.00  0.00    -0.342 N 
ATOM     12  H   UNL     1       3.655   2.890  -0.018  0.00  0.00    +0.144 HD
ATOM     13  H   UNL     1       4.411   1.390  -0.033  0.00  0.00    +0.144 HD
ENDBRANCH   7  11
ENDBRANCH   1  10
BRANCH   3  14
ATOM     14  C   UNL     1      -2.504  -2.862   0.012  0.00  0.00    +0.108 C 
BRANCH  14  15
ATOM     15  C   UNL     1      -2.201  -4.362   0.001  0.00  0.00    +0.006 C 
ATOM     16  C   UNL     1      -1.574  -4.765  -1.350  0.00  0.00    +0.005 C 
ATOM     17  C   UNL     1      -2.171  -6.163  -1.644  0.00  0.00    +0.000 C 
ATOM     18  C   UNL     1      -3.628  -6.026  -1.138  0.00  0.00    +0.000 C 
ATOM     19  C   UNL     1      -3.507  -5.164   0.135  0.00  0.00    +0.005 C 
ENDBRANCH  14  15
ENDBRANCH   3  14
TORSDOF 4
