REMARK  Name = ZINC65133505
REMARK  8 active torsions:
REMARK  status: ('A' for Active; 'I' for Inactive)
REMARK    1  A    between atoms: C_1  and  C_2
REMARK    2  A    between atoms: C_2  and  C_3
REMARK    3  A    between atoms: C_2  and  C_4
REMARK    4  A    between atoms: C_4  and  C_5
REMARK    5  A    between atoms: C_5  and  N_6
REMARK    6  A    between atoms: N_9  and  N_10
REMARK    7  A    between atoms: C_11  and  C_13
REMARK    8  A    between atoms: C_18  and  C_19
REMARK                            x       y       z     vdW  Elec       q    Type
REMARK                         _______ _______ _______ _____ _____    ______ ____
ROOT
ATOM      1  N   UNL     1      -5.767  -1.859  -0.703  0.00  0.00    -0.233 N 
ATOM      2  C   UNL     1      -7.090  -2.095  -0.799  0.00  0.00    +0.233 C 
ATOM      3  O   UNL     1      -7.732  -1.595  -1.698  0.00  0.00    -0.274 OA
ATOM      4  H   UNL     1      -5.254  -2.260   0.016  0.00  0.00    +0.173 HD
ENDROOT
BRANCH   1   8
ATOM      5  N   UNL     1      -3.096  -1.356  -0.548  0.00  0.00    -0.298 N 
ATOM      6  C   UNL     1      -3.809  -0.800  -1.547  0.00  0.00    +0.316 C 
ATOM      7  O   UNL     1      -3.258  -0.085  -2.362  0.00  0.00    -0.251 OA
ATOM      8  N   UNL     1      -5.133  -1.036  -1.643  0.00  0.00    -0.218 N 
ATOM      9  H   UNL     1      -3.535  -1.926   0.103  0.00  0.00    +0.150 HD
ATOM     10  H   UNL     1      -5.646  -0.636  -2.362  0.00  0.00    +0.174 HD
BRANCH   5  11
ATOM     11  C   UNL     1      -1.657  -1.100  -0.444  0.00  0.00    +0.106 C 
BRANCH  11  12
ATOM     12  C   UNL     1      -1.093  -1.843   0.768  0.00  0.00    +0.022 C 
BRANCH  12  14
ATOM     13  C   UNL     1       0.643  -0.092   1.167  0.00  0.00    +0.007 C 
ATOM     14  C   UNL     1       0.410  -1.576   0.877  0.00  0.00    -0.016 C 
ATOM     15  C   UNL     1       0.997  -2.417   2.012  0.00  0.00    +0.007 C 
ENDBRANCH  12  14
ENDBRANCH  11  12
ENDBRANCH   5  11
ENDBRANCH   1   8
BRANCH   2  16
ATOM     16  C   UNL     1      -7.773  -2.981   0.211  0.00  0.00    +0.088 C 
ATOM     17  C   UNL     1      -8.891  -2.198   0.903  0.00  0.00    +0.013 C 
ATOM     18  C   UNL     1      -9.910  -1.735  -0.140  0.00  0.00    +0.001 C 
ATOM     19  C   UNL     1     -10.504  -2.954  -0.849  0.00  0.00    +0.001 C 
ATOM     20  C   UNL     1      -9.386  -3.737  -1.541  0.00  0.00    +0.013 C 
ATOM     21  C   UNL     1      -8.367  -4.200  -0.497  0.00  0.00    +0.105 C 
BRANCH  21  22
ATOM     22  C   UNL     1      -7.249  -4.982  -1.189  0.00  0.00    +0.394 C 
ATOM     23  F   UNL     1      -6.251  -5.291  -0.258  0.00  0.00    -0.170 F 
ATOM     24  F   UNL     1      -7.769  -6.165  -1.724  0.00  0.00    -0.170 F 
ATOM     25  F   UNL     1      -6.703  -4.206  -2.217  0.00  0.00    -0.170 F 
ENDBRANCH  21  22
ENDBRANCH   2  16
TORSDOF 6
