REMARK  Name = ZINC04101614
REMARK  16 active torsions:
REMARK  status: ('A' for Active; 'I' for Inactive)
REMARK    1  A    between atoms: C_1  and  C_2
REMARK    2  A    between atoms: C_4  and  C_26
REMARK    3  A    between atoms: C_7  and  C_14
REMARK    4  A    between atoms: C_9  and  C_13
REMARK    5  A    between atoms: C_17  and  O_24
REMARK    6  A    between atoms: C_18  and  O_22
REMARK    7  A    between atoms: C_19  and  O_20
REMARK    8  A    between atoms: O_20  and  C_21
REMARK    9  A    between atoms: O_22  and  C_23
REMARK   10  A    between atoms: O_24  and  C_25
REMARK   11  A    between atoms: C_29  and  O_36
REMARK   12  A    between atoms: C_30  and  O_34
REMARK   13  A    between atoms: C_31  and  O_32
REMARK   14  A    between atoms: O_32  and  C_33
REMARK   15  A    between atoms: O_34  and  C_35
REMARK   16  A    between atoms: O_36  and  C_37
REMARK                            x       y       z     vdW  Elec       q    Type
REMARK                         _______ _______ _______ _____ _____    ______ ____
ROOT
ATOM      1  C   UNL     1       1.530   0.949   0.273  0.00  0.00    +0.014 C 
ATOM      2  C   UNL     1       0.844  -0.392   0.004  0.00  0.00    +0.043 C 
ATOM      3  C   UNL     1      -0.663  -0.176  -0.170  0.00  0.00    -0.026 C 
ATOM      4  N   UNL     1      -1.238   0.301   1.094  0.00  0.00    +0.389 N 
ATOM      5  C   UNL     1      -1.156  -0.749   2.116  0.00  0.00    -0.026 C 
ATOM      6  C   UNL     1       0.314  -1.009   2.465  0.00  0.00    +0.043 C 
ATOM      7  C   UNL     1       1.058  -1.321   1.181  0.00  0.00    +0.136 C 
ATOM      8  O   UNL     1       1.792  -2.275   1.099  0.00  0.00    -0.297 OA
ATOM      9  C   UNL     1       0.916   0.235   3.122  0.00  0.00    +0.014 C 
ATOM     10  H   UNL     1      -0.729   1.113   1.407  0.00  0.00    -0.084 HD
ATOM     11  H   UNL     1      -2.205   0.550   0.948  0.00  0.00    -0.084 HD
ENDROOT
BRANCH   5  12
ATOM     12  C   UNL     1      -1.894  -0.306   3.353  0.00  0.00    -0.015 A 
ATOM     13  C   UNL     1      -1.984   1.040   3.658  0.00  0.00    +0.009 A 
ATOM     14  C   UNL     1      -2.660   1.452   4.790  0.00  0.00    +0.050 A 
ATOM     15  C   UNL     1      -3.252   0.516   5.626  0.00  0.00    +0.165 A 
ATOM     16  C   UNL     1      -3.164  -0.837   5.323  0.00  0.00    +0.204 A 
ATOM     17  C   UNL     1      -2.488  -1.247   4.180  0.00  0.00    +0.167 A 
BRANCH  17  18
ATOM     18  O   UNL     1      -2.404  -2.570   3.876  0.00  0.00    -0.491 OA
ATOM     19  C   UNL     1      -1.371  -3.319   4.519  0.00  0.00    +0.277 C 
ENDBRANCH  17  18
BRANCH  16  20
ATOM     20  O   UNL     1      -3.744  -1.758   6.140  0.00  0.00    -0.488 OA
ATOM     21  C   UNL     1      -5.098  -2.117   5.857  0.00  0.00    +0.277 C 
ENDBRANCH  16  20
BRANCH  15  22
ATOM     22  O   UNL     1      -3.917   0.922   6.741  0.00  0.00    -0.491 OA
ATOM     23  C   UNL     1      -3.966   2.329   6.990  0.00  0.00    +0.277 C 
ENDBRANCH  15  22
ENDBRANCH   5  12
BRANCH   3  24
ATOM     24  C   UNL     1      -1.316  -1.478  -0.558  0.00  0.00    -0.015 A 
ATOM     25  C   UNL     1      -0.535  -2.576  -0.868  0.00  0.00    +0.009 A 
ATOM     26  C   UNL     1      -1.128  -3.772  -1.226  0.00  0.00    +0.050 A 
ATOM     27  C   UNL     1      -2.510  -3.875  -1.275  0.00  0.00    +0.165 A 
ATOM     28  C   UNL     1      -3.299  -2.774  -0.964  0.00  0.00    +0.204 A 
ATOM     29  C   UNL     1      -2.698  -1.574  -0.600  0.00  0.00    +0.167 A 
BRANCH  29  30
ATOM     30  O   UNL     1      -3.466  -0.495  -0.289  0.00  0.00    -0.491 OA
ATOM     31  C   UNL     1      -3.914   0.316  -1.377  0.00  0.00    +0.277 C 
ENDBRANCH  29  30
BRANCH  28  32
ATOM     32  O   UNL     1      -4.655  -2.871  -1.010  0.00  0.00    -0.488 OA
ATOM     33  C   UNL     1      -5.319  -3.275   0.189  0.00  0.00    +0.277 C 
ENDBRANCH  28  32
BRANCH  27  34
ATOM     34  O   UNL     1      -3.093  -5.052  -1.627  0.00  0.00    -0.491 OA
ATOM     35  C   UNL     1      -2.221  -6.141  -1.934  0.00  0.00    +0.277 C 
ENDBRANCH  27  34
ENDBRANCH   3  24
TORSDOF 8
