REMARK  Name = ZINC01445805
REMARK  7 active torsions:
REMARK  status: ('A' for Active; 'I' for Inactive)
REMARK    1  A    between atoms: C_1  and  C_2
REMARK    2  A    between atoms: C_10  and  C_27
REMARK    3  A    between atoms: C_11  and  C_12
REMARK    4  A    between atoms: C_12  and  C_13
REMARK    5  A    between atoms: C_13  and  N_14
REMARK    6  A    between atoms: C_19  and  C_20
REMARK    7  A    between atoms: C_19  and  O_21
REMARK                            x       y       z     vdW  Elec       q    Type
REMARK                         _______ _______ _______ _____ _____    ______ ____
ROOT
ATOM      1  C   UNL     1       2.470   1.444  -0.013  0.00  0.00    +0.119 C 
ENDROOT
BRANCH   1   2
ATOM      2  N   UNL     1       1.099   1.958   0.002  0.00  0.00    -0.235 N 
ATOM      3  C   UNL     1      -0.014   1.211   0.009  0.00  0.00    +0.406 C 
ATOM      4  O   UNL     1       0.002  -0.004   0.002  0.00  0.00    -0.226 OA
ATOM      5  O   UNL     1      -1.146   1.927   0.018  0.00  0.00    -0.439 OA
ATOM      6  C   UNL     1      -0.819   3.342   0.028  0.00  0.00    +0.160 C 
ATOM      7  C   UNL     1       0.717   3.380   0.013  0.00  0.00    +0.175 C 
ATOM      8  C   UNL     1       1.227   4.084  -1.246  0.00  0.00    +0.068 C 
ATOM      9  C   UNL     1      -1.374   4.026  -1.218  0.00  0.00    +0.053 C 
ATOM     10  C   UNL     1      -2.903   3.964  -1.199  0.00  0.00    +0.004 C 
ATOM     11  C   UNL     1      -3.425   4.661   0.060  0.00  0.00    +0.000 C 
ATOM     12  C   UNL     1      -2.879   3.951   1.300  0.00  0.00    +0.004 C 
ATOM     13  C   UNL     1      -1.350   4.012   1.291  0.00  0.00    +0.053 C 
BRANCH   7  14
ATOM     14  O   UNL     1       1.216   4.025   1.187  0.00  0.00    -0.368 OA
ATOM     15  H   UNL     1       2.180   4.017   1.261  0.00  0.00    +0.212 HD
ENDBRANCH   7  14
ENDBRANCH   1   2
BRANCH   1  16
ATOM     16  C   UNL     1       2.935   1.272  -1.461  0.00  0.00    +0.056 C 
BRANCH  16  27
ATOM     17  C   UNL     1       9.096   0.110  -1.525  0.00  0.00    +0.046 C 
ATOM     18  C   UNL     1       7.946   1.084  -1.510  0.00  0.00    -0.027 A 
ATOM     19  C   UNL     1       8.189   2.440  -1.505  0.00  0.00    +0.005 A 
ATOM     20  C   UNL     1       7.138   3.347  -1.490  0.00  0.00    +0.001 A 
ATOM     21  C   UNL     1       5.844   2.910  -1.479  0.00  0.00    +0.010 A 
ATOM     22  C   UNL     1       5.575   1.540  -1.490  0.00  0.00    +0.003 A 
ATOM     23  C   UNL     1       6.636   0.617  -1.499  0.00  0.00    +0.050 A 
ATOM     24  N   UNL     1       6.079  -0.643  -1.501  0.00  0.00    -0.358 N 
ATOM     25  H   UNL     1       6.580  -1.474  -1.511  0.00  0.00    +0.166 HD
ATOM     26  C   UNL     1       4.714  -0.547  -1.488  0.00  0.00    +0.017 A 
ATOM     27  C   UNL     1       4.346   0.743  -1.477  0.00  0.00    -0.018 A 
ATOM     28  C   UNL     1       3.765  -1.718  -1.486  0.00  0.00    +0.063 C 
ENDBRANCH  16  27
ENDBRANCH   1  16
TORSDOF 4
