REMARK  Name = ZINC28057182
REMARK  2 active torsions:
REMARK  status: ('A' for Active; 'I' for Inactive)
REMARK    1  A    between atoms: C_5  and  C_7
REMARK    2  A    between atoms: C_18  and  C_20
REMARK                            x       y       z     vdW  Elec       q    Type
REMARK                         _______ _______ _______ _____ _____    ______ ____
ROOT
ATOM      1  C   UNL     1       0.692   3.744   0.040  0.00  0.00    +0.177 C 
ATOM      2  C   UNL     1       0.263   4.207   1.410  0.00  0.00    +0.026 C 
ATOM      3  C   UNL     1      -0.890   4.846   1.619  0.00  0.00    +0.050 C 
ATOM      4  C   UNL     1      -1.214   5.284   2.998  0.00  0.00    +0.038 A 
ATOM      5  C   UNL     1      -2.505   5.648   3.360  0.00  0.00    +0.013 A 
ATOM      6  C   UNL     1      -2.760   6.052   4.657  0.00  0.00    +0.001 A 
ATOM      7  C   UNL     1      -1.738   6.093   5.590  0.00  0.00    +0.004 A 
ATOM      8  C   UNL     1      -0.450   5.732   5.237  0.00  0.00    +0.046 A 
ATOM      9  C   UNL     1      -0.181   5.324   3.944  0.00  0.00    +0.131 A 
ATOM     10  O   UNL     1       1.068   4.959   3.560  0.00  0.00    -0.479 OA
ATOM     11  C   UNL     1       1.171   3.922   2.585  0.00  0.00    +0.234 C 
ATOM     12  N   UNL     1      -1.788   5.127   0.583  0.00  0.00    -0.282 N 
ATOM     13  C   UNL     1      -1.324   4.983  -0.715  0.00  0.00    +0.240 A 
ATOM     14  N   UNL     1      -0.156   4.343  -0.981  0.00  0.00    -0.201 N 
ATOM     15  N   UNL     1      -0.005   4.405  -2.366  0.00  0.00    -0.042 NA
ATOM     16  N   UNL     1      -1.039   5.038  -2.821  0.00  0.00    -0.021 NA
ATOM     17  N   UNL     1      -1.819   5.379  -1.852  0.00  0.00    -0.092 NA
ATOM     18  H   UNL     1      -2.814   5.448   0.816  0.00  0.00    +0.155 HD
ENDROOT
BRANCH   1  23
ATOM     19  C   UNL     1      -0.742   0.252   0.070  0.00  0.00    +0.001 A 
ATOM     20  C   UNL     1       0.383  -0.512  -0.181  0.00  0.00    +0.003 A 
ATOM     21  C   UNL     1       1.608   0.100  -0.360  0.00  0.00    +0.039 A 
ATOM     22  C   UNL     1       1.710   1.479  -0.289  0.00  0.00    +0.129 A 
ATOM     23  C   UNL     1       0.583   2.243  -0.038  0.00  0.00    +0.017 A 
ATOM     24  C   UNL     1      -0.642   1.629   0.142  0.00  0.00    +0.009 A 
ATOM     25  F   UNL     1       2.908   2.078  -0.463  0.00  0.00    -0.205 F 
ENDBRANCH   1  23
BRANCH  11  26
ATOM     26  C   UNL     1       0.777   2.610   3.211  0.00  0.00    -0.000 A 
ATOM     27  C   UNL     1      -0.373   2.526   3.975  0.00  0.00    +0.008 A 
ATOM     28  C   UNL     1      -0.739   1.322   4.546  0.00  0.00    +0.003 A 
ATOM     29  C   UNL     1       0.051   0.202   4.364  0.00  0.00    +0.038 A 
ATOM     30  C   UNL     1       1.205   0.286   3.604  0.00  0.00    +0.124 A 
ATOM     31  C   UNL     1       1.567   1.492   3.028  0.00  0.00    +0.046 A 
ATOM     32  F   UNL     1       1.978  -0.808   3.426  0.00  0.00    -0.205 F 
ENDBRANCH  11  26
TORSDOF 2
