REMARK  Name = ZINC08998569
REMARK  9 active torsions:
REMARK  status: ('A' for Active; 'I' for Inactive)
REMARK    1  A    between atoms: C_1  and  C_2
REMARK    2  A    between atoms: C_2  and  O_3
REMARK    3  A    between atoms: O_3  and  C_4
REMARK    4  A    between atoms: C_4  and  C_5
REMARK    5  A    between atoms: C_5  and  N_6
REMARK    6  A    between atoms: C_10  and  S_25
REMARK    7  A    between atoms: N_15  and  C_16
REMARK    8  A    between atoms: C_16  and  C_18
REMARK    9  A    between atoms: S_25  and  N_28
REMARK                            x       y       z     vdW  Elec       q    Type
REMARK                         _______ _______ _______ _____ _____    ______ ____
ROOT
ATOM      1  N   UNL     1      -1.109   2.232   0.035  0.00  0.00    -0.319 N 
ATOM      2  C   UNL     1      -0.019   1.382   0.066  0.00  0.00    +0.058 A 
ATOM      3  C   UNL     1      -0.011  -0.022   0.090  0.00  0.00    +0.029 A 
ATOM      4  C   UNL     1       1.174  -0.718   0.114  0.00  0.00    +0.030 A 
ATOM      5  C   UNL     1       2.393  -0.060   0.116  0.00  0.00    +0.106 A 
ATOM      6  C   UNL     1       2.414   1.324   0.093  0.00  0.00    +0.045 A 
ATOM      7  C   UNL     1       1.229   2.020   0.069  0.00  0.00    +0.041 A 
ATOM      8  S   UNL     1       0.805   3.744   0.035  0.00  0.00    -0.052 S 
ATOM      9  C   UNL     1      -0.921   3.580   0.018  0.00  0.00    +0.167 A 
ATOM     10  N   UNL     1      -1.840   4.539  -0.008  0.00  0.00    -0.152 NA
ENDROOT
BRANCH   5  11
ATOM     11  S   UNL     1       3.899  -0.973   0.149  0.00  0.00    +0.056 S 
ATOM     12  O   UNL     1       4.886  -0.110   0.696  0.00  0.00    -0.153 OA
ATOM     13  O   UNL     1       3.594  -2.239   0.718  0.00  0.00    -0.153 OA
BRANCH  11  14
ATOM     14  N   UNL     1       4.335  -1.255  -1.424  0.00  0.00    -0.204 NA
ATOM     15  H   UNL     1       3.779  -0.925  -2.148  0.00  0.00    +0.144 HD
ATOM     16  H   UNL     1       5.146  -1.749  -1.622  0.00  0.00    +0.144 HD
ENDBRANCH  11  14
ENDBRANCH   5  11
BRANCH  10  17
ATOM     17  C   UNL     1      -1.466   5.822  -0.026  0.00  0.00    +0.271 C 
ATOM     18  O   UNL     1      -0.282   6.112  -0.017  0.00  0.00    -0.268 OA
BRANCH  17  19
ATOM     19  C   UNL     1      -2.490   6.892  -0.055  0.00  0.00    +0.053 A 
ATOM     20  C   UNL     1      -3.846   6.563  -0.065  0.00  0.00    +0.014 A 
ATOM     21  C   UNL     1      -4.795   7.564  -0.093  0.00  0.00    +0.001 A 
ATOM     22  C   UNL     1      -4.405   8.892  -0.110  0.00  0.00    +0.001 A 
ATOM     23  C   UNL     1      -3.063   9.225  -0.101  0.00  0.00    +0.016 A 
ATOM     24  C   UNL     1      -2.103   8.233  -0.068  0.00  0.00    +0.030 A 
ATOM     25 BR   UNL     1      -0.268   8.690  -0.046  0.00  0.00    -0.050 Br
ENDBRANCH  17  19
ENDBRANCH  10  17
BRANCH   1  26
ATOM     26  C   UNL     1      -2.466   1.682   0.023  0.00  0.00    +0.152 C 
BRANCH  26  27
ATOM     27  C   UNL     1      -3.386   2.575   0.859  0.00  0.00    +0.181 C 
BRANCH  27  28
ATOM     28  O   UNL     1      -4.676   1.969   0.959  0.00  0.00    -0.378 OA
BRANCH  28  30
ATOM     29  C   UNL     1      -6.955   1.987   1.764  0.00  0.00    +0.034 C 
ATOM     30  C   UNL     1      -5.616   2.726   1.724  0.00  0.00    +0.156 C 
ENDBRANCH  28  30
ENDBRANCH  27  28
ENDBRANCH  26  27
ENDBRANCH   1  26
TORSDOF 8
