REMARK  Name = ZINC13500552
REMARK  16 active torsions:
REMARK  status: ('A' for Active; 'I' for Inactive)
REMARK    1  A    between atoms: C_1  and  C_2
REMARK    2  A    between atoms: C_9  and  C_14
REMARK    3  A    between atoms: C_14  and  N_70
REMARK    4  A    between atoms: C_15  and  C_16
REMARK    5  A    between atoms: C_15  and  N_70
REMARK    6  A    between atoms: C_16  and  C_17
REMARK    7  A    between atoms: C_17  and  O_18
REMARK    8  A    between atoms: C_19  and  C_21
REMARK    9  A    between atoms: C_19  and  C_35
REMARK   10  A    between atoms: C_19  and  N_70
REMARK   11  A    between atoms: N_25  and  C_26
REMARK   12  A    between atoms: C_26  and  C_27
REMARK   13  A    between atoms: C_30  and  O_33
REMARK   14  A    between atoms: O_33  and  C_34
REMARK   15  A    between atoms: C_35  and  C_36
REMARK   16  A    between atoms: C_35  and  C_37
REMARK                            x       y       z     vdW  Elec       q    Type
REMARK                         _______ _______ _______ _____ _____    ______ ____
ROOT
ATOM      1  N   UNL     1      -2.839   5.717   2.042  0.00  0.00    +0.389 N 
ATOM      2  H   UNL     1      -2.693   6.033   1.076  0.00  0.00    -0.080 HD
ENDROOT
BRANCH   1   3
ATOM      3  C   UNL     1      -2.234   6.700   2.965  0.00  0.00    -0.037 C 
BRANCH   3  12
ATOM      4  C   UNL     1       1.949  11.414  -1.022  0.00  0.00    +0.044 C 
ATOM      5  C   UNL     1       1.810  10.177  -0.173  0.00  0.00    -0.050 A 
ATOM      6  C   UNL     1       2.929   9.406   0.108  0.00  0.00    +0.005 A 
ATOM      7  C   UNL     1       2.825   8.270   0.881  0.00  0.00    +0.026 A 
ATOM      8  C   UNL     1       1.586   7.891   1.387  0.00  0.00    +0.049 A 
ATOM      9  C   UNL     1       0.453   8.675   1.100  0.00  0.00    -0.001 A 
ATOM     10  C   UNL     1       0.583   9.824   0.313  0.00  0.00    +0.013 A 
ATOM     11  C   UNL     1      -0.848   8.265   1.632  0.00  0.00    +0.017 A 
ATOM     12  C   UNL     1      -0.912   7.146   2.396  0.00  0.00    +0.001 A 
ATOM     13  C   UNL     1       0.255   6.394   2.653  0.00  0.00    +0.251 A 
ATOM     14  O   UNL     1       0.174   5.388   3.337  0.00  0.00    -0.268 OA
ATOM     15  N   UNL     1       1.452   6.760   2.164  0.00  0.00    -0.322 N 
ATOM     16  H   UNL     1       2.234   6.220   2.361  0.00  0.00    +0.169 HD
ENDBRANCH   3  12
ENDBRANCH   1   3
BRANCH   1  17
ATOM     17  C   UNL     1      -2.198   4.397   2.217  0.00  0.00    -0.075 C 
BRANCH  17  18
ATOM     18  C   UNL     1      -2.577   3.505   1.034  0.00  0.00    +0.009 C 
BRANCH  18  19
ATOM     19  C   UNL     1      -1.823   2.177   1.133  0.00  0.00    +0.154 C 
BRANCH  19  20
ATOM     20  O   UNL     1      -2.117   1.375  -0.012  0.00  0.00    -0.395 OA
ATOM     21  H   UNL     1      -1.672   0.517  -0.016  0.00  0.00    +0.209 HD
ENDBRANCH  19  20
ENDBRANCH  18  19
ENDBRANCH  17  18
ENDBRANCH   1  17
BRANCH   1  22
ATOM     22  C   UNL     1      -4.291   5.611   2.298  0.00  0.00    +0.006 C 
BRANCH  22  23
ATOM     23  C   UNL     1      -4.555   5.418   3.769  0.00  0.00    +0.139 A 
ATOM     24  N   UNL     1      -3.864   5.924   4.761  0.00  0.00    -0.115 NA
ATOM     25  N   UNL     1      -4.403   5.530   5.863  0.00  0.00    -0.023 NA
ATOM     26  N   UNL     1      -5.419   4.785   5.599  0.00  0.00    -0.044 NA
ATOM     27  N   UNL     1      -5.549   4.696   4.319  0.00  0.00    -0.226 N 
BRANCH  27  28
ATOM     28  C   UNL     1      -6.582   3.948   3.599  0.00  0.00    +0.182 C 
BRANCH  28  29
ATOM     29  C   UNL     1      -6.247   2.479   3.623  0.00  0.00    -0.026 A 
ATOM     30  C   UNL     1      -5.606   1.900   2.543  0.00  0.00    +0.009 A 
ATOM     31  C   UNL     1      -5.293   0.554   2.564  0.00  0.00    +0.046 A 
ATOM     32  C   UNL     1      -5.631  -0.218   3.666  0.00  0.00    +0.120 A 
ATOM     33  C   UNL     1      -6.279   0.364   4.746  0.00  0.00    +0.046 A 
ATOM     34  C   UNL     1      -6.585   1.711   4.722  0.00  0.00    +0.009 A 
BRANCH  32  35
ATOM     35  O   UNL     1      -5.328  -1.542   3.688  0.00  0.00    -0.495 OA
ATOM     36  C   UNL     1      -4.661  -2.074   2.541  0.00  0.00    +0.277 C 
ENDBRANCH  32  35
ENDBRANCH  28  29
ENDBRANCH  27  28
ENDBRANCH  22  23
BRANCH  22  37
ATOM     37  C   UNL     1      -4.970   6.897   1.823  0.00  0.00    -0.024 C 
ATOM     38  C   UNL     1      -4.706   7.091   0.328  0.00  0.00    +0.006 C 
ATOM     39  C   UNL     1      -6.477   6.798   2.066  0.00  0.00    +0.006 C 
ENDBRANCH  22  37
ENDBRANCH   1  22
TORSDOF 12
