REMARK  Name = ZINC40014154
REMARK  17 active torsions:
REMARK  status: ('A' for Active; 'I' for Inactive)
REMARK    1  A    between atoms: C_1  and  C_2
REMARK    2  A    between atoms: C_2  and  C_3
REMARK    3  A    between atoms: C_3  and  C_4
REMARK    4  A    between atoms: C_4  and  N_5
REMARK    5  A    between atoms: N_5  and  C_6
REMARK    6  A    between atoms: N_5  and  C_10
REMARK    7  A    between atoms: C_6  and  C_7
REMARK    8  A    between atoms: C_7  and  C_8
REMARK    9  A    between atoms: C_8  and  C_9
REMARK   10  A    between atoms: C_10  and  C_11
REMARK   11  A    between atoms: C_11  and  C_12
REMARK   12  A    between atoms: C_12  and  N_13
REMARK   13  A    between atoms: C_14  and  C_30
REMARK   14  A    between atoms: C_33  and  O_36
REMARK   15  A    between atoms: O_36  and  C_37
REMARK   16  A    between atoms: C_37  and  C_38
REMARK   17  A    between atoms: C_38  and  C_39
REMARK                            x       y       z     vdW  Elec       q    Type
REMARK                         _______ _______ _______ _____ _____    ______ ____
ROOT
ATOM      1  N   UNL     1      -5.701  -6.706   0.109  0.00  0.00    -0.284 N 
ATOM      2  C   UNL     1      -6.669  -6.853   1.208  0.00  0.00    +0.144 C 
ATOM      3  C   UNL     1      -7.910  -7.404   0.588  0.00  0.00    +0.072 A 
ATOM      4  C   UNL     1      -9.204  -7.769   1.174  0.00  0.00    +0.199 A 
ATOM      5  O   UNL     1      -9.518  -7.496   2.319  0.00  0.00    -0.287 OA
ATOM      6  C   UNL     1     -10.095  -8.501   0.239  0.00  0.00    +0.067 A 
ATOM      7  C   UNL     1     -11.273  -9.089   0.702  0.00  0.00    +0.053 A 
ATOM      8  C   UNL     1     -12.086  -9.770  -0.179  0.00  0.00    +0.124 A 
ATOM      9  C   UNL     1     -11.730  -9.869  -1.520  0.00  0.00    +0.042 A 
ATOM     10  C   UNL     1     -10.571  -9.291  -1.986  0.00  0.00    +0.050 A 
ATOM     11  C   UNL     1      -9.734  -8.595  -1.115  0.00  0.00    +0.140 A 
ATOM     12  O   UNL     1      -8.606  -8.028  -1.602  0.00  0.00    -0.450 OA
ATOM     13  C   UNL     1      -7.676  -7.554  -0.750  0.00  0.00    +0.199 A 
ATOM     14  C   UNL     1      -6.299  -7.112  -1.030  0.00  0.00    +0.283 C 
ATOM     15  O   UNL     1      -5.776  -7.117  -2.127  0.00  0.00    -0.267 OA
ATOM     16  F   UNL     1     -13.228 -10.342   0.260  0.00  0.00    -0.205 F 
ENDROOT
BRANCH   2  17
ATOM     17  C   UNL     1      -6.951  -5.512   1.835  0.00  0.00    -0.022 A 
ATOM     18  C   UNL     1      -7.085  -4.391   1.037  0.00  0.00    +0.009 A 
ATOM     19  C   UNL     1      -7.343  -3.161   1.609  0.00  0.00    +0.046 A 
ATOM     20  C   UNL     1      -7.468  -3.050   2.986  0.00  0.00    +0.121 A 
ATOM     21  C   UNL     1      -7.333  -4.176   3.785  0.00  0.00    +0.046 A 
ATOM     22  C   UNL     1      -7.080  -5.405   3.208  0.00  0.00    +0.009 A 
BRANCH  20  23
ATOM     23  O   UNL     1      -7.721  -1.840   3.552  0.00  0.00    -0.492 OA
BRANCH  23  24
ATOM     24  C   UNL     1      -7.837  -1.801   4.976  0.00  0.00    +0.229 C 
BRANCH  24  25
ATOM     25  C   UNL     1      -8.120  -0.366   5.425  0.00  0.00    +0.038 C 
ATOM     26  C   UNL     1      -8.244  -0.325   6.949  0.00  0.00    +0.007 C 
ENDBRANCH  24  25
ENDBRANCH  23  24
ENDBRANCH  20  23
ENDBRANCH   2  17
BRANCH   1  27
ATOM     27  C   UNL     1      -4.331  -6.201   0.229  0.00  0.00    +0.107 C 
BRANCH  27  28
ATOM     28  C   UNL     1      -4.329  -4.683   0.040  0.00  0.00    +0.000 C 
BRANCH  28  29
ATOM     29  C   UNL     1      -2.899  -4.155   0.166  0.00  0.00    -0.077 C 
BRANCH  29  30
ATOM     30  N   UNL     1      -2.878  -2.718  -0.137  0.00  0.00    +0.380 N 
ATOM     31  H   UNL     1      -3.289  -2.560  -1.045  0.00  0.00    -0.082 HD
BRANCH  30  32
ATOM     32  C   UNL     1      -3.648  -1.991   0.881  0.00  0.00    -0.079 C 
BRANCH  32  33
ATOM     33  C   UNL     1      -3.732  -0.512   0.499  0.00  0.00    -0.019 C 
BRANCH  33  35
ATOM     34  C   UNL     1      -4.618   1.723   1.177  0.00  0.00    +0.004 C 
ATOM     35  C   UNL     1      -4.534   0.244   1.560  0.00  0.00    -0.005 C 
ENDBRANCH  33  35
ENDBRANCH  32  33
ENDBRANCH  30  32
BRANCH  30  36
ATOM     36  C   UNL     1      -1.490  -2.237  -0.137  0.00  0.00    -0.079 C 
BRANCH  36  37
ATOM     37  C   UNL     1      -0.729  -2.877  -1.300  0.00  0.00    -0.019 C 
BRANCH  37  38
ATOM     38  C   UNL     1       0.736  -2.435  -1.255  0.00  0.00    -0.005 C 
ATOM     39  C   UNL     1       1.497  -3.075  -2.417  0.00  0.00    +0.004 C 
ENDBRANCH  37  38
ENDBRANCH  36  37
ENDBRANCH  30  36
ENDBRANCH  29  30
ENDBRANCH  28  29
ENDBRANCH  27  28
ENDBRANCH   1  27
TORSDOF 14
