REMARK  Name = ZINC01813234
REMARK  8 active torsions:
REMARK  status: ('A' for Active; 'I' for Inactive)
REMARK    1  A    between atoms: C_1  and  N_2
REMARK    2  A    between atoms: N_2  and  C_3
REMARK    3  A    between atoms: N_2  and  C_29
REMARK    4  A    between atoms: C_3  and  C_4
REMARK    5  A    between atoms: C_5  and  C_15
REMARK    6  A    between atoms: N_17  and  N_18
REMARK    7  A    between atoms: C_19  and  C_20
REMARK    8  A    between atoms: C_23  and  N_26
REMARK                            x       y       z     vdW  Elec       q    Type
REMARK                         _______ _______ _______ _____ _____    ______ ____
ROOT
ATOM      1  C   UNL     1       3.121  -2.200  -0.045  0.00  0.00    +0.063 A 
ATOM      2  C   UNL     1       3.084  -3.566  -0.047  0.00  0.00    +0.170 A 
ATOM      3  N   UNL     1       1.798  -3.957  -0.038  0.00  0.00    -0.124 NA
ATOM      4  N   UNL     1       1.032  -2.922  -0.025  0.00  0.00    -0.058 NA
ATOM      5  N   UNL     1       1.838  -1.775  -0.025  0.00  0.00    -0.194 N 
ATOM      6  C   UNL     1       1.399  -0.446  -0.014  0.00  0.00    +0.240 A 
ATOM      7  C   UNL     1       0.002  -0.004   0.002  0.00  0.00    +0.206 A 
ATOM      8  N   UNL     1      -0.016   1.300   0.009  0.00  0.00    -0.032 NA
ATOM      9  O   UNL     1       1.327   1.753  -0.001  0.00  0.00    -0.239 OA
ATOM     10  N   UNL     1       2.164   0.609  -0.015  0.00  0.00    -0.027 NA
ATOM     11  N   UNL     1      -1.114  -0.833   0.008  0.00  0.00    -0.337 N 
ATOM     12  H   UNL     1      -2.123  -0.397   0.020  0.00  0.00    +0.144 HD
ATOM     13  H   UNL     1      -0.987  -1.926   0.001  0.00  0.00    +0.144 HD
ENDROOT
BRANCH   2  14
ATOM     14  C   UNL     1       4.256  -4.460  -0.063  0.00  0.00    +0.285 C 
ATOM     15  O   UNL     1       5.379  -3.991  -0.071  0.00  0.00    -0.267 OA
ATOM     16  N   UNL     1       4.085  -5.797  -0.069  0.00  0.00    -0.202 N 
ATOM     17  H   UNL     1       3.070  -6.221  -0.062  0.00  0.00    +0.178 HD
BRANCH  16  18
ATOM     18  N   UNL     1       5.199  -6.646  -0.084  0.00  0.00    -0.187 NA
ATOM     19  C   UNL     1       5.033  -7.933  -0.089  0.00  0.00    +0.138 C 
BRANCH  19  20
ATOM     20  C   UNL     1       6.206  -8.827  -0.105  0.00  0.00    -0.005 A 
ATOM     21  C   UNL     1       7.496  -8.292  -0.120  0.00  0.00    +0.012 A 
ATOM     22  C   UNL     1       8.588  -9.135  -0.129  0.00  0.00    +0.033 A 
ATOM     23  C   UNL     1       8.408 -10.507  -0.135  0.00  0.00    +0.126 A 
ATOM     24  C   UNL     1       7.133 -11.043  -0.126  0.00  0.00    +0.033 A 
ATOM     25  C   UNL     1       6.031 -10.213  -0.111  0.00  0.00    +0.012 A 
BRANCH  23  26
ATOM     26  N   UNL     1       9.585 -11.404  -0.152  0.00  0.00    +0.056 N 
ATOM     27  O   UNL     1       9.430 -12.612  -0.158  0.00  0.00    -0.126 OA
ATOM     28  O   UNL     1      10.709 -10.934  -0.160  0.00  0.00    -0.126 OA
ENDBRANCH  23  26
ENDBRANCH  19  20
ENDBRANCH  16  18
ENDBRANCH   2  14
BRANCH   1  29
ATOM     29  C   UNL     1       4.355  -1.335  -0.060  0.00  0.00    -0.020 C 
BRANCH  29  31
ATOM     30  C   UNL     1       5.219  -2.287   1.991  0.00  0.00    -0.095 C 
ATOM     31  N   UNL     1       4.775  -1.058   1.320  0.00  0.00    +0.383 N 
ATOM     32  H   UNL     1       3.904  -0.669   1.868  0.00  0.00    -0.081 HD
BRANCH  31  33
ATOM     33  C   UNL     1       5.825  -0.031   1.354  0.00  0.00    -0.068 C 
ATOM     34  C   UNL     1       7.083  -0.565   0.666  0.00  0.00    -0.015 C 
ATOM     35  C   UNL     1       8.177   0.505   0.702  0.00  0.00    -0.002 C 
ATOM     36  C   UNL     1       8.500   0.855   2.156  0.00  0.00    -0.000 C 
ATOM     37  C   UNL     1       7.242   1.388   2.844  0.00  0.00    -0.002 C 
ATOM     38  C   UNL     1       6.149   0.319   2.808  0.00  0.00    -0.015 C 
ENDBRANCH  31  33
ENDBRANCH  29  31
ENDBRANCH   1  29
TORSDOF 7
