REMARK  Name = ZINC40570128
REMARK  13 active torsions:
REMARK  status: ('A' for Active; 'I' for Inactive)
REMARK    1  A    between atoms: C_1  and  C_2
REMARK    2  A    between atoms: C_7  and  O_8
REMARK    3  A    between atoms: O_8  and  C_9
REMARK    4  A    between atoms: C_9  and  C_11
REMARK    5  A    between atoms: C_12  and  N_37
REMARK    6  A    between atoms: C_14  and  C_25
REMARK    7  A    between atoms: N_22  and  C_24
REMARK    8  A    between atoms: C_27  and  O_35
REMARK    9  A    between atoms: C_28  and  O_33
REMARK   10  A    between atoms: C_30  and  O_31
REMARK   11  A    between atoms: O_31  and  C_32
REMARK   12  A    between atoms: O_33  and  C_34
REMARK   13  A    between atoms: O_35  and  C_36
REMARK                            x       y       z     vdW  Elec       q    Type
REMARK                         _______ _______ _______ _____ _____    ______ ____
ROOT
ATOM      1  C   UNL     1      -0.167  -0.096   4.766  0.00  0.00    +0.120 A 
ATOM      2  C   UNL     1      -0.256  -0.656   6.025  0.00  0.00    +0.056 A 
ATOM      3  C   UNL     1      -0.360   0.233   7.168  0.00  0.00    +0.037 A 
ATOM      4  C   UNL     1      -0.465  -0.099   8.551  0.00  0.00    +0.000 A 
ATOM      5  C   UNL     1      -0.554   0.927   9.491  0.00  0.00    -0.034 A 
ATOM      6  C   UNL     1      -0.539   2.244   9.076  0.00  0.00    +0.043 A 
ATOM      7  N   UNL     1      -0.444   2.538   7.788  0.00  0.00    -0.244 NA
ATOM      8  C   UNL     1      -0.357   1.611   6.861  0.00  0.00    +0.112 A 
ATOM      9  S   UNL     1      -0.214   1.655   5.091  0.00  0.00    -0.060 S 
ATOM     10  C   UNL     1      -0.626   3.379  10.066  0.00  0.00    +0.037 C 
ATOM     11  C   UNL     1      -1.130   2.855  11.411  0.00  0.00    -0.073 C 
ATOM     12  N   UNL     1      -0.313   1.695  11.798  0.00  0.00    +0.381 N 
ATOM     13  C   UNL     1      -0.668   0.557  10.946  0.00  0.00    -0.041 C 
ATOM     14  C   UNL     1      -0.574   1.357  13.204  0.00  0.00    -0.096 C 
ATOM     15  H   UNL     1       0.664   1.915  11.678  0.00  0.00    -0.082 HD
ENDROOT
BRANCH   4  16
ATOM     16  C   UNL     1      -0.478  -1.513   8.983  0.00  0.00    +0.028 A 
ATOM     17  C   UNL     1       0.719  -2.164   9.289  0.00  0.00    +0.061 A 
ATOM     18  C   UNL     1       0.701  -3.485   9.692  0.00  0.00    +0.162 A 
ATOM     19  C   UNL     1      -0.509  -4.169   9.795  0.00  0.00    +0.165 A 
ATOM     20  C   UNL     1      -1.700  -3.527   9.493  0.00  0.00    +0.095 A 
ATOM     21  C   UNL     1      -1.692  -2.202   9.093  0.00  0.00    +0.131 A 
BRANCH  21  22
ATOM     22  O   UNL     1      -2.860  -1.572   8.803  0.00  0.00    -0.494 OA
ATOM     23  C   UNL     1      -4.060  -2.336   8.937  0.00  0.00    +0.277 C 
ENDBRANCH  21  22
BRANCH  19  24
ATOM     24  O   UNL     1      -0.521  -5.468  10.193  0.00  0.00    -0.491 OA
ATOM     25  C   UNL     1      -1.795  -6.109  10.277  0.00  0.00    +0.277 C 
ENDBRANCH  19  24
BRANCH  18  26
ATOM     26  O   UNL     1       1.868  -4.119   9.989  0.00  0.00    -0.491 OA
ATOM     27  C   UNL     1       3.071  -3.359   9.862  0.00  0.00    +0.277 C 
ENDBRANCH  18  26
ENDBRANCH   4  16
BRANCH   2  28
ATOM     28  N   UNL     1      -0.248  -2.033   6.193  0.00  0.00    -0.356 N 
ATOM     29  H   UNL     1      -0.178  -2.616   5.421  0.00  0.00    +0.142 HD
ATOM     30  H   UNL     1      -0.311  -2.413   7.083  0.00  0.00    +0.142 HD
ENDBRANCH   2  28
BRANCH   1  31
ATOM     31  C   UNL     1      -0.059  -0.754   3.519  0.00  0.00    +0.353 C 
ATOM     32  O   UNL     1      -0.041  -1.970   3.473  0.00  0.00    -0.244 OA
BRANCH  31  33
ATOM     33  O   UNL     1       0.025  -0.033   2.381  0.00  0.00    -0.422 OA
BRANCH  33  40
ATOM     34  C   UNL     1       2.506  -0.975   1.415  0.00  0.00    +0.047 C 
ATOM     35  C   UNL     1       1.212  -1.191   0.675  0.00  0.00    -0.008 A 
ATOM     36  C   UNL     1       1.207  -1.877  -0.524  0.00  0.00    +0.007 A 
ATOM     37  C   UNL     1       0.019  -2.075  -1.204  0.00  0.00    +0.000 A 
ATOM     38  C   UNL     1      -1.167  -1.587  -0.686  0.00  0.00    +0.004 A 
ATOM     39  C   UNL     1      -1.167  -0.901   0.513  0.00  0.00    +0.046 A 
ATOM     40  C   UNL     1       0.023  -0.705   1.199  0.00  0.00    +0.135 A 
ENDBRANCH  33  40
ENDBRANCH  31  33
ENDBRANCH   1  31
TORSDOF 8
