REMARK  Name = ZINC14650915
REMARK  12 active torsions:
REMARK  status: ('A' for Active; 'I' for Inactive)
REMARK    1  A    between atoms: C_1  and  C_2
REMARK    2  A    between atoms: C_5  and  N_27
REMARK    3  A    between atoms: C_7  and  N_8
REMARK    4  A    between atoms: N_8  and  C_9
REMARK    5  A    between atoms: C_9  and  N_11
REMARK    6  A    between atoms: C_12  and  C_14
REMARK    7  A    between atoms: C_19  and  O_20
REMARK    8  A    between atoms: O_20  and  C_21
REMARK    9  A    between atoms: C_21  and  C_22
REMARK   10  A    between atoms: C_22  and  C_23
REMARK   11  A    between atoms: C_23  and  C_24
REMARK   12  A    between atoms: C_23  and  C_25
REMARK                            x       y       z     vdW  Elec       q    Type
REMARK                         _______ _______ _______ _____ _____    ______ ____
ROOT
ATOM      1  N   UNL     1      -0.998  -0.756  -0.267  0.00  0.00    -0.263 N 
ATOM      2  C   UNL     1      -0.912  -2.043  -0.659  0.00  0.00    +0.253 C 
ATOM      3  O   UNL     1       0.130  -2.470  -1.116  0.00  0.00    -0.270 OA
ATOM      4  H   UNL     1      -1.830  -0.415   0.098  0.00  0.00    +0.157 HD
ENDROOT
BRANCH   2   5
ATOM      5  C   UNL     1      -2.081  -2.932  -0.532  0.00  0.00    +0.080 A 
ATOM      6  C   UNL     1      -3.279  -2.447  -0.002  0.00  0.00    +0.032 A 
ATOM      7  C   UNL     1      -4.370  -3.282   0.109  0.00  0.00    +0.019 A 
ATOM      8  C   UNL     1      -4.281  -4.605  -0.295  0.00  0.00    +0.019 A 
ATOM      9  C   UNL     1      -3.102  -5.099  -0.815  0.00  0.00    +0.047 A 
ATOM     10  C   UNL     1      -1.996  -4.271  -0.939  0.00  0.00    +0.133 A 
ATOM     11 BR   UNL     1      -5.993  -2.622   0.820  0.00  0.00    -0.050 Br
BRANCH  10  12
ATOM     12  O   UNL     1      -0.836  -4.755  -1.450  0.00  0.00    -0.491 OA
BRANCH  12  13
ATOM     13  C   UNL     1      -0.824  -6.129  -1.843  0.00  0.00    +0.229 C 
BRANCH  13  14
ATOM     14  C   UNL     1       0.558  -6.490  -2.392  0.00  0.00    +0.044 C 
BRANCH  14  15
ATOM     15  C   UNL     1       0.571  -7.961  -2.812  0.00  0.00    -0.014 C 
ATOM     16  C   UNL     1      -0.395  -8.166  -3.980  0.00  0.00    +0.007 C 
ATOM     17  C   UNL     1       1.985  -8.355  -3.244  0.00  0.00    +0.007 C 
ENDBRANCH  14  15
ENDBRANCH  13  14
ENDBRANCH  12  13
ENDBRANCH  10  12
ENDBRANCH   2   5
BRANCH   1  18
ATOM     18  C   UNL     1       0.070   0.057  -0.382  0.00  0.00    +0.141 C 
ATOM     19  S   UNL     1       1.538  -0.545  -1.027  0.00  0.00    -0.018 S 
BRANCH  18  20
ATOM     20  N   UNL     1      -0.016   1.344   0.009  0.00  0.00    -0.296 N 
ATOM     21  H   UNL     1      -0.869   1.707   0.296  0.00  0.00    +0.154 HD
BRANCH  20  28
ATOM     22  C   UNL     1      -0.260   3.981  -1.032  0.00  0.00    +0.045 C 
ATOM     23  C   UNL     1       1.048   3.450  -0.502  0.00  0.00    -0.029 A 
ATOM     24  C   UNL     1       2.174   4.251  -0.512  0.00  0.00    +0.007 A 
ATOM     25  C   UNL     1       3.373   3.765  -0.026  0.00  0.00    +0.033 A 
ATOM     26  C   UNL     1       3.451   2.477   0.472  0.00  0.00    +0.128 A 
ATOM     27  C   UNL     1       2.328   1.673   0.489  0.00  0.00    +0.056 A 
ATOM     28  C   UNL     1       1.122   2.156  -0.003  0.00  0.00    +0.038 A 
BRANCH  26  29
ATOM     29  N   UNL     1       4.737   1.961   0.993  0.00  0.00    +0.056 N 
ATOM     30  O   UNL     1       5.726   2.671   0.982  0.00  0.00    -0.126 OA
ATOM     31  O   UNL     1       4.806   0.827   1.431  0.00  0.00    -0.126 OA
ENDBRANCH  26  29
ENDBRANCH  20  28
ENDBRANCH  18  20
ENDBRANCH   1  18
TORSDOF 9
