REMARK  Name = ZINC12713000
REMARK  13 active torsions:
REMARK  status: ('A' for Active; 'I' for Inactive)
REMARK    1  A    between atoms: C_1  and  C_2
REMARK    2  A    between atoms: C_2  and  C_3
REMARK    3  A    between atoms: C_2  and  C_4
REMARK    4  A    between atoms: C_4  and  C_5
REMARK    5  A    between atoms: C_5  and  N_6
REMARK    6  A    between atoms: C_7  and  C_9
REMARK    7  A    between atoms: C_9  and  C_11
REMARK    8  A    between atoms: C_9  and  N_18
REMARK    9  A    between atoms: N_18  and  C_19
REMARK   10  A    between atoms: C_24  and  C_25
REMARK   11  A    between atoms: C_25  and  C_27
REMARK   12  A    between atoms: C_28  and  C_30
REMARK   13  A    between atoms: C_30  and  N_31
REMARK                            x       y       z     vdW  Elec       q    Type
REMARK                         _______ _______ _______ _____ _____    ______ ____
ROOT
ATOM      1  N   UNL     1      -4.313   2.606  -1.806  0.00  0.00    -0.253 N 
ATOM      2  C   UNL     1      -2.991   2.717  -2.045  0.00  0.00    +0.242 C 
ATOM      3  O   UNL     1      -2.600   3.117  -3.121  0.00  0.00    -0.273 OA
ENDROOT
BRANCH   1   4
ATOM      4  C   UNL     1      -4.761   2.146  -0.572  0.00  0.00    +0.048 A 
ATOM      5  C   UNL     1      -4.731   2.982   0.537  0.00  0.00    +0.024 A 
ATOM      6  C   UNL     1      -5.176   2.525   1.761  0.00  0.00    +0.002 A 
ATOM      7  C   UNL     1      -5.656   1.231   1.895  0.00  0.00    +0.001 A 
ATOM      8  C   UNL     1      -5.695   0.386   0.809  0.00  0.00    +0.013 A 
ATOM      9  C   UNL     1      -5.253   0.836  -0.441  0.00  0.00    +0.039 A 
BRANCH   9  10
ATOM     10  C   UNL     1      -5.296  -0.057  -1.605  0.00  0.00    +0.162 C 
ATOM     11  O   UNL     1      -4.950   0.350  -2.694  0.00  0.00    -0.292 OA
ATOM     12  C   UNL     1      -5.770  -1.478  -1.447  0.00  0.00    +0.091 C 
ENDBRANCH   9  10
ENDBRANCH   1   4
BRANCH   1  13
ATOM     13  C   UNL     1      -5.278   2.968  -2.848  0.00  0.00    +0.197 C 
BRANCH  13  14
ATOM     14  C   UNL     1      -5.153   4.437  -3.159  0.00  0.00    -0.018 A 
ATOM     15  C   UNL     1      -5.123   5.361  -2.131  0.00  0.00    +0.009 A 
ATOM     16  C   UNL     1      -5.003   6.708  -2.415  0.00  0.00    +0.038 A 
ATOM     17  C   UNL     1      -4.924   7.133  -3.731  0.00  0.00    +0.123 A 
ATOM     18  C   UNL     1      -4.960   6.207  -4.760  0.00  0.00    +0.038 A 
ATOM     19  C   UNL     1      -5.074   4.860  -4.473  0.00  0.00    +0.009 A 
ATOM     20  F   UNL     1      -4.813   8.450  -4.010  0.00  0.00    -0.205 F 
ENDBRANCH  13  14
BRANCH  13  22
ATOM     21  N   UNL     1      -7.641   2.353  -3.245  0.00  0.00    -0.313 N 
ATOM     22  C   UNL     1      -6.674   2.674  -2.362  0.00  0.00    +0.238 C 
ATOM     23  O   UNL     1      -6.928   2.727  -1.178  0.00  0.00    -0.273 OA
ATOM     24  H   UNL     1      -7.437   2.310  -4.193  0.00  0.00    +0.149 HD
BRANCH  21  25
ATOM     25  C   UNL     1      -8.998   2.067  -2.774  0.00  0.00    +0.104 C 
BRANCH  25  26
ATOM     26  C   UNL     1      -9.893   1.733  -3.969  0.00  0.00    +0.022 C 
BRANCH  26  28
ATOM     27  C   UNL     1     -12.234   1.223  -4.678  0.00  0.00    +0.007 C 
ATOM     28  C   UNL     1     -11.311   1.435  -3.476  0.00  0.00    -0.016 C 
ATOM     29  C   UNL     1     -11.296   0.170  -2.615  0.00  0.00    +0.007 C 
ENDBRANCH  26  28
ENDBRANCH  25  26
ENDBRANCH  21  25
ENDBRANCH  13  22
ENDBRANCH   1  13
BRANCH   2  30
ATOM     30  C   UNL     1      -1.999   2.344  -0.974  0.00  0.00    +0.242 C 
BRANCH  30  31
ATOM     31  N   UNL     1      -0.638   2.553  -1.475  0.00  0.00    -0.235 N 
ATOM     32  C   UNL     1       0.145   1.635  -2.135  0.00  0.00    +0.090 A 
ATOM     33  C   UNL     1      -0.040   0.316  -2.534  0.00  0.00    +0.029 A 
ATOM     34  C   UNL     1       0.963  -0.343  -3.188  0.00  0.00    +0.002 A 
ATOM     35  C   UNL     1       2.163   0.297  -3.468  0.00  0.00    +0.002 A 
ATOM     36  C   UNL     1       2.368   1.592  -3.091  0.00  0.00    +0.032 A 
ATOM     37  C   UNL     1       1.358   2.288  -2.414  0.00  0.00    +0.113 A 
ATOM     38  N   UNL     1       1.270   3.542  -1.928  0.00  0.00    -0.129 NA
ATOM     39  N   UNL     1       0.122   3.728  -1.376  0.00  0.00    -0.064 NA
ENDBRANCH  30  31
ENDBRANCH   2  30
TORSDOF 10
