REMARK  Name = ZINC01223290
REMARK  7 active torsions:
REMARK  status: ('A' for Active; 'I' for Inactive)
REMARK    1  A    between atoms: C_1  and  C_2
REMARK    2  A    between atoms: C_3  and  C_29
REMARK    3  A    between atoms: C_9  and  C_12
REMARK    4  A    between atoms: C_15  and  S_17
REMARK    5  A    between atoms: S_17  and  C_18
REMARK    6  A    between atoms: C_18  and  C_19
REMARK    7  A    between atoms: C_26  and  C_28
REMARK                            x       y       z     vdW  Elec       q    Type
REMARK                         _______ _______ _______ _____ _____    ______ ____
ROOT
ATOM      1  C   UNL     1       9.137  -0.491  -1.571  0.00  0.00    +0.249 A 
ATOM      2  N   UNL     1       8.455   0.618  -1.420  0.00  0.00    -0.106 NA
ATOM      3  N   UNL     1       7.197   0.350  -1.422  0.00  0.00    -0.101 NA
ATOM      4  C   UNL     1       7.025  -0.942  -1.574  0.00  0.00    +0.278 A 
ATOM      5  O   UNL     1       8.246  -1.503  -1.666  0.00  0.00    -0.411 OA
ENDROOT
BRANCH   1  14
ATOM      6  C   UNL     1      13.800   2.833  -1.280  0.00  0.00    +0.046 C 
ATOM      7  C   UNL     1      13.905   1.340  -1.463  0.00  0.00    -0.022 A 
ATOM      8  C   UNL     1      15.037   0.627  -1.577  0.00  0.00    +0.017 A 
ATOM      9  N   UNL     1      14.740  -0.699  -1.730  0.00  0.00    -0.358 N 
ATOM     10  H   UNL     1      15.394  -1.408  -1.832  0.00  0.00    +0.166 HD
ATOM     11  C   UNL     1      13.375  -0.879  -1.719  0.00  0.00    +0.047 A 
ATOM     12  C   UNL     1      12.792   0.392  -1.551  0.00  0.00    +0.004 A 
ATOM     13  C   UNL     1      11.405   0.522  -1.507  0.00  0.00    +0.023 A 
ATOM     14  C   UNL     1      10.609  -0.613  -1.620  0.00  0.00    +0.039 A 
ATOM     15  C   UNL     1      11.201  -1.872  -1.786  0.00  0.00    +0.015 A 
ATOM     16  C   UNL     1      12.559  -2.001  -1.835  0.00  0.00    +0.027 A 
ATOM     17  C   UNL     1      16.429   1.204  -1.542  0.00  0.00    +0.063 C 
ENDBRANCH   1  14
BRANCH   4  18
ATOM     18  S   UNL     1       5.481  -1.788  -1.639  0.00  0.00    -0.056 S 
BRANCH  18  19
ATOM     19  C   UNL     1       4.348  -0.391  -1.443  0.00  0.00    +0.174 C 
BRANCH  19  20
ATOM     20  C   UNL     1       2.926  -0.889  -1.469  0.00  0.00    +0.226 C 
ATOM     21  O   UNL     1       2.701  -2.073  -1.606  0.00  0.00    -0.275 OA
ATOM     22  N   UNL     1       1.905  -0.020  -1.339  0.00  0.00    -0.298 N 
ATOM     23  C   UNL     1       2.154   1.427  -1.298  0.00  0.00    +0.108 C 
ATOM     24  C   UNL     1       1.497   2.005  -0.041  0.00  0.00    +0.019 C 
ATOM     25  C   UNL     1       0.016   1.622  -0.022  0.00  0.00    +0.003 C 
ATOM     26  C   UNL     1      -0.118   0.098   0.020  0.00  0.00    +0.022 C 
ATOM     27  C   UNL     1       0.520  -0.501  -1.237  0.00  0.00    +0.073 C 
ATOM     28  C   UNL     1       0.514  -2.028  -1.137  0.00  0.00    +0.028 C 
ENDBRANCH  19  20
ENDBRANCH  18  19
ENDBRANCH   4  18
TORSDOF 4
