REMARK  Name = ZINC09409176
REMARK  12 active torsions:
REMARK  status: ('A' for Active; 'I' for Inactive)
REMARK    1  A    between atoms: C_1  and  C_2
REMARK    2  A    between atoms: C_2  and  O_3
REMARK    3  A    between atoms: O_3  and  C_4
REMARK    4  A    between atoms: C_6  and  C_11
REMARK    5  A    between atoms: C_9  and  O_10
REMARK    6  A    between atoms: C_14  and  C_32
REMARK    7  A    between atoms: N_21  and  C_22
REMARK    8  A    between atoms: C_22  and  C_23
REMARK    9  A    between atoms: C_23  and  C_24
REMARK   10  A    between atoms: C_27  and  O_30
REMARK   11  A    between atoms: O_30  and  C_31
REMARK   12  A    between atoms: C_37  and  O_38
REMARK                            x       y       z     vdW  Elec       q    Type
REMARK                         _______ _______ _______ _____ _____    ______ ____
ROOT
ATOM      1  C   UNL     1      -0.133  -4.939  -0.026  0.00  0.00    +0.141 C 
ATOM      2  C   UNL     1      -1.548  -5.429  -0.174  0.00  0.00    +0.035 A 
ATOM      3  C   UNL     1      -2.902  -5.102  -0.300  0.00  0.00    +0.102 A 
ATOM      4  N   UNL     1      -3.574  -6.233  -0.389  0.00  0.00    -0.173 NA
ATOM      5  N   UNL     1      -2.778  -7.241  -0.332  0.00  0.00    -0.272 N 
ATOM      6  H   UNL     1      -3.052  -8.171  -0.378  0.00  0.00    +0.189 HD
ATOM      7  C   UNL     1      -1.490  -6.809  -0.197  0.00  0.00    +0.126 A 
ATOM      8  C   UNL     1      -0.087  -7.220  -0.068  0.00  0.00    +0.265 C 
ATOM      9  O   UNL     1       0.301  -8.372  -0.053  0.00  0.00    -0.268 OA
ATOM     10  N   UNL     1       0.711  -6.139   0.034  0.00  0.00    -0.285 N 
ENDROOT
BRANCH   1  13
ATOM     11  C   UNL     1       0.753  -3.902  -3.549  0.00  0.00    +0.162 A 
ATOM     12  C   UNL     1       0.400  -4.678  -2.456  0.00  0.00    +0.055 A 
ATOM     13  C   UNL     1       0.250  -4.093  -1.213  0.00  0.00    -0.019 A 
ATOM     14  C   UNL     1       0.450  -2.734  -1.056  0.00  0.00    +0.009 A 
ATOM     15  C   UNL     1       0.801  -1.954  -2.142  0.00  0.00    +0.049 A 
ATOM     16  C   UNL     1       0.960  -2.535  -3.390  0.00  0.00    +0.158 A 
BRANCH  16  17
ATOM     17  O   UNL     1       1.311  -1.770  -4.458  0.00  0.00    -0.503 OA
ATOM     18  H   UNL     1       0.559  -1.400  -4.940  0.00  0.00    +0.292 HD
ENDBRANCH  16  17
BRANCH  11  19
ATOM     19  O   UNL     1       0.901  -4.476  -4.773  0.00  0.00    -0.489 OA
BRANCH  19  21
ATOM     20  C   UNL     1       0.886  -6.345  -6.304  0.00  0.00    +0.048 C 
ATOM     21  C   UNL     1       0.673  -5.884  -4.861  0.00  0.00    +0.226 C 
ENDBRANCH  19  21
ENDBRANCH  11  19
ENDBRANCH   1  13
BRANCH   3  22
ATOM     22  C   UNL     1      -3.477  -3.734  -0.329  0.00  0.00    +0.044 A 
ATOM     23  C   UNL     1      -2.662  -2.628  -0.101  0.00  0.00    +0.014 A 
ATOM     24  C   UNL     1      -3.201  -1.358  -0.128  0.00  0.00    +0.001 A 
ATOM     25  C   UNL     1      -4.549  -1.179  -0.381  0.00  0.00    +0.004 A 
ATOM     26  C   UNL     1      -5.367  -2.269  -0.608  0.00  0.00    +0.046 A 
ATOM     27  C   UNL     1      -4.837  -3.550  -0.590  0.00  0.00    +0.126 A 
BRANCH  27  28
ATOM     28  O   UNL     1      -5.639  -4.623  -0.819  0.00  0.00    -0.506 OA
ATOM     29  H   UNL     1      -6.044  -4.989  -0.021  0.00  0.00    +0.292 HD
ENDBRANCH  27  28
ENDBRANCH   3  22
BRANCH  10  30
ATOM     30  C   UNL     1       2.169  -6.157   0.177  0.00  0.00    +0.114 C 
BRANCH  30  31
ATOM     31  C   UNL     1       2.535  -6.192   1.662  0.00  0.00    +0.054 C 
BRANCH  31  32
ATOM     32  C   UNL     1       4.035  -6.210   1.809  0.00  0.00    -0.046 A 
ATOM     33  C   UNL     1       4.710  -7.416   1.846  0.00  0.00    +0.007 A 
ATOM     34  C   UNL     1       6.084  -7.436   1.981  0.00  0.00    +0.046 A 
ATOM     35  C   UNL     1       6.787  -6.244   2.080  0.00  0.00    +0.120 A 
ATOM     36  C   UNL     1       6.108  -5.035   2.042  0.00  0.00    +0.046 A 
ATOM     37  C   UNL     1       4.734  -5.021   1.901  0.00  0.00    +0.007 A 
BRANCH  35  38
ATOM     38  O   UNL     1       8.140  -6.261   2.213  0.00  0.00    -0.495 OA
ATOM     39  C   UNL     1       8.798  -4.996   2.309  0.00  0.00    +0.277 C 
ENDBRANCH  35  38
ENDBRANCH  31  32
ENDBRANCH  30  31
ENDBRANCH  10  30
TORSDOF 10
