REMARK  Name = ZINC32696882
REMARK  7 active torsions:
REMARK  status: ('A' for Active; 'I' for Inactive)
REMARK    1  A    between atoms: C_4  and  N_7
REMARK    2  A    between atoms: C_8  and  S_15
REMARK    3  A    between atoms: S_15  and  C_16
REMARK    4  A    between atoms: C_16  and  C_17
REMARK    5  A    between atoms: C_23  and  S_25
REMARK    6  A    between atoms: S_25  and  C_26
REMARK    7  A    between atoms: C_26  and  C_27
REMARK                            x       y       z     vdW  Elec       q    Type
REMARK                         _______ _______ _______ _____ _____    ______ ____
ROOT
ATOM      1  C   UNL     1       6.450   5.104   0.220  0.00  0.00    +0.229 C 
ATOM      2  O   UNL     1       6.846   5.888  -0.617  0.00  0.00    -0.275 OA
ATOM      3  N   UNL     1       7.305   4.611   1.138  0.00  0.00    -0.263 N 
ATOM      4  C   UNL     1       8.642   5.002   1.126  0.00  0.00    +0.189 A 
ATOM      5  N   UNL     1       9.277   5.833   0.317  0.00  0.00    -0.125 NA
ATOM      6  N   UNL     1      10.507   6.081   0.445  0.00  0.00    -0.133 NA
ATOM      7  C   UNL     1      11.239   5.524   1.399  0.00  0.00    +0.160 A 
ATOM      8  S   UNL     1       9.989   4.529   2.207  0.00  0.00    -0.024 S 
ATOM      9  H   UNL     1       6.947   3.900   1.897  0.00  0.00    +0.157 HD
ENDROOT
BRANCH   1  10
ATOM     10  C   UNL     1       5.004   4.681   0.233  0.00  0.00    +0.173 C 
BRANCH  10  11
ATOM     11  S   UNL     1       4.121   5.509  -1.112  0.00  0.00    -0.081 S 
BRANCH  11  13
ATOM     12  N   UNL     1       2.282   4.003   0.110  0.00  0.00    -0.226 NA
ATOM     13  C   UNL     1       2.505   4.852  -0.868  0.00  0.00    +0.157 C 
ATOM     14  N   UNL     1       1.478   5.226  -1.700  0.00  0.00    -0.310 N 
ATOM     15  C   UNL     1       1.365   6.613  -2.171  0.00  0.00    +0.107 C 
ATOM     16  C   UNL     1       1.276   6.602  -3.704  0.00  0.00    +0.019 C 
ATOM     17  C   UNL     1       0.121   5.695  -4.136  0.00  0.00    +0.003 C 
ATOM     18  C   UNL     1       0.387   4.266  -3.659  0.00  0.00    +0.019 C 
ATOM     19  C   UNL     1       0.469   4.249  -2.130  0.00  0.00    +0.107 C 
BRANCH  12  23
ATOM     20  C   UNL     1      -1.590   2.832   0.987  0.00  0.00    +0.000 A 
ATOM     21  C   UNL     1      -0.632   1.878   0.692  0.00  0.00    +0.002 A 
ATOM     22  C   UNL     1       0.660   2.261   0.397  0.00  0.00    +0.028 A 
ATOM     23  C   UNL     1       1.001   3.615   0.402  0.00  0.00    +0.066 A 
ATOM     24  C   UNL     1       0.031   4.572   0.706  0.00  0.00    +0.028 A 
ATOM     25  C   UNL     1      -1.257   4.175   0.999  0.00  0.00    +0.002 A 
ENDBRANCH  12  23
ENDBRANCH  11  13
ENDBRANCH  10  11
ENDBRANCH   1  10
BRANCH   7  26
ATOM     26  S   UNL     1      12.950   5.715   1.771  0.00  0.00    -0.092 S 
BRANCH  26  27
ATOM     27  C   UNL     1      13.543   6.888   0.521  0.00  0.00    +0.111 C 
BRANCH  27  28
ATOM     28  C   UNL     1      15.014   7.143   0.729  0.00  0.00    -0.037 A 
ATOM     29  C   UNL     1      15.428   8.174   1.551  0.00  0.00    +0.006 A 
ATOM     30  C   UNL     1      16.776   8.405   1.746  0.00  0.00    +0.020 A 
ATOM     31  C   UNL     1      17.713   7.610   1.109  0.00  0.00    +0.041 A 
ATOM     32  C   UNL     1      17.298   6.581   0.282  0.00  0.00    +0.020 A 
ATOM     33  C   UNL     1      15.949   6.348   0.092  0.00  0.00    +0.006 A 
ATOM     34 CL   UNL     1      19.407   7.902   1.348  0.00  0.00    -0.084 Cl
ENDBRANCH  27  28
ENDBRANCH  26  27
ENDBRANCH   7  26
TORSDOF 7
