REMARK  Name = ZINC13023073
REMARK  8 active torsions:
REMARK  status: ('A' for Active; 'I' for Inactive)
REMARK    1  A    between atoms: C_1  and  C_2
REMARK    2  A    between atoms: C_6  and  C_15
REMARK    3  A    between atoms: C_13  and  C_14
REMARK    4  A    between atoms: C_15  and  C_17
REMARK    5  A    between atoms: C_15  and  N_66
REMARK    6  A    between atoms: N_21  and  C_22
REMARK    7  A    between atoms: C_22  and  C_23
REMARK    8  A    between atoms: N_30  and  C_33
REMARK                            x       y       z     vdW  Elec       q    Type
REMARK                         _______ _______ _______ _____ _____    ______ ____
ROOT
ATOM      1  C   UNL     1      -4.986   3.843   0.045  0.00  0.00    +0.039 C 
ENDROOT
BRANCH   1   7
ATOM      2  C   UNL     1       2.426   4.504   0.538  0.00  0.00    +0.044 C 
ATOM      3  C   UNL     1       1.185   3.653   0.450  0.00  0.00    -0.047 A 
ATOM      4  C   UNL     1      -0.042   4.250   0.382  0.00  0.00    +0.013 A 
ATOM      5  C   UNL     1      -1.193   3.460   0.300  0.00  0.00    -0.001 A 
ATOM      6  C   UNL     1      -2.523   4.067   0.224  0.00  0.00    +0.017 A 
ATOM      7  C   UNL     1      -3.603   3.251   0.130  0.00  0.00    +0.011 A 
ATOM      8  C   UNL     1      -3.436   1.850   0.122  0.00  0.00    +0.251 A 
ATOM      9  O   UNL     1      -4.420   1.135   0.047  0.00  0.00    -0.268 OA
ATOM     10  N   UNL     1      -2.219   1.283   0.196  0.00  0.00    -0.322 N 
ATOM     11  H   UNL     1      -2.140   0.317   0.188  0.00  0.00    +0.169 HD
ATOM     12  C   UNL     1      -1.081   2.057   0.283  0.00  0.00    +0.049 A 
ATOM     13  C   UNL     1       0.178   1.472   0.359  0.00  0.00    +0.030 A 
ATOM     14  C   UNL     1       1.300   2.270   0.440  0.00  0.00    -0.046 A 
ATOM     15  C   UNL     1       2.664   1.633   0.516  0.00  0.00    +0.044 C 
ENDBRANCH   1   7
BRANCH   1  21
ATOM     16  C   UNL     1      -7.204   3.782   1.017  0.00  0.00    -0.058 C 
ATOM     17  C   UNL     1      -8.064   3.109   2.088  0.00  0.00    +0.086 C 
ATOM     18  N   UNL     1      -7.492   3.382   3.415  0.00  0.00    -0.333 N 
ATOM     19  C   UNL     1      -6.116   2.876   3.506  0.00  0.00    +0.086 C 
ATOM     20  C   UNL     1      -5.255   3.549   2.434  0.00  0.00    -0.058 C 
ATOM     21  N   UNL     1      -5.828   3.248   1.105  0.00  0.00    +0.391 N 
ATOM     22  H   UNL     1      -5.857   2.230   0.976  0.00  0.00    -0.080 HD
BRANCH  18  23
ATOM     23  C   UNL     1      -8.293   2.842   4.426  0.00  0.00    +0.030 A 
ATOM     24  C   UNL     1      -7.750   1.947   5.339  0.00  0.00    +0.026 A 
ATOM     25  C   UNL     1      -8.542   1.419   6.340  0.00  0.00    +0.040 A 
ATOM     26  C   UNL     1      -9.878   1.772   6.427  0.00  0.00    +0.124 A 
ATOM     27  C   UNL     1     -10.422   2.660   5.515  0.00  0.00    +0.040 A 
ATOM     28  C   UNL     1      -9.633   3.195   4.515  0.00  0.00    +0.026 A 
ATOM     29  F   UNL     1     -10.651   1.251   7.405  0.00  0.00    -0.205 F 
ENDBRANCH  18  23
ENDBRANCH   1  21
BRANCH   1  30
ATOM     30  C   UNL     1      -5.589   3.522  -1.298  0.00  0.00    +0.143 A 
ATOM     31  N   UNL     1      -6.060   2.362  -1.687  0.00  0.00    -0.115 NA
ATOM     32  N   UNL     1      -6.489   2.492  -2.895  0.00  0.00    -0.023 NA
ATOM     33  N   UNL     1      -6.295   3.702  -3.290  0.00  0.00    -0.044 NA
ATOM     34  N   UNL     1      -5.742   4.368  -2.333  0.00  0.00    -0.223 N 
BRANCH  34  35
ATOM     35  C   UNL     1      -5.355   5.780  -2.367  0.00  0.00    +0.221 C 
BRANCH  35  36
ATOM     36  C   UNL     1      -3.938   5.901  -2.866  0.00  0.00    +0.126 A 
ATOM     37  C   UNL     1      -3.566   6.035  -4.152  0.00  0.00    +0.046 A 
ATOM     38  C   UNL     1      -2.155   6.114  -4.164  0.00  0.00    +0.041 A 
ATOM     39  C   UNL     1      -1.748   6.016  -2.885  0.00  0.00    +0.195 A 
ATOM     40  O   UNL     1      -2.833   5.887  -2.104  0.00  0.00    -0.466 OA
ENDBRANCH  35  36
ENDBRANCH  34  35
ENDBRANCH   1  30
TORSDOF 6
