REMARK  Name = ZINC06207739
REMARK  6 active torsions:
REMARK  status: ('A' for Active; 'I' for Inactive)
REMARK    1  A    between atoms: C_1  and  C_2
REMARK    2  A    between atoms: C_2  and  O_3
REMARK    3  A    between atoms: O_3  and  C_4
REMARK    4  A    between atoms: C_7  and  C_10
REMARK    5  A    between atoms: N_15  and  C_18
REMARK    6  A    between atoms: C_16  and  O_17
REMARK                            x       y       z     vdW  Elec       q    Type
REMARK                         _______ _______ _______ _____ _____    ______ ____
ROOT
ATOM      1  C   UNL     1       1.144  -6.059   1.764  0.00  0.00    +0.092 C 
ATOM      2  C   UNL     1       2.597  -6.442   1.803  0.00  0.00    +0.067 A 
ATOM      3  C   UNL     1       3.236  -6.834   3.003  0.00  0.00    +0.153 A 
ATOM      4  N   UNL     1       4.480  -7.100   2.737  0.00  0.00    -0.148 NA
ATOM      5  N   UNL     1       4.690  -6.894   1.364  0.00  0.00    -0.199 N 
ATOM      6  C   UNL     1       3.510  -6.489   0.814  0.00  0.00    +0.222 A 
ATOM      7  N   UNL     1       2.524  -6.886   4.205  0.00  0.00    -0.301 N 
ATOM      8  C   UNL     1       1.153  -6.845   4.156  0.00  0.00    +0.017 C 
ATOM      9  C   UNL     1       0.470  -6.482   3.052  0.00  0.00    +0.024 C 
ATOM     10  C   UNL     1      -0.938  -6.481   3.046  0.00  0.00    +0.162 C 
ATOM     11  O   UNL     1      -1.526  -6.145   2.037  0.00  0.00    -0.292 OA
ATOM     12  C   UNL     1      -1.732  -6.887   4.255  0.00  0.00    +0.080 C 
ATOM     13  C   UNL     1      -0.909  -7.882   5.079  0.00  0.00    +0.014 C 
ATOM     14  C   UNL     1       0.424  -7.226   5.426  0.00  0.00    +0.051 C 
ATOM     15  H   UNL     1       2.988  -6.951   5.054  0.00  0.00    +0.153 HD
ENDROOT
BRANCH   1  19
ATOM     16  C   UNL     1       0.802  -1.824   1.306  0.00  0.00    +0.121 A 
ATOM     17  C   UNL     1       0.260  -2.673   0.351  0.00  0.00    +0.046 A 
ATOM     18  C   UNL     1       0.372  -4.041   0.502  0.00  0.00    +0.008 A 
ATOM     19  C   UNL     1       1.024  -4.566   1.603  0.00  0.00    -0.035 A 
ATOM     20  C   UNL     1       1.565  -3.722   2.555  0.00  0.00    +0.008 A 
ATOM     21  C   UNL     1       1.460  -2.353   2.406  0.00  0.00    +0.046 A 
BRANCH  16  22
ATOM     22  O   UNL     1       0.693  -0.477   1.160  0.00  0.00    -0.492 OA
BRANCH  22  24
ATOM     23  C   UNL     1      -0.019   1.526   0.010  0.00  0.00    +0.048 C 
ATOM     24  C   UNL     1       0.002  -0.004   0.002  0.00  0.00    +0.225 C 
ENDBRANCH  22  24
ENDBRANCH  16  22
ENDBRANCH   1  19
BRANCH   5  25
ATOM     25  C   UNL     1       5.899  -7.072   0.680  0.00  0.00    +0.069 A 
ATOM     26  C   UNL     1       5.897  -7.543  -0.627  0.00  0.00    +0.028 A 
ATOM     27  C   UNL     1       7.090  -7.718  -1.299  0.00  0.00    +0.002 A 
ATOM     28  C   UNL     1       8.288  -7.425  -0.672  0.00  0.00    +0.000 A 
ATOM     29  C   UNL     1       8.294  -6.957   0.629  0.00  0.00    +0.002 A 
ATOM     30  C   UNL     1       7.103  -6.774   1.304  0.00  0.00    +0.028 A 
ENDBRANCH   5  25
BRANCH   6  31
ATOM     31  O   UNL     1       3.294  -6.188  -0.492  0.00  0.00    -0.492 OA
ATOM     32  H   UNL     1       3.447  -5.258  -0.712  0.00  0.00    +0.294 HD
ENDBRANCH   6  31
TORSDOF 5
