REMARK  Name = ZINC04223813
REMARK  6 active torsions:
REMARK  status: ('A' for Active; 'I' for Inactive)
REMARK    1  A    between atoms: C_1  and  C_2
REMARK    2  A    between atoms: C_7  and  N_8
REMARK    3  A    between atoms: N_8  and  C_9
REMARK    4  A    between atoms: C_9  and  N_11
REMARK    5  A    between atoms: C_19  and  C_21
REMARK    6  A    between atoms: C_25  and  N_27
REMARK                            x       y       z     vdW  Elec       q    Type
REMARK                         _______ _______ _______ _____ _____    ______ ____
ROOT
ATOM      1  N   UNL     1      -1.121   5.890  -0.866  0.00  0.00    -0.298 N 
ATOM      2  C   UNL     1      -2.522   5.871  -0.421  0.00  0.00    +0.129 C 
ATOM      3  C   UNL     1      -2.687   6.817   0.773  0.00  0.00    +0.140 C 
ATOM      4  N   UNL     1      -1.599   6.582   1.730  0.00  0.00    -0.347 N 
ATOM      5  C   UNL     1      -1.570   6.946   3.041  0.00  0.00    +0.086 A 
ATOM      6  C   UNL     1      -0.388   6.556   3.562  0.00  0.00    +0.019 A 
ATOM      7  C   UNL     1       0.340   5.923   2.533  0.00  0.00    +0.025 A 
ATOM      8  C   UNL     1      -0.423   5.950   1.430  0.00  0.00    +0.044 A 
ATOM      9  C   UNL     1      -0.091   5.393   0.065  0.00  0.00    +0.152 C 
ENDROOT
BRANCH   9  10
ATOM     10  C   UNL     1      -0.118   3.886   0.104  0.00  0.00    -0.019 A 
ATOM     11  C   UNL     1      -1.244   3.227   0.560  0.00  0.00    +0.006 A 
ATOM     12  C   UNL     1      -1.271   1.845   0.590  0.00  0.00    +0.003 A 
ATOM     13  C   UNL     1      -0.168   1.123   0.175  0.00  0.00    +0.033 A 
ATOM     14  C   UNL     1       0.958   1.782  -0.281  0.00  0.00    +0.127 A 
ATOM     15  C   UNL     1       0.983   3.164  -0.317  0.00  0.00    +0.038 A 
BRANCH  14  16
ATOM     16  N   UNL     1       2.137   1.009  -0.732  0.00  0.00    +0.056 N 
ATOM     17  O   UNL     1       2.115  -0.208  -0.701  0.00  0.00    -0.126 OA
ATOM     18  O   UNL     1       3.129   1.590  -1.134  0.00  0.00    -0.126 OA
ENDBRANCH  14  16
ENDBRANCH   9  10
BRANCH   1  19
ATOM     19  C   UNL     1      -0.787   6.350  -2.088  0.00  0.00    +0.138 C 
ATOM     20  S   UNL     1       0.835   6.252  -2.627  0.00  0.00    -0.018 S 
BRANCH  19  21
ATOM     21  N   UNL     1      -1.731   6.886  -2.887  0.00  0.00    -0.297 N 
ATOM     22  H   UNL     1      -1.745   7.842  -3.047  0.00  0.00    +0.154 HD
BRANCH  21  29
ATOM     23  C   UNL     1      -3.833   8.120  -4.356  0.00  0.00    +0.045 C 
ATOM     24  C   UNL     1      -3.733   6.623  -4.212  0.00  0.00    -0.029 A 
ATOM     25  C   UNL     1      -4.679   5.807  -4.802  0.00  0.00    +0.005 A 
ATOM     26  C   UNL     1      -4.589   4.434  -4.670  0.00  0.00    +0.000 A 
ATOM     27  C   UNL     1      -3.552   3.872  -3.947  0.00  0.00    +0.002 A 
ATOM     28  C   UNL     1      -2.600   4.682  -3.360  0.00  0.00    +0.023 A 
ATOM     29  C   UNL     1      -2.691   6.062  -3.486  0.00  0.00    +0.036 A 
ENDBRANCH  21  29
ENDBRANCH  19  21
ENDBRANCH   1  19
TORSDOF 5
