REMARK  Name = ZINC00886292
REMARK  12 active torsions:
REMARK  status: ('A' for Active; 'I' for Inactive)
REMARK    1  A    between atoms: C_1  and  C_2
REMARK    2  A    between atoms: C_5  and  C_7
REMARK    3  A    between atoms: N_10  and  C_12
REMARK    4  A    between atoms: C_12  and  C_13
REMARK    5  A    between atoms: N_15  and  C_16
REMARK    6  A    between atoms: N_15  and  C_25
REMARK    7  A    between atoms: C_16  and  C_17
REMARK    8  A    between atoms: C_20  and  O_23
REMARK    9  A    between atoms: O_23  and  C_24
REMARK   10  A    between atoms: C_25  and  C_27
REMARK   11  A    between atoms: C_25  and  C_32
REMARK   12  A    between atoms: N_34  and  C_35
REMARK                            x       y       z     vdW  Elec       q    Type
REMARK                         _______ _______ _______ _____ _____    ______ ____
ROOT
ATOM      1  C   UNL     1       5.746  -3.980  -0.975  0.00  0.00    +0.240 C 
ATOM      2  O   UNL     1       5.189  -3.125  -1.632  0.00  0.00    -0.273 OA
ATOM      3  N   UNL     1       6.860  -4.574  -1.447  0.00  0.00    -0.280 N 
ENDROOT
BRANCH   1   4
ATOM      4  C   UNL     1       5.191  -4.377   0.369  0.00  0.00    +0.264 C 
BRANCH   4   8
ATOM      5  C   UNL     1       2.971  -1.873   1.490  0.00  0.00    +0.239 A 
ATOM      6  N   UNL     1       2.131  -2.726   0.884  0.00  0.00    -0.105 NA
ATOM      7  N   UNL     1       2.841  -3.700   0.425  0.00  0.00    -0.045 NA
ATOM      8  N   UNL     1       4.077  -3.493   0.718  0.00  0.00    -0.154 N 
ATOM      9  N   UNL     1       4.182  -2.381   1.363  0.00  0.00    -0.127 NA
BRANCH   5  14
ATOM     10  C   UNL     1       3.385   2.446   4.015  0.00  0.00    +0.086 C 
ATOM     11  C   UNL     1       2.786   1.282   3.269  0.00  0.00    +0.103 A 
ATOM     12  C   UNL     1       1.477   1.114   2.996  0.00  0.00    +0.045 A 
ATOM     13  C   UNL     1       1.356  -0.098   2.287  0.00  0.00    +0.053 A 
ATOM     14  C   UNL     1       2.610  -0.607   2.165  0.00  0.00    +0.175 A 
ATOM     15  O   UNL     1       3.468   0.243   2.760  0.00  0.00    -0.457 OA
ENDBRANCH   5  14
ENDBRANCH   4   8
ENDBRANCH   1   4
BRANCH   3  16
ATOM     16  C   UNL     1       7.462  -4.111  -2.700  0.00  0.00    +0.144 C 
BRANCH  16  17
ATOM     17  C   UNL     1       8.381  -2.951  -2.417  0.00  0.00    -0.030 A 
ATOM     18  C   UNL     1       7.889  -1.659  -2.439  0.00  0.00    +0.009 A 
ATOM     19  C   UNL     1       8.730  -0.594  -2.180  0.00  0.00    +0.046 A 
ATOM     20  C   UNL     1      10.069  -0.821  -1.898  0.00  0.00    +0.120 A 
ATOM     21  C   UNL     1      10.560  -2.118  -1.875  0.00  0.00    +0.046 A 
ATOM     22  C   UNL     1       9.714  -3.181  -2.130  0.00  0.00    +0.009 A 
BRANCH  20  23
ATOM     23  O   UNL     1      10.898   0.225  -1.643  0.00  0.00    -0.495 OA
ATOM     24  C   UNL     1      12.264  -0.084  -1.360  0.00  0.00    +0.277 C 
ENDBRANCH  20  23
ENDBRANCH  16  17
ENDBRANCH   3  16
BRANCH   3  25
ATOM     25  C   UNL     1       7.468  -5.682  -0.707  0.00  0.00    +0.199 C 
BRANCH  25  26
ATOM     26  C   UNL     1       8.745  -6.100  -1.389  0.00  0.00    +0.019 A 
ATOM     27  C   UNL     1      10.020  -6.023  -0.936  0.00  0.00    +0.013 A 
ATOM     28  C   UNL     1      11.047  -6.473  -1.744  0.00  0.00    +0.008 A 
ATOM     29  C   UNL     1      10.749  -6.979  -2.965  0.00  0.00    +0.045 A 
ATOM     30  S   UNL     1       8.970  -6.834  -3.001  0.00  0.00    -0.099 S 
ENDBRANCH  25  26
BRANCH  25  31
ATOM     31  C   UNL     1       6.513  -6.847  -0.671  0.00  0.00    +0.239 C 
ATOM     32  O   UNL     1       5.694  -6.987  -1.555  0.00  0.00    -0.273 OA
ATOM     33  N   UNL     1       6.568  -7.733   0.343  0.00  0.00    -0.311 N 
ATOM     34  H   UNL     1       7.223  -7.621   1.050  0.00  0.00    +0.149 HD
BRANCH  33  35
ATOM     35  C   UNL     1       5.639  -8.866   0.378  0.00  0.00    +0.073 C 
ATOM     36  C   UNL     1       4.335  -8.457   1.094  0.00  0.00    +0.022 C 
ATOM     37  C   UNL     1       3.927  -9.722   1.889  0.00  0.00    +0.002 C 
ATOM     38  C   UNL     1       5.290 -10.274   2.377  0.00  0.00    +0.002 C 
ATOM     39  C   UNL     1       6.246 -10.020   1.194  0.00  0.00    +0.022 C 
ENDBRANCH  33  35
ENDBRANCH  25  31
ENDBRANCH   3  25
TORSDOF 10
