REMARK  Name = ZINC02344098
REMARK  4 active torsions:
REMARK  status: ('A' for Active; 'I' for Inactive)
REMARK    1  A    between atoms: C_1  and  C_2
REMARK    2  A    between atoms: C_4  and  C_27
REMARK    3  A    between atoms: N_20  and  C_21
REMARK    4  A    between atoms: C_21  and  C_22
REMARK                            x       y       z     vdW  Elec       q    Type
REMARK                         _______ _______ _______ _____ _____    ______ ____
ROOT
ATOM      1  C   UNL     1       3.959   8.456  -3.815  0.00  0.00    +0.067 C 
ATOM      2  C   UNL     1       3.835   8.445  -2.313  0.00  0.00    +0.061 A 
ATOM      3  C   UNL     1       4.135   9.512  -1.459  0.00  0.00    +0.048 A 
ATOM      4  C   UNL     1       3.895   9.111  -0.190  0.00  0.00    +0.045 A 
ATOM      5  N   UNL     1       3.455   7.826  -0.241  0.00  0.00    -0.202 N 
ATOM      6  N   UNL     1       3.434   7.435  -1.586  0.00  0.00    -0.169 NA
ATOM      7  C   UNL     1       3.095   7.036   0.851  0.00  0.00    +0.254 A 
ATOM      8  N   UNL     1       2.682   5.793   0.645  0.00  0.00    -0.195 NA
ATOM      9  C   UNL     1       2.327   4.996   1.640  0.00  0.00    +0.133 A 
ATOM     10  C   UNL     1       2.383   5.485   2.975  0.00  0.00    +0.051 A 
ATOM     11  C   UNL     1       2.049   4.789   4.219  0.00  0.00    -0.025 A 
ATOM     12  C   UNL     1       2.197   5.482   5.366  0.00  0.00    -0.004 A 
ATOM     13  S   UNL     1       2.788   7.078   4.870  0.00  0.00    -0.073 S 
ATOM     14  C   UNL     1       2.836   6.812   3.117  0.00  0.00    +0.116 A 
ATOM     15  N   UNL     1       3.172   7.543   2.072  0.00  0.00    -0.203 NA
ATOM     16  C   UNL     1       1.920   5.002   6.758  0.00  0.00    +0.043 C 
ATOM     17  C   UNL     1       1.086   3.716   6.671  0.00  0.00    +0.005 C 
ATOM     18  C   UNL     1       1.732   2.780   5.646  0.00  0.00    +0.005 C 
ATOM     19  C   UNL     1       1.550   3.347   4.238  0.00  0.00    +0.037 C 
ATOM     20  N   UNL     1       1.900   3.706   1.385  0.00  0.00    -0.321 N 
ATOM     21  C   UNL     1       4.081   9.939   1.056  0.00  0.00    +0.066 C 
ATOM     22  H   UNL     1       1.559   3.156   2.107  0.00  0.00    +0.148 HD
ENDROOT
BRANCH  20  23
ATOM     23  C   UNL     1       1.964   3.169   0.023  0.00  0.00    +0.177 C 
BRANCH  23  24
ATOM     24  C   UNL     1       1.444   1.754   0.016  0.00  0.00    +0.122 A 
ATOM     25  C   UNL     1       0.165   1.387  -0.181  0.00  0.00    +0.046 A 
ATOM     26  C   UNL     1       0.128  -0.024  -0.107  0.00  0.00    +0.041 A 
ATOM     27  C   UNL     1       1.387  -0.435   0.131  0.00  0.00    +0.195 A 
ATOM     28  O   UNL     1       2.179   0.647   0.204  0.00  0.00    -0.466 OA
ENDBRANCH  23  24
ENDBRANCH  20  23
TORSDOF 2
