REMARK  Name = ZINC16994397
REMARK  7 active torsions:
REMARK  status: ('A' for Active; 'I' for Inactive)
REMARK    1  A    between atoms: C_1  and  C_2
REMARK    2  A    between atoms: C_4  and  C_25
REMARK    3  A    between atoms: C_5  and  C_24
REMARK    4  A    between atoms: C_6  and  S_9
REMARK    5  A    between atoms: C_7  and  C_8
REMARK    6  A    between atoms: S_9  and  N_12
REMARK    7  A    between atoms: N_12  and  C_13
REMARK                            x       y       z     vdW  Elec       q    Type
REMARK                         _______ _______ _______ _____ _____    ______ ____
ROOT
ATOM      1  N   UNL     1       1.197   7.063   0.062  0.00  0.00    -0.216 N 
ATOM      2  H   UNL     1       0.408   7.440  -0.356  0.00  0.00    +0.174 HD
ENDROOT
BRANCH   1   3
ATOM      3  C   UNL     1       1.396   5.678   0.059  0.00  0.00    +0.048 A 
ATOM      4  C   UNL     1       2.638   5.155  -0.280  0.00  0.00    +0.026 A 
ATOM      5  C   UNL     1       2.834   3.789  -0.284  0.00  0.00    +0.025 A 
ATOM      6  C   UNL     1       1.791   2.937   0.051  0.00  0.00    +0.037 A 
ATOM      7  C   UNL     1       0.550   3.459   0.390  0.00  0.00    -0.024 A 
ATOM      8  C   UNL     1       0.353   4.825   0.394  0.00  0.00    +0.030 A 
ATOM      9  C   UNL     1      -0.580   2.531   0.754  0.00  0.00    +0.046 C 
ATOM     10  C   UNL     1      -0.470   1.245  -0.071  0.00  0.00    +0.101 C 
ATOM     11  C   UNL     1       0.936   0.712   0.003  0.00  0.00    +0.218 C 
ATOM     12  O   UNL     1       1.123  -0.486   0.016  0.00  0.00    -0.275 OA
ATOM     13  N   UNL     1       1.988   1.550   0.049  0.00  0.00    -0.285 N 
ATOM     14  H   UNL     1       2.888   1.191   0.080  0.00  0.00    +0.155 HD
ENDBRANCH   1   3
BRANCH   1  15
ATOM     15  S   UNL     1       2.309   8.057   0.781  0.00  0.00    +0.073 S 
ATOM     16  O   UNL     1       1.820   9.384   0.637  0.00  0.00    -0.150 OA
ATOM     17  O   UNL     1       2.604   7.487   2.049  0.00  0.00    -0.150 OA
BRANCH  15  23
ATOM     18  C   UNL     1       5.021   8.984  -3.590  0.00  0.00    +0.044 C 
ATOM     19  C   UNL     1       4.983   8.410  -2.197  0.00  0.00    -0.045 A 
ATOM     20  C   UNL     1       6.108   7.807  -1.667  0.00  0.00    +0.007 A 
ATOM     21  C   UNL     1       6.073   7.281  -0.390  0.00  0.00    -0.045 A 
ATOM     22  C   UNL     1       4.913   7.357   0.358  0.00  0.00    -0.021 A 
ATOM     23  C   UNL     1       3.788   7.960  -0.172  0.00  0.00    +0.115 A 
ATOM     24  C   UNL     1       3.821   8.482  -1.452  0.00  0.00    -0.021 A 
ATOM     25  C   UNL     1       2.592   9.133  -2.032  0.00  0.00    +0.046 C 
ATOM     26  C   UNL     1       4.875   6.783   1.751  0.00  0.00    +0.046 C 
ATOM     27  C   UNL     1       7.300   6.623   0.188  0.00  0.00    +0.044 C 
ENDBRANCH  15  23
ENDBRANCH   1  15
TORSDOF 3
