REMARK  Name = ZINC15108053
REMARK  8 active torsions:
REMARK  status: ('A' for Active; 'I' for Inactive)
REMARK    1  A    between atoms: C_1  and  C_2
REMARK    2  A    between atoms: C_3  and  C_26
REMARK    3  A    between atoms: C_4  and  C_16
REMARK    4  A    between atoms: C_20  and  O_24
REMARK    5  A    between atoms: C_21  and  O_22
REMARK    6  A    between atoms: O_22  and  C_23
REMARK    7  A    between atoms: O_24  and  C_25
REMARK    8  A    between atoms: C_26  and  C_28
REMARK                            x       y       z     vdW  Elec       q    Type
REMARK                         _______ _______ _______ _____ _____    ______ ____
ROOT
ATOM      1  C   UNL     1       0.238   2.241   0.168  0.00  0.00    +0.066 C 
ATOM      2  C   UNL     1       0.319   0.766   0.465  0.00  0.00    +0.050 C 
ATOM      3  C   UNL     1      -0.836   0.003   0.429  0.00  0.00    +0.041 C 
ATOM      4  C   UNL     1      -0.691  -1.477   0.736  0.00  0.00    +0.150 C 
ATOM      5  N   UNL     1       0.670  -1.947   1.040  0.00  0.00    -0.259 N 
ATOM      6  C   UNL     1       1.173  -3.201   1.360  0.00  0.00    +0.058 A 
ATOM      7  C   UNL     1       0.586  -4.450   1.506  0.00  0.00    +0.025 A 
ATOM      8  C   UNL     1       1.363  -5.542   1.836  0.00  0.00    +0.002 A 
ATOM      9  C   UNL     1       2.728  -5.395   2.024  0.00  0.00    +0.002 A 
ATOM     10  C   UNL     1       3.321  -4.157   1.881  0.00  0.00    +0.025 A 
ATOM     11  C   UNL     1       2.549  -3.053   1.548  0.00  0.00    +0.055 A 
ATOM     12  N   UNL     1       2.849  -1.713   1.339  0.00  0.00    -0.285 N 
ATOM     13  C   UNL     1       1.694  -1.051   1.030  0.00  0.00    +0.193 C 
ATOM     14  N   UNL     1       1.492   0.228   0.748  0.00  0.00    -0.222 NA
ATOM     15  H   UNL     1       3.731  -1.314   1.403  0.00  0.00    +0.155 HD
ENDROOT
BRANCH   4  16
ATOM     16  C   UNL     1      -1.196  -2.254  -0.453  0.00  0.00    +0.023 A 
ATOM     17  C   UNL     1      -2.205  -3.185  -0.291  0.00  0.00    +0.009 A 
ATOM     18  C   UNL     1      -2.671  -3.900  -1.379  0.00  0.00    +0.004 A 
ATOM     19  C   UNL     1      -2.129  -3.686  -2.634  0.00  0.00    +0.049 A 
ATOM     20  C   UNL     1      -1.118  -2.754  -2.802  0.00  0.00    +0.162 A 
ATOM     21  C   UNL     1      -0.653  -2.030  -1.708  0.00  0.00    +0.167 A 
BRANCH  21  22
ATOM     22  O   UNL     1       0.335  -1.111  -1.869  0.00  0.00    -0.491 OA
ATOM     23  C   UNL     1       1.681  -1.592  -1.838  0.00  0.00    +0.277 C 
ENDBRANCH  21  22
BRANCH  20  24
ATOM     24  O   UNL     1      -0.585  -2.543  -4.035  0.00  0.00    -0.491 OA
ATOM     25  C   UNL     1      -1.115  -3.318  -5.113  0.00  0.00    +0.277 C 
ENDBRANCH  20  24
ENDBRANCH   4  16
BRANCH   3  26
ATOM     26  C   UNL     1      -2.072   0.567   0.126  0.00  0.00    +0.160 C 
ATOM     27  O   UNL     1      -2.141   1.728  -0.229  0.00  0.00    -0.293 OA
ATOM     28  C   UNL     1      -3.326  -0.262   0.238  0.00  0.00    +0.091 C 
ENDBRANCH   3  26
TORSDOF 4
