REMARK  Name = ZINC66814127
REMARK  3 active torsions:
REMARK  status: ('A' for Active; 'I' for Inactive)
REMARK    1  A    between atoms: C_5  and  C_7
REMARK    2  A    between atoms: N_10  and  C_14
REMARK    3  A    between atoms: C_19  and  N_20
REMARK                            x       y       z     vdW  Elec       q    Type
REMARK                         _______ _______ _______ _____ _____    ______ ____
ROOT
ATOM      1  C   UNL     1       1.228  -2.186  -0.022  0.00  0.00    +0.168 C 
ATOM      2  C   UNL     1       1.344  -2.688  -1.466  0.00  0.00    +0.141 C 
ATOM      3  N   UNL     1       1.173  -4.150  -1.464  0.00  0.00    -0.323 N 
ATOM      4  C   UNL     1       0.007  -4.709  -0.763  0.00  0.00    +0.133 C 
ATOM      5  C   UNL     1      -0.044  -4.109   0.646  0.00  0.00    +0.179 C 
ATOM      6  O   UNL     1       0.018  -2.683   0.554  0.00  0.00    -0.369 OA
ENDROOT
BRANCH   1  11
ATOM      7  C   UNL     1      -0.017   1.378   0.010  0.00  0.00    +0.001 A 
ATOM      8  C   UNL     1       1.171   2.087   0.002  0.00  0.00    +0.003 A 
ATOM      9  C   UNL     1       2.377   1.414  -0.013  0.00  0.00    +0.039 A 
ATOM     10  C   UNL     1       2.397   0.029  -0.021  0.00  0.00    +0.129 A 
ATOM     11  C   UNL     1       1.208  -0.679  -0.013  0.00  0.00    +0.018 A 
ATOM     12  C   UNL     1       0.002  -0.004   0.002  0.00  0.00    +0.009 A 
ATOM     13  F   UNL     1       3.577  -0.630  -0.036  0.00  0.00    -0.205 F 
ENDBRANCH   1  11
BRANCH   3  14
ATOM     14  C   UNL     1       2.092  -4.982  -2.109  0.00  0.00    +0.063 A 
ATOM     15  C   UNL     1       3.190  -5.475  -1.416  0.00  0.00    +0.025 A 
ATOM     16  C   UNL     1       4.097  -6.298  -2.055  0.00  0.00    +0.005 A 
ATOM     17  C   UNL     1       3.913  -6.631  -3.384  0.00  0.00    +0.041 A 
ATOM     18  C   UNL     1       2.819  -6.142  -4.079  0.00  0.00    +0.155 A 
ATOM     19  C   UNL     1       1.905  -5.322  -3.442  0.00  0.00    +0.182 A 
ATOM     20  F   UNL     1       2.643  -6.470  -5.378  0.00  0.00    -0.203 F 
BRANCH  19  21
ATOM     21  N   UNL     1       0.733  -4.804  -4.182  0.00  0.00    +0.061 N 
ATOM     22  O   UNL     1       0.809  -3.753  -4.776  0.00  0.00    -0.126 OA
ATOM     23  O   UNL     1      -0.301  -5.431  -4.193  0.00  0.00    -0.126 OA
ENDBRANCH  19  21
ENDBRANCH   3  14
TORSDOF 3
