REMARK  Name = ZINC13500641
REMARK  12 active torsions:
REMARK  status: ('A' for Active; 'I' for Inactive)
REMARK    1  A    between atoms: C_1  and  C_2
REMARK    2  A    between atoms: C_9  and  C_14
REMARK    3  A    between atoms: C_14  and  N_72
REMARK    4  A    between atoms: C_15  and  N_72
REMARK    5  A    between atoms: C_20  and  C_22
REMARK    6  A    between atoms: C_20  and  C_35
REMARK    7  A    between atoms: C_20  and  N_72
REMARK    8  A    between atoms: N_26  and  C_27
REMARK    9  A    between atoms: C_27  and  C_28
REMARK   10  A    between atoms: C_28  and  C_29
REMARK   11  A    between atoms: C_35  and  C_36
REMARK   12  A    between atoms: C_35  and  C_37
REMARK                            x       y       z     vdW  Elec       q    Type
REMARK                         _______ _______ _______ _____ _____    ______ ____
ROOT
ATOM      1  N   UNL     1       0.510  -0.404   2.650  0.00  0.00    +0.391 N 
ATOM      2  H   UNL     1      -0.506  -0.353   2.509  0.00  0.00    -0.080 HD
ENDROOT
BRANCH   1   3
ATOM      3  C   UNL     1       0.796  -1.366   3.735  0.00  0.00    -0.067 C 
ATOM      4  C   UNL     1       2.286  -1.324   4.135  0.00  0.00    -0.015 C 
ATOM      5  C   UNL     1       2.636  -2.802   4.445  0.00  0.00    -0.002 C 
ATOM      6  C   UNL     1       1.836  -3.577   3.369  0.00  0.00    -0.002 C 
ATOM      7  C   UNL     1       0.510  -2.797   3.248  0.00  0.00    -0.015 C 
ENDBRANCH   1   3
BRANCH   1   8
ATOM      8  C   UNL     1       1.146  -0.856   1.394  0.00  0.00    -0.036 C 
BRANCH   8  17
ATOM      9  C   UNL     1       8.280  -2.749   2.462  0.00  0.00    +0.044 C 
ATOM     10  C   UNL     1       7.232  -1.734   2.086  0.00  0.00    -0.050 A 
ATOM     11  C   UNL     1       7.616  -0.447   1.732  0.00  0.00    +0.005 A 
ATOM     12  C   UNL     1       6.675   0.498   1.386  0.00  0.00    +0.026 A 
ATOM     13  C   UNL     1       5.325   0.161   1.390  0.00  0.00    +0.049 A 
ATOM     14  C   UNL     1       4.939  -1.144   1.750  0.00  0.00    -0.001 A 
ATOM     15  C   UNL     1       5.913  -2.087   2.098  0.00  0.00    +0.013 A 
ATOM     16  C   UNL     1       3.516  -1.487   1.757  0.00  0.00    +0.017 A 
ATOM     17  C   UNL     1       2.618  -0.534   1.404  0.00  0.00    +0.001 A 
ATOM     18  C   UNL     1       3.058   0.760   1.051  0.00  0.00    +0.251 A 
ATOM     19  O   UNL     1       2.233   1.603   0.742  0.00  0.00    -0.268 OA
ATOM     20  N   UNL     1       4.362   1.086   1.047  0.00  0.00    -0.322 N 
ATOM     21  H   UNL     1       4.629   1.985   0.799  0.00  0.00    +0.169 HD
ENDBRANCH   8  17
ENDBRANCH   1   8
BRANCH   1  22
ATOM     22  C   UNL     1       1.012   0.936   3.017  0.00  0.00    +0.006 C 
BRANCH  22  23
ATOM     23  C   UNL     1       0.824   1.152   4.496  0.00  0.00    +0.138 A 
ATOM     24  N   UNL     1      -0.280   0.968   5.179  0.00  0.00    -0.115 NA
ATOM     25  N   UNL     1      -0.039   1.259   6.411  0.00  0.00    -0.023 NA
ATOM     26  N   UNL     1       1.190   1.624   6.532  0.00  0.00    -0.044 NA
ATOM     27  N   UNL     1       1.756   1.566   5.374  0.00  0.00    -0.231 N 
BRANCH  27  28
ATOM     28  C   UNL     1       3.152   1.893   5.071  0.00  0.00    +0.152 C 
BRANCH  28  29
ATOM     29  C   UNL     1       3.294   3.406   4.891  0.00  0.00    +0.058 C 
BRANCH  29  30
ATOM     30  C   UNL     1       4.702   3.731   4.463  0.00  0.00    -0.046 A 
ATOM     31  C   UNL     1       5.670   3.992   5.415  0.00  0.00    +0.004 A 
ATOM     32  C   UNL     1       6.963   4.285   5.023  0.00  0.00    +0.000 A 
ATOM     33  C   UNL     1       7.285   4.329   3.680  0.00  0.00    +0.000 A 
ATOM     34  C   UNL     1       6.316   4.073   2.728  0.00  0.00    +0.000 A 
ATOM     35  C   UNL     1       5.024   3.774   3.120  0.00  0.00    +0.004 A 
ENDBRANCH  29  30
ENDBRANCH  28  29
ENDBRANCH  27  28
ENDBRANCH  22  23
BRANCH  22  36
ATOM     36  C   UNL     1       0.214   1.986   2.242  0.00  0.00    -0.024 C 
ATOM     37  C   UNL     1       0.654   3.385   2.678  0.00  0.00    +0.006 C 
ATOM     38  C   UNL     1      -1.278   1.808   2.530  0.00  0.00    +0.006 C 
ENDBRANCH  22  36
ENDBRANCH   1  22
TORSDOF 9
