REMARK  Name = ZINC16647112
REMARK  6 active torsions:
REMARK  status: ('A' for Active; 'I' for Inactive)
REMARK    1  A    between atoms: C_4  and  N_7
REMARK    2  A    between atoms: N_9  and  C_27
REMARK    3  A    between atoms: N_20  and  C_21
REMARK    4  A    between atoms: C_27  and  C_28
REMARK    5  A    between atoms: N_30  and  C_31
REMARK    6  A    between atoms: C_31  and  C_32
REMARK                            x       y       z     vdW  Elec       q    Type
REMARK                         _______ _______ _______ _____ _____    ______ ____
ROOT
ATOM      1  N   UNL     1       2.353   3.874  -0.037  0.00  0.00    -0.300 N 
ATOM      2  C   UNL     1       3.043   3.738   1.267  0.00  0.00    +0.217 C 
ATOM      3  N   UNL     1       3.704   5.026   1.515  0.00  0.00    -0.275 N 
ATOM      4  C   UNL     1       3.164   5.972   0.719  0.00  0.00    +0.241 C 
ATOM      5  O   UNL     1       3.483   7.142   0.691  0.00  0.00    -0.273 OA
ATOM      6  C   UNL     1       2.097   5.327  -0.131  0.00  0.00    +0.115 C 
ATOM      7  C   UNL     1       0.711   5.650   0.420  0.00  0.00    +0.054 C 
ATOM      8  C   UNL     1       0.480   7.164   0.361  0.00  0.00    +0.112 C 
ATOM      9  N   UNL     1       0.719   7.624  -1.014  0.00  0.00    -0.285 N 
ATOM     10  C   UNL     1       2.001   7.301  -1.655  0.00  0.00    +0.112 C 
ATOM     11  C   UNL     1       2.221   5.787  -1.580  0.00  0.00    +0.054 C 
ATOM     12  C   UNL     1      -0.221   8.330  -1.674  0.00  0.00    +0.302 C 
ATOM     13  O   UNL     1      -0.054   8.617  -2.844  0.00  0.00    -0.253 OA
ATOM     14  N   UNL     1      -1.344   8.717  -1.038  0.00  0.00    -0.296 N 
ATOM     15  H   UNL     1      -1.442   8.556  -0.087  0.00  0.00    +0.151 HD
ENDROOT
BRANCH   1  19
ATOM     16  C   UNL     1      -1.217   1.731  -0.064  0.00  0.00    +0.000 A 
ATOM     17  C   UNL     1      -0.922   2.593  -1.104  0.00  0.00    +0.002 A 
ATOM     18  C   UNL     1       0.261   3.306  -1.098  0.00  0.00    +0.023 A 
ATOM     19  C   UNL     1       1.156   3.154  -0.047  0.00  0.00    +0.032 A 
ATOM     20  C   UNL     1       0.859   2.283   0.994  0.00  0.00    +0.023 A 
ATOM     21  C   UNL     1      -0.325   1.573   0.981  0.00  0.00    +0.002 A 
ENDBRANCH   1  19
BRANCH  14  22
ATOM     22  C   UNL     1      -2.416   9.381  -1.784  0.00  0.00    +0.074 C 
ATOM     23  C   UNL     1      -2.124  10.880  -1.871  0.00  0.00    +0.022 C 
ATOM     24  C   UNL     1      -3.244  11.574  -2.649  0.00  0.00    +0.002 C 
ATOM     25  C   UNL     1      -4.576  11.355  -1.930  0.00  0.00    +0.000 C 
ATOM     26  C   UNL     1      -4.868   9.855  -1.843  0.00  0.00    +0.002 C 
ATOM     27  C   UNL     1      -3.749   9.162  -1.065  0.00  0.00    +0.022 C 
ENDBRANCH  14  22
BRANCH   3  28
ATOM     28  C   UNL     1       4.785   5.248   2.480  0.00  0.00    +0.205 C 
BRANCH  28  29
ATOM     29  C   UNL     1       4.197   5.624   3.815  0.00  0.00    +0.230 C 
ATOM     30  O   UNL     1       2.993   5.698   3.949  0.00  0.00    -0.274 OA
ATOM     31  N   UNL     1       5.007   5.877   4.862  0.00  0.00    -0.314 N 
ATOM     32  H   UNL     1       5.970   5.817   4.755  0.00  0.00    +0.149 HD
BRANCH  31  33
ATOM     33  C   UNL     1       4.436   6.242   6.160  0.00  0.00    +0.107 C 
BRANCH  33  34
ATOM     34  C   UNL     1       5.564   6.475   7.167  0.00  0.00    +0.006 C 
ATOM     35  C   UNL     1       6.311   5.161   7.408  0.00  0.00    +0.005 C 
ATOM     36  C   UNL     1       7.439   5.394   8.415  0.00  0.00    +0.000 C 
ATOM     37  C   UNL     1       6.849   5.895   9.735  0.00  0.00    +0.000 C 
ATOM     38  C   UNL     1       6.102   7.209   9.493  0.00  0.00    +0.000 C 
ATOM     39  C   UNL     1       4.974   6.976   8.487  0.00  0.00    +0.005 C 
ENDBRANCH  33  34
ENDBRANCH  31  33
ENDBRANCH  28  29
ENDBRANCH   3  28
TORSDOF 6
