REMARK  Name = ZINC57642062
REMARK  11 active torsions:
REMARK  status: ('A' for Active; 'I' for Inactive)
REMARK    1  A    between atoms: C_1  and  C_2
REMARK    2  A    between atoms: C_2  and  C_3
REMARK    3  A    between atoms: C_3  and  C_5
REMARK    4  A    between atoms: C_3  and  N_16
REMARK    5  A    between atoms: N_9  and  C_10
REMARK    6  A    between atoms: N_16  and  C_17
REMARK    7  A    between atoms: N_16  and  C_23
REMARK    8  A    between atoms: C_17  and  C_18
REMARK    9  A    between atoms: C_23  and  C_24
REMARK   10  A    between atoms: C_29  and  C_37
REMARK   11  A    between atoms: C_30  and  C_36
REMARK                            x       y       z     vdW  Elec       q    Type
REMARK                         _______ _______ _______ _____ _____    ______ ____
ROOT
ATOM      1  N   UNL     1      -1.986  -0.260  -1.198  0.00  0.00    -0.284 NA
ENDROOT
BRANCH   1   2
ATOM      2  C   UNL     1      -1.575  -0.794   0.108  0.00  0.00    +0.127 C 
BRANCH   2   3
ATOM      3  C   UNL     1      -0.192  -0.297   0.441  0.00  0.00    +0.169 A 
ATOM      4  N   UNL     1       0.231   0.941   0.375  0.00  0.00    -0.112 NA
ATOM      5  N   UNL     1       1.467   0.959   0.739  0.00  0.00    -0.023 NA
ATOM      6  N   UNL     1       1.843  -0.236   1.035  0.00  0.00    -0.044 NA
ATOM      7  N   UNL     1       0.846  -1.038   0.869  0.00  0.00    -0.225 N 
BRANCH   7   8
ATOM      8  C   UNL     1       0.846  -2.485   1.100  0.00  0.00    +0.111 C 
ATOM      9  C   UNL     1       1.185  -2.768   2.565  0.00  0.00    +0.027 C 
ATOM     10  C   UNL     1       1.185  -4.279   2.806  0.00  0.00    +0.002 C 
ATOM     11  C   UNL     1       2.230  -4.939   1.905  0.00  0.00    +0.000 C 
ATOM     12  C   UNL     1       1.891  -4.657   0.440  0.00  0.00    +0.002 C 
ATOM     13  C   UNL     1       1.891  -3.146   0.199  0.00  0.00    +0.027 C 
ENDBRANCH   7   8
ENDBRANCH   2   3
BRANCH   2  15
ATOM     14  C   UNL     1      -3.946  -0.900   0.890  0.00  0.00    +0.006 C 
ATOM     15  C   UNL     1      -2.558  -0.325   1.183  0.00  0.00    +0.023 C 
ENDBRANCH   2  15
ENDBRANCH   1   2
BRANCH   1  16
ATOM     16  C   UNL     1      -1.203  -0.864  -2.284  0.00  0.00    +0.127 C 
BRANCH  16  17
ATOM     17  C   UNL     1      -1.665  -2.281  -2.509  0.00  0.00    +0.004 A 
ATOM     18  C   UNL     1      -2.576  -2.751  -3.396  0.00  0.00    +0.012 A 
ATOM     19  C   UNL     1      -2.845  -4.106  -3.426  0.00  0.00    +0.008 A 
ATOM     20  C   UNL     1      -2.190  -4.926  -2.567  0.00  0.00    +0.045 A 
ATOM     21  S   UNL     1      -1.150  -3.776  -1.681  0.00  0.00    -0.100 S 
ENDBRANCH  16  17
ENDBRANCH   1  16
BRANCH   1  22
ATOM     22  C   UNL     1      -1.881   1.205  -1.224  0.00  0.00    +0.126 C 
BRANCH  22  23
ATOM     23  C   UNL     1      -2.682   1.745  -2.380  0.00  0.00    +0.031 A 
ATOM     24  C   UNL     1      -3.966   2.139  -2.187  0.00  0.00    +0.020 A 
ATOM     25  C   UNL     1      -4.717   2.660  -3.330  0.00  0.00    -0.001 A 
ATOM     26  C   UNL     1      -6.044   3.081  -3.192  0.00  0.00    +0.010 A 
ATOM     27  C   UNL     1      -6.718   3.563  -4.279  0.00  0.00    +0.004 A 
ATOM     28  C   UNL     1      -6.097   3.638  -5.519  0.00  0.00    -0.046 A 
ATOM     29  C   UNL     1      -4.791   3.228  -5.678  0.00  0.00    -0.024 A 
ATOM     30  C   UNL     1      -4.085   2.734  -4.585  0.00  0.00    +0.052 A 
ATOM     31  N   UNL     1      -2.777   2.318  -4.716  0.00  0.00    -0.322 N 
ATOM     32  H   UNL     1      -2.343   2.370  -5.581  0.00  0.00    +0.169 HD
ATOM     33  C   UNL     1      -2.093   1.846  -3.659  0.00  0.00    +0.254 A 
ATOM     34  O   UNL     1      -0.937   1.492  -3.809  0.00  0.00    -0.268 OA
ATOM     35  C   UNL     1      -4.131   3.313  -7.029  0.00  0.00    +0.046 C 
ATOM     36  C   UNL     1      -6.860   4.172  -6.703  0.00  0.00    +0.044 C 
ENDBRANCH  22  23
ENDBRANCH   1  22
TORSDOF 8
