REMARK  Name = ZINC24862684
REMARK  13 active torsions:
REMARK  status: ('A' for Active; 'I' for Inactive)
REMARK    1  A    between atoms: C_1  and  C_2
REMARK    2  A    between atoms: C_6  and  N_9
REMARK    3  A    between atoms: C_7  and  C_8
REMARK    4  A    between atoms: C_10  and  C_12
REMARK    5  A    between atoms: C_12  and  N_13
REMARK    6  A    between atoms: N_13  and  C_14
REMARK    7  A    between atoms: C_15  and  C_17
REMARK    8  A    between atoms: C_19  and  C_29
REMARK    9  A    between atoms: N_25  and  C_26
REMARK   10  A    between atoms: C_26  and  C_27
REMARK   11  A    between atoms: C_26  and  C_28
REMARK   12  A    between atoms: C_31  and  C_35
REMARK   13  A    between atoms: C_33  and  C_34
REMARK                            x       y       z     vdW  Elec       q    Type
REMARK                         _______ _______ _______ _____ _____    ______ ____
ROOT
ATOM      1  C   UNL     1      -3.406   6.183  -1.742  0.00  0.00    +0.051 A 
ATOM      2  C   UNL     1      -4.243   6.565  -0.701  0.00  0.00    +0.042 A 
ATOM      3  C   UNL     1      -5.613   6.710  -0.943  0.00  0.00    +0.077 A 
ATOM      4  N   UNL     1      -6.129   6.483  -2.140  0.00  0.00    -0.227 NA
ATOM      5  C   UNL     1      -5.379   6.113  -3.167  0.00  0.00    +0.160 A 
ATOM      6  C   UNL     1      -3.988   5.948  -3.009  0.00  0.00    +0.051 A 
ATOM      7  C   UNL     1      -3.472   5.555  -4.262  0.00  0.00    +0.145 A 
ATOM      8  N   UNL     1      -4.456   5.485  -5.113  0.00  0.00    -0.177 NA
ATOM      9  N   UNL     1      -5.656   5.822  -4.478  0.00  0.00    -0.244 N 
ENDROOT
BRANCH   3  10
ATOM     10  C   UNL     1      -6.506   7.122   0.166  0.00  0.00    +0.041 A 
ATOM     11  C   UNL     1      -6.120   7.416   1.552  0.00  0.00    +0.054 A 
ATOM     12  C   UNL     1      -7.255   7.744   2.191  0.00  0.00    +0.103 A 
ATOM     13  O   UNL     1      -8.279   7.675   1.326  0.00  0.00    -0.464 OA
ATOM     14  C   UNL     1      -7.851   7.311   0.110  0.00  0.00    +0.111 A 
ATOM     15  C   UNL     1      -8.715   7.137  -1.113  0.00  0.00    +0.087 C 
ATOM     16  C   UNL     1      -7.362   8.128   3.644  0.00  0.00    +0.086 C 
ENDBRANCH   3  10
BRANCH   1  19
ATOM     17  N   UNL     1      -1.487   5.592  -0.341  0.00  0.00    -0.292 N 
ATOM     18  C   UNL     1      -2.410   5.401   0.780  0.00  0.00    +0.133 C 
ATOM     19  C   UNL     1      -1.951   6.022  -1.530  0.00  0.00    +0.248 C 
ATOM     20  O   UNL     1      -1.174   6.278  -2.429  0.00  0.00    -0.270 OA
BRANCH  17  21
ATOM     21  C   UNL     1      -0.058   5.316  -0.168  0.00  0.00    +0.203 C 
BRANCH  21  23
ATOM     22  N   UNL     1       1.475   3.392  -0.426  0.00  0.00    -0.284 N 
ATOM     23  C   UNL     1       0.220   3.876  -0.512  0.00  0.00    +0.235 C 
ATOM     24  O   UNL     1      -0.686   3.151  -0.867  0.00  0.00    -0.274 OA
ATOM     25  H   UNL     1       2.278   4.019  -0.012  0.00  0.00    +0.155 HD
BRANCH  22  31
ATOM     26  C   UNL     1       4.439  -0.530  -0.411  0.00  0.00    +0.044 C 
ATOM     27  C   UNL     1       3.186   0.168  -0.872  0.00  0.00    -0.046 A 
ATOM     28  C   UNL     1       2.312  -0.475  -1.730  0.00  0.00    +0.004 A 
ATOM     29  C   UNL     1       1.162   0.163  -2.156  0.00  0.00    +0.002 A 
ATOM     30  C   UNL     1       0.881   1.445  -1.726  0.00  0.00    +0.023 A 
ATOM     31  C   UNL     1       1.756   2.093  -0.864  0.00  0.00    +0.037 A 
ATOM     32  C   UNL     1       2.911   1.450  -0.438  0.00  0.00    -0.026 A 
ATOM     33  C   UNL     1       3.863   2.150   0.497  0.00  0.00    +0.046 C 
ENDBRANCH  22  31
ENDBRANCH  21  23
ENDBRANCH  17  21
ENDBRANCH   1  19
BRANCH   9  34
ATOM     34  C   UNL     1      -6.980   5.858  -5.104  0.00  0.00    +0.103 C 
ATOM     35  C   UNL     1      -6.973   6.868  -6.254  0.00  0.00    +0.032 C 
ATOM     36  C   UNL     1      -7.325   4.470  -5.647  0.00  0.00    +0.032 C 
ENDBRANCH   9  34
TORSDOF 6
