REMARK  Name = ZINC18184818
REMARK  6 active torsions:
REMARK  status: ('A' for Active; 'I' for Inactive)
REMARK    1  A    between atoms: C_1  and  C_2
REMARK    2  A    between atoms: C_2  and  C_4
REMARK    3  A    between atoms: C_2  and  N_12
REMARK    4  A    between atoms: C_13  and  C_15
REMARK    5  A    between atoms: C_15  and  C_16
REMARK    6  A    between atoms: C_16  and  N_17
REMARK                            x       y       z     vdW  Elec       q    Type
REMARK                         _______ _______ _______ _____ _____    ______ ____
ROOT
ATOM      1  C   UNL     1       3.274   7.497  -2.348  0.00  0.00    +0.117 C 
ENDROOT
BRANCH   1   3
ATOM      2  N   UNL     1       2.312   5.757  -0.876  0.00  0.00    -0.309 N 
ATOM      3  C   UNL     1       3.408   6.299  -1.442  0.00  0.00    +0.215 C 
ATOM      4  O   UNL     1       4.502   5.824  -1.224  0.00  0.00    -0.276 OA
ATOM      5  H   UNL     1       1.437   6.138  -1.050  0.00  0.00    +0.149 HD
BRANCH   2   7
ATOM      6  C   UNL     1       2.766   5.061   1.425  0.00  0.00    +0.033 C 
ATOM      7  C   UNL     1       2.442   4.593   0.004  0.00  0.00    +0.100 C 
BRANCH   7   8
ATOM      8  C   UNL     1       1.148   3.822   0.012  0.00  0.00    -0.026 A 
ATOM      9  C   UNL     1      -0.059   4.497   0.027  0.00  0.00    +0.007 A 
ATOM     10  C   UNL     1      -1.247   3.791   0.034  0.00  0.00    +0.022 A 
ATOM     11  C   UNL     1      -1.230   2.408   0.021  0.00  0.00    +0.059 A 
ATOM     12  C   UNL     1      -0.021   1.732   0.012  0.00  0.00    +0.060 A 
ATOM     13  C   UNL     1       1.167   2.440   0.004  0.00  0.00    +0.027 A 
ATOM     14 CL   UNL     1       0.002  -0.004   0.002  0.00  0.00    -0.082 Cl
ATOM     15 CL   UNL     1      -2.722   1.521   0.023  0.00  0.00    -0.082 Cl
ENDBRANCH   7   8
ENDBRANCH   2   7
ENDBRANCH   1   3
BRANCH   1  16
ATOM     16  C   UNL     1       4.657   7.910  -2.854  0.00  0.00    +0.135 C 
BRANCH  16  17
ATOM     17  N   UNL     1       4.527   9.074  -3.734  0.00  0.00    -0.298 N 
ATOM     18  C   UNL     1       4.347   8.884  -5.066  0.00  0.00    +0.203 A 
ATOM     19  N   UNL     1       4.223   9.896  -5.883  0.00  0.00    -0.230 NA
ATOM     20  C   UNL     1       4.278  11.147  -5.435  0.00  0.00    +0.116 A 
ATOM     21  C   UNL     1       4.466  11.443  -4.076  0.00  0.00    +0.076 A 
ATOM     22  C   UNL     1       4.594  10.311  -3.206  0.00  0.00    +0.262 A 
ATOM     23  O   UNL     1       4.760  10.465  -2.009  0.00  0.00    -0.267 OA
ATOM     24  C   UNL     1       4.506  12.863  -3.730  0.00  0.00    -0.023 A 
ATOM     25  C   UNL     1       4.360  13.744  -4.742  0.00  0.00    -0.004 A 
ATOM     26  S   UNL     1       4.163  12.747  -6.194  0.00  0.00    -0.073 S 
ATOM     27  C   UNL     1       4.364  15.240  -4.650  0.00  0.00    +0.043 C 
ATOM     28  C   UNL     1       4.189  15.636  -3.177  0.00  0.00    +0.005 C 
ATOM     29  C   UNL     1       5.158  14.808  -2.328  0.00  0.00    +0.005 C 
ATOM     30  C   UNL     1       4.705  13.348  -2.296  0.00  0.00    +0.037 C 
ENDBRANCH  16  17
ENDBRANCH   1  16
TORSDOF 5
