REMARK  Name = ZINC05581682
REMARK  4 active torsions:
REMARK  status: ('A' for Active; 'I' for Inactive)
REMARK    1  A    between atoms: C_4  and  O_26
REMARK    2  A    between atoms: C_5  and  C_7
REMARK    3  A    between atoms: C_10  and  C_19
REMARK    4  A    between atoms: C_22  and  N_25
REMARK                            x       y       z     vdW  Elec       q    Type
REMARK                         _______ _______ _______ _____ _____    ______ ____
ROOT
ATOM      1  C   UNL     1       3.800   3.711  -0.928  0.00  0.00    +0.091 C 
ATOM      2  C   UNL     1       3.049   4.801  -0.218  0.00  0.00    +0.075 C 
ATOM      3  C   UNL     1       1.588   4.535  -0.144  0.00  0.00    +0.050 C 
ATOM      4  N   UNL     1       1.000   3.454   0.029  0.00  0.00    -0.250 NA
ATOM      5  C   UNL     1       1.172   2.134   0.105  0.00  0.00    +0.078 A 
ATOM      6  C   UNL     1      -0.024   1.385   0.195  0.00  0.00    +0.029 A 
ATOM      7  C   UNL     1      -0.013   0.015   0.235  0.00  0.00    +0.002 A 
ATOM      8  C   UNL     1       1.192  -0.666   0.190  0.00  0.00    +0.001 A 
ATOM      9  C   UNL     1       2.369   0.041   0.120  0.00  0.00    +0.017 A 
ATOM     10  C   UNL     1       2.383   1.440   0.086  0.00  0.00    +0.034 A 
ATOM     11  S   UNL     1       3.954   2.209   0.029  0.00  0.00    -0.115 S 
ENDROOT
BRANCH   1  16
ATOM     12  C   UNL     1       7.520   4.340  -0.760  0.00  0.00    +0.001 A 
ATOM     13  C   UNL     1       7.718   5.138  -1.872  0.00  0.00    +0.004 A 
ATOM     14  C   UNL     1       6.651   5.477  -2.680  0.00  0.00    +0.046 A 
ATOM     15  C   UNL     1       5.379   5.011  -2.379  0.00  0.00    +0.121 A 
ATOM     16  C   UNL     1       5.181   4.215  -1.261  0.00  0.00    +0.008 A 
ATOM     17  C   UNL     1       6.252   3.879  -0.455  0.00  0.00    +0.008 A 
BRANCH  15  18
ATOM     18  O   UNL     1       4.328   5.339  -3.176  0.00  0.00    -0.506 OA
ATOM     19  H   UNL     1       3.878   6.155  -2.919  0.00  0.00    +0.292 HD
ENDBRANCH  15  18
ENDBRANCH   1  16
BRANCH   3  20
ATOM     20  C   UNL     1       0.720   5.712  -0.297  0.00  0.00    -0.004 A 
ATOM     21  C   UNL     1       1.276   6.996  -0.316  0.00  0.00    +0.011 A 
ATOM     22  C   UNL     1       0.460   8.095  -0.464  0.00  0.00    +0.023 A 
ATOM     23  C   UNL     1      -0.917   7.931  -0.585  0.00  0.00    +0.025 A 
ATOM     24  C   UNL     1      -1.474   6.655  -0.561  0.00  0.00    +0.023 A 
ATOM     25  C   UNL     1      -0.665   5.551  -0.419  0.00  0.00    +0.011 A 
BRANCH  23  26
ATOM     26  N   UNL     1      -1.739   9.045  -0.730  0.00  0.00    -0.358 N 
ATOM     27  H   UNL     1      -2.699   8.932  -0.814  0.00  0.00    +0.142 HD
ATOM     28  H   UNL     1      -1.352   9.934  -0.746  0.00  0.00    +0.142 HD
ENDBRANCH  23  26
ENDBRANCH   3  20
TORSDOF 4
