REMARK  Name = ZINC09421798
REMARK  5 active torsions:
REMARK  status: ('A' for Active; 'I' for Inactive)
REMARK    1  A    between atoms: C_1  and  C_2
REMARK    2  A    between atoms: C_5  and  C_8
REMARK    3  A    between atoms: N_18  and  S_19
REMARK    4  A    between atoms: S_19  and  C_22
REMARK    5  A    between atoms: C_25  and  C_28
REMARK                            x       y       z     vdW  Elec       q    Type
REMARK                         _______ _______ _______ _____ _____    ______ ____
ROOT
ATOM      1  C   UNL     1      -3.403   5.869   0.062  0.00  0.00    +0.080 A 
ATOM      2  C   UNL     1      -2.656   7.015   0.061  0.00  0.00    +0.077 A 
ATOM      3  S   UNL     1      -1.004   6.332   0.051  0.00  0.00    -0.056 S 
ATOM      4  C   UNL     1      -1.475   4.608   0.039  0.00  0.00    +0.197 A 
ATOM      5  N   UNL     1      -2.792   4.695   0.051  0.00  0.00    -0.221 NA
ATOM      6  N   UNL     1      -0.667   3.474   0.026  0.00  0.00    -0.174 N 
ATOM      7  C   UNL     1       0.686   3.443   0.013  0.00  0.00    +0.219 A 
ATOM      8  N   UNL     1       1.062   2.182   0.004  0.00  0.00    -0.179 NA
ATOM      9  C   UNL     1      -0.017   1.390   0.010  0.00  0.00    +0.256 A 
ATOM     10  N   UNL     1      -1.095   2.137   0.018  0.00  0.00    -0.124 NA
ATOM     11  N   UNL     1       0.002  -0.004   0.002  0.00  0.00    -0.182 N 
ATOM     12  N   UNL     1       1.525   4.541   0.011  0.00  0.00    -0.327 N 
ATOM     13  H   UNL     1      -0.805  -0.499  -0.211  0.00  0.00    +0.177 HD
ATOM     14  H   UNL     1       2.487   4.417   0.001  0.00  0.00    +0.145 HD
ATOM     15  H   UNL     1       1.152   5.437   0.019  0.00  0.00    +0.145 HD
ENDROOT
BRANCH   1  20
ATOM     16  C   UNL     1      -9.155   6.150   0.119  0.00  0.00    +0.044 C 
ATOM     17  C   UNL     1      -7.650   6.076   0.104  0.00  0.00    -0.050 A 
ATOM     18  C   UNL     1      -7.020   4.845   0.092  0.00  0.00    +0.004 A 
ATOM     19  C   UNL     1      -5.642   4.771   0.078  0.00  0.00    +0.010 A 
ATOM     20  C   UNL     1      -4.885   5.941   0.077  0.00  0.00    +0.001 A 
ATOM     21  C   UNL     1      -5.525   7.180   0.095  0.00  0.00    +0.010 A 
ATOM     22  C   UNL     1      -6.903   7.241   0.104  0.00  0.00    +0.004 A 
ENDBRANCH   1  20
BRANCH  11  23
ATOM     23  S   UNL     1       1.402  -0.815   0.356  0.00  0.00    +0.075 S 
ATOM     24  O   UNL     1       1.095  -2.201   0.292  0.00  0.00    -0.150 OA
ATOM     25  O   UNL     1       2.425  -0.224  -0.434  0.00  0.00    -0.150 OA
BRANCH  23  26
ATOM     26  C   UNL     1       1.797  -0.463   2.037  0.00  0.00    +0.109 A 
ATOM     27  C   UNL     1       2.595   0.622   2.347  0.00  0.00    +0.029 A 
ATOM     28  C   UNL     1       2.902   0.900   3.666  0.00  0.00    +0.005 A 
ATOM     29  C   UNL     1       2.417   0.088   4.674  0.00  0.00    -0.050 A 
ATOM     30  C   UNL     1       1.623  -1.000   4.364  0.00  0.00    +0.005 A 
ATOM     31  C   UNL     1       1.313  -1.276   3.045  0.00  0.00    +0.029 A 
ATOM     32  C   UNL     1       2.755   0.389   6.112  0.00  0.00    +0.044 C 
ENDBRANCH  23  26
ENDBRANCH  11  23
TORSDOF 3
