REMARK  Name = ZINC65181452
REMARK  6 active torsions:
REMARK  status: ('A' for Active; 'I' for Inactive)
REMARK    1  A    between atoms: C_1  and  N_2
REMARK    2  A    between atoms: N_2  and  C_3
REMARK    3  A    between atoms: C_3  and  C_4
REMARK    4  A    between atoms: C_4  and  C_5
REMARK    5  A    between atoms: C_8  and  C_11
REMARK    6  A    between atoms: C_21  and  C_23
REMARK                            x       y       z     vdW  Elec       q    Type
REMARK                         _______ _______ _______ _____ _____    ______ ____
ROOT
ATOM      1  C   UNL     1      -1.052  -1.788   3.146  0.00  0.00    +0.139 C 
ATOM      2  N   UNL     1       0.079  -2.127   3.650  0.00  0.00    -0.072 NA
ATOM      3  O   UNL     1      -0.097  -2.828   4.867  0.00  0.00    -0.367 OA
ATOM      4  C   UNL     1      -1.515  -2.901   5.089  0.00  0.00    +0.318 C 
ATOM      5  N   UNL     1      -2.100  -2.200   3.935  0.00  0.00    -0.291 N 
ATOM      6  H   UNL     1      -3.044  -2.057   3.763  0.00  0.00    +0.151 HD
ENDROOT
BRANCH   4   7
ATOM      7  C   UNL     1      -1.976  -4.359   5.128  0.00  0.00    +0.165 C 
ATOM      8  C   UNL     1      -1.573  -5.068   3.854  0.00  0.00    +0.012 C 
ATOM      9  C   UNL     1      -0.752  -6.076   4.229  0.00  0.00    -0.004 A 
ATOM     10  C   UNL     1      -0.039  -7.111   3.472  0.00  0.00    +0.010 A 
ATOM     11  C   UNL     1       0.725  -8.004   4.141  0.00  0.00    +0.001 A 
ATOM     12  C   UNL     1       0.853  -7.965   5.537  0.00  0.00    +0.002 A 
ATOM     13  C   UNL     1       0.228  -7.044   6.301  0.00  0.00    +0.026 A 
ATOM     14  C   UNL     1      -0.601  -6.056   5.702  0.00  0.00    +0.043 A 
ATOM     15  N   UNL     1      -1.302  -5.074   6.218  0.00  0.00    -0.373 N 
ATOM     16  H   UNL     1      -1.365  -4.856   7.161  0.00  0.00    +0.160 HD
ENDBRANCH   4   7
BRANCH   1  17
ATOM     17  C   UNL     1      -1.210  -1.028   1.854  0.00  0.00    +0.094 C 
BRANCH  17  18
ATOM     18  C   UNL     1       0.170  -0.744   1.257  0.00  0.00    +0.115 C 
BRANCH  18  20
ATOM     19  C   UNL     1      -0.012   1.460   0.011  0.00  0.00    +0.132 C 
ATOM     20  N   UNL     1       0.015  -0.005   0.001  0.00  0.00    -0.300 N 
ATOM     21  C   UNL     1      -0.102  -0.673  -1.163  0.00  0.00    +0.247 C 
ATOM     22  O   UNL     1      -0.189  -1.886  -1.163  0.00  0.00    -0.270 OA
BRANCH  21  23
ATOM     23  C   UNL     1      -0.124   0.066  -2.436  0.00  0.00    +0.044 A 
ATOM     24  C   UNL     1      -0.924  -0.378  -3.553  0.00  0.00    +0.020 A 
ATOM     25  C   UNL     1      -0.857   0.387  -4.661  0.00  0.00    +0.046 A 
ATOM     26  S   UNL     1       0.271   1.681  -4.191  0.00  0.00    -0.104 S 
ATOM     27  C   UNL     1       0.613   1.215  -2.616  0.00  0.00    +0.058 A 
ENDBRANCH  21  23
ENDBRANCH  18  20
ENDBRANCH  17  18
ENDBRANCH   1  17
TORSDOF 5
