REMARK  Name = ZINC09952172
REMARK  6 active torsions:
REMARK  status: ('A' for Active; 'I' for Inactive)
REMARK    1  A    between atoms: C_7  and  C_11
REMARK    2  A    between atoms: C_11  and  C_12
REMARK    3  A    between atoms: C_12  and  C_14
REMARK    4  A    between atoms: C_12  and  N_26
REMARK    5  A    between atoms: N_16  and  C_17
REMARK    6  A    between atoms: C_27  and  C_29
REMARK                            x       y       z     vdW  Elec       q    Type
REMARK                         _______ _______ _______ _____ _____    ______ ____
ROOT
ATOM      1  C   UNL     1       4.187   0.573   1.248  0.00  0.00    +0.164 C 
ENDROOT
BRANCH   1   2
ATOM      2  C   UNL     1       5.692   0.646   1.216  0.00  0.00    +0.238 C 
ATOM      3  O   UNL     1       6.350  -0.371   1.289  0.00  0.00    -0.273 OA
ATOM      4  N   UNL     1       6.306   1.840   1.106  0.00  0.00    -0.284 N 
ATOM      5  H   UNL     1       5.782   2.645   0.971  0.00  0.00    +0.155 HD
BRANCH   4   6
ATOM      6  C   UNL     1       7.703   1.919   1.188  0.00  0.00    +0.037 A 
ATOM      7  C   UNL     1       8.401   1.047   2.012  0.00  0.00    +0.027 A 
ATOM      8  C   UNL     1       9.778   1.122   2.090  0.00  0.00    +0.051 A 
ATOM      9  C   UNL     1      10.466   2.072   1.353  0.00  0.00    +0.166 A 
ATOM     10  C   UNL     1       9.768   2.951   0.528  0.00  0.00    +0.168 A 
ATOM     11  C   UNL     1       8.388   2.873   0.448  0.00  0.00    +0.072 A 
ATOM     12  O   UNL     1      10.664   3.780  -0.083  0.00  0.00    -0.453 OA
ATOM     13  C   UNL     1      11.877   3.669   0.684  0.00  0.00    +0.466 C 
ATOM     14  O   UNL     1      11.800   2.350   1.257  0.00  0.00    -0.453 OA
ENDBRANCH   4   6
ENDBRANCH   1   2
BRANCH   1  15
ATOM     15  N   UNL     1       3.772  -0.704   1.835  0.00  0.00    -0.300 N 
ATOM     16  C   UNL     1       4.142  -1.863   1.256  0.00  0.00    +0.246 C 
ATOM     17  O   UNL     1       4.819  -1.850   0.247  0.00  0.00    -0.270 OA
ATOM     18  H   UNL     1       3.231  -0.714   2.640  0.00  0.00    +0.150 HD
BRANCH  16  19
ATOM     19  C   UNL     1       3.723  -3.151   1.849  0.00  0.00    +0.055 A 
ATOM     20  C   UNL     1       2.950  -3.170   3.011  0.00  0.00    +0.014 A 
ATOM     21  C   UNL     1       2.558  -4.375   3.555  0.00  0.00    +0.001 A 
ATOM     22  C   UNL     1       2.939  -5.565   2.959  0.00  0.00    +0.001 A 
ATOM     23  C   UNL     1       3.710  -5.555   1.811  0.00  0.00    +0.021 A 
ATOM     24  C   UNL     1       4.105  -4.355   1.252  0.00  0.00    +0.053 A 
ATOM     25 CL   UNL     1       5.073  -4.343  -0.189  0.00  0.00    -0.083 Cl
ENDBRANCH  16  19
ENDBRANCH   1  15
BRANCH   1  26
ATOM     26  C   UNL     1       3.640   0.680  -0.177  0.00  0.00    +0.069 C 
BRANCH  26  33
ATOM     27  C   UNL     1       0.565   4.167   0.420  0.00  0.00    +0.001 A 
ATOM     28  C   UNL     1      -0.755   3.736   0.385  0.00  0.00    +0.002 A 
ATOM     29  C   UNL     1      -1.055   2.405   0.195  0.00  0.00    +0.026 A 
ATOM     30  C   UNL     1      -0.027   1.482   0.027  0.00  0.00    +0.047 A 
ATOM     31  C   UNL     1       1.308   1.924   0.064  0.00  0.00    +0.003 A 
ATOM     32  C   UNL     1       1.589   3.277   0.263  0.00  0.00    +0.010 A 
ATOM     33  C   UNL     1       2.135   0.731  -0.135  0.00  0.00    -0.020 A 
ATOM     34  C   UNL     1       1.297  -0.308  -0.274  0.00  0.00    +0.087 A 
ATOM     35  N   UNL     1       0.001   0.121  -0.179  0.00  0.00    -0.360 N 
ATOM     36  H   UNL     1      -0.781  -0.448  -0.248  0.00  0.00    +0.165 HD
ENDBRANCH  26  33
ENDBRANCH   1  26
TORSDOF 6
