REMARK  Name = ZINC01290931
REMARK  2 active torsions:
REMARK  status: ('A' for Active; 'I' for Inactive)
REMARK    1  A    between atoms: C_1  and  C_2
REMARK    2  A    between atoms: N_17  and  N_18
REMARK                            x       y       z     vdW  Elec       q    Type
REMARK                         _______ _______ _______ _____ _____    ______ ____
ROOT
ATOM      1  C   UNL     1       3.547   2.092  -1.320  0.00  0.00    +0.008 C 
ATOM      2  C   UNL     1       2.194   1.398  -1.155  0.00  0.00    -0.009 C 
ATOM      3  C   UNL     1       1.421   2.037  -0.001  0.00  0.00    +0.008 C 
ATOM      4  C   UNL     1      -0.019   1.522   0.010  0.00  0.00    +0.037 C 
ATOM      5  C   UNL     1       0.002  -0.004   0.002  0.00  0.00    -0.023 A 
ATOM      6  C   UNL     1       1.111  -0.674  -0.385  0.00  0.00    -0.004 A 
ATOM      7  S   UNL     1       0.691  -2.393  -0.241  0.00  0.00    -0.073 S 
ATOM      8  C   UNL     1      -0.967  -2.211   0.337  0.00  0.00    +0.117 A 
ATOM      9  C   UNL     1      -1.141  -0.809   0.399  0.00  0.00    +0.075 A 
ATOM     10  C   UNL     1      -2.416  -0.327   0.843  0.00  0.00    +0.261 A 
ATOM     11  O   UNL     1      -2.663   0.863   0.930  0.00  0.00    -0.267 OA
ATOM     12  N   UNL     1      -3.328  -1.276   1.160  0.00  0.00    -0.294 N 
ATOM     13  H   UNL     1      -4.231  -0.983   1.476  0.00  0.00    +0.172 HD
ATOM     14  C   UNL     1      -3.073  -2.609   1.069  0.00  0.00    +0.210 A 
ATOM     15  N   UNL     1      -1.907  -3.090   0.663  0.00  0.00    -0.208 NA
ATOM     16  N   UNL     1      -4.065  -3.494   1.413  0.00  0.00    -0.253 N 
ATOM     17  C   UNL     1       2.413  -0.088  -0.838  0.00  0.00    +0.046 C 
ATOM     18  H   UNL     1      -4.926  -3.164   1.713  0.00  0.00    +0.169 HD
ENDROOT
BRANCH  16  19
ATOM     19  N   UNL     1      -3.839  -4.838   1.333  0.00  0.00    -0.254 NA
ATOM     20  H   UNL     1      -3.033  -5.103   1.879  0.00  0.00    +0.140 HD
ATOM     21  H   UNL     1      -4.655  -5.360   1.616  0.00  0.00    +0.140 HD
ENDBRANCH  16  19
TORSDOF 1
