REMARK  Name = ZINC12550685
REMARK  7 active torsions:
REMARK  status: ('A' for Active; 'I' for Inactive)
REMARK    1  A    between atoms: C_1  and  C_2
REMARK    2  A    between atoms: C_2  and  C_4
REMARK    3  A    between atoms: C_2  and  N_29
REMARK    4  A    between atoms: C_7  and  S_16
REMARK    5  A    between atoms: N_8  and  C_9
REMARK    6  A    between atoms: S_16  and  C_17
REMARK    7  A    between atoms: C_17  and  C_18
REMARK                            x       y       z     vdW  Elec       q    Type
REMARK                         _______ _______ _______ _____ _____    ______ ____
ROOT
ATOM      1  C   UNL     1       0.707  -0.490  -1.238  0.00  0.00    +0.125 A 
ATOM      2  N   UNL     1       0.230  -0.486  -2.450  0.00  0.00    -0.135 NA
ATOM      3  N   UNL     1       1.094  -0.971  -3.268  0.00  0.00    -0.122 NA
ATOM      4  C   UNL     1       2.182  -1.314  -2.618  0.00  0.00    +0.196 A 
ATOM      5  N   UNL     1       1.972  -1.012  -1.300  0.00  0.00    -0.275 N 
ENDROOT
BRANCH   5   6
ATOM      6  C   UNL     1       2.865  -1.202  -0.235  0.00  0.00    +0.050 A 
ATOM      7  C   UNL     1       3.363  -0.107   0.457  0.00  0.00    +0.029 A 
ATOM      8  C   UNL     1       4.242  -0.295   1.506  0.00  0.00    +0.040 A 
ATOM      9  C   UNL     1       4.626  -1.576   1.867  0.00  0.00    +0.124 A 
ATOM     10  C   UNL     1       4.130  -2.670   1.178  0.00  0.00    +0.040 A 
ATOM     11  C   UNL     1       3.246  -2.485   0.133  0.00  0.00    +0.029 A 
ATOM     12  F   UNL     1       5.487  -1.758   2.893  0.00  0.00    -0.205 F 
ENDBRANCH   5   6
BRANCH   1  14
ATOM     13  C   UNL     1      -0.019   1.526   0.010  0.00  0.00    -0.005 C 
ATOM     14  C   UNL     1       0.002  -0.004   0.002  0.00  0.00    -0.002 C 
BRANCH  14  15
ATOM     15  N   UNL     1      -1.376  -0.512   0.012  0.00  0.00    +0.386 N 
ATOM     16  C   UNL     1      -2.065  -0.031   1.216  0.00  0.00    -0.078 C 
ATOM     17  C   UNL     1      -3.524  -0.491   1.192  0.00  0.00    -0.019 C 
ATOM     18  C   UNL     1      -3.571  -2.021   1.152  0.00  0.00    -0.004 C 
ATOM     19  C   UNL     1      -2.787  -2.515  -0.067  0.00  0.00    -0.019 C 
ATOM     20  C   UNL     1      -1.355  -1.980   0.004  0.00  0.00    -0.078 C 
ATOM     21  H   UNL     1      -1.863  -0.180  -0.807  0.00  0.00    -0.081 HD
ENDBRANCH  14  15
ENDBRANCH   1  14
BRANCH   4  22
ATOM     22  S   UNL     1       3.638  -2.022  -3.312  0.00  0.00    -0.078 S 
BRANCH  22  23
ATOM     23  C   UNL     1       3.264  -2.149  -5.082  0.00  0.00    +0.151 C 
BRANCH  23  24
ATOM     24  C   UNL     1       4.444  -2.748  -5.804  0.00  0.00    +0.121 A 
ATOM     25  N   UNL     1       4.359  -2.920  -7.149  0.00  0.00    -0.309 N 
ATOM     26  H   UNL     1       3.555  -2.661  -7.626  0.00  0.00    +0.170 HD
ATOM     27  C   UNL     1       5.408  -3.457  -7.817  0.00  0.00    +0.266 A 
ATOM     28  O   UNL     1       5.364  -3.624  -9.024  0.00  0.00    -0.267 OA
ATOM     29  C   UNL     1       6.542  -3.813  -7.085  0.00  0.00    +0.102 A 
ATOM     30  C   UNL     1       6.604  -3.624  -5.693  0.00  0.00    +0.085 A 
ATOM     31  N   UNL     1       5.490  -3.068  -5.112  0.00  0.00    -0.232 NA
ATOM     32  C   UNL     1       7.800  -4.024  -5.083  0.00  0.00    +0.036 A 
ATOM     33  C   UNL     1       8.798  -4.551  -5.824  0.00  0.00    +0.048 A 
ATOM     34  S   UNL     1       8.118  -4.524  -7.475  0.00  0.00    -0.090 S 
ENDBRANCH  23  24
ENDBRANCH  22  23
ENDBRANCH   4  22
TORSDOF 6
