REMARK  Name = ZINC39684348
REMARK  8 active torsions:
REMARK  status: ('A' for Active; 'I' for Inactive)
REMARK    1  A    between atoms: C_1  and  C_2
REMARK    2  A    between atoms: C_2  and  C_4
REMARK    3  A    between atoms: C_2  and  N_8
REMARK    4  A    between atoms: C_4  and  C_5
REMARK    5  A    between atoms: C_4  and  C_6
REMARK    6  A    between atoms: C_4  and  C_7
REMARK    7  A    between atoms: C_9  and  C_11
REMARK    8  A    between atoms: C_22  and  C_24
REMARK                            x       y       z     vdW  Elec       q    Type
REMARK                         _______ _______ _______ _____ _____    ______ ____
ROOT
ATOM      1  C   UNL     1       2.735  -0.786   2.330  0.00  0.00    +0.100 C 
ATOM      2  C   UNL     1       2.687   0.164   3.547  0.00  0.00    +0.121 C 
ATOM      3  N   UNL     1       4.000  -0.012   4.211  0.00  0.00    -0.296 N 
ATOM      4  C   UNL     1       4.966  -0.127   3.093  0.00  0.00    +0.115 C 
ATOM      5  C   UNL     1       4.232  -0.974   2.034  0.00  0.00    -0.004 C 
ATOM      6  C   UNL     1       4.562  -0.468   0.633  0.00  0.00    -0.010 C 
ATOM      7  C   UNL     1       6.044  -0.720   0.340  0.00  0.00    -0.082 C 
ATOM      8  N   UNL     1       6.329  -2.156   0.443  0.00  0.00    +0.379 N 
ATOM      9  C   UNL     1       6.098  -2.615   1.818  0.00  0.00    -0.082 C 
ATOM     10  C   UNL     1       4.618  -2.444   2.174  0.00  0.00    -0.010 C 
ATOM     11  C   UNL     1       4.258  -0.057   5.533  0.00  0.00    +0.247 C 
ATOM     12  O   UNL     1       5.406  -0.118   5.927  0.00  0.00    -0.270 OA
ATOM     13  H   UNL     1       5.724  -2.663  -0.185  0.00  0.00    -0.086 HD
ATOM     14  H   UNL     1       7.291  -2.326   0.190  0.00  0.00    -0.086 HD
ENDROOT
BRANCH  11  15
ATOM     15  C   UNL     1       3.144  -0.032   6.504  0.00  0.00    +0.045 A 
ATOM     16  C   UNL     1       2.142   0.940   6.399  0.00  0.00    +0.014 A 
ATOM     17  C   UNL     1       1.102   0.965   7.302  0.00  0.00    +0.001 A 
ATOM     18  C   UNL     1       1.037   0.031   8.325  0.00  0.00    +0.012 A 
ATOM     19  C   UNL     1       2.022  -0.942   8.447  0.00  0.00    +0.031 A 
ATOM     20  C   UNL     1       3.084  -0.983   7.530  0.00  0.00    +0.006 A 
ATOM     21  C   UNL     1       3.978  -2.114   7.887  0.00  0.00    -0.006 A 
ATOM     22  C   UNL     1       5.153  -2.582   7.315  0.00  0.00    +0.009 A 
ATOM     23  C   UNL     1       5.800  -3.681   7.859  0.00  0.00    +0.001 A 
ATOM     24  C   UNL     1       5.283  -4.317   8.971  0.00  0.00    +0.001 A 
ATOM     25  C   UNL     1       4.111  -3.862   9.553  0.00  0.00    +0.012 A 
ATOM     26  C   UNL     1       3.453  -2.761   9.018  0.00  0.00    +0.030 A 
ATOM     27  C   UNL     1       2.216  -2.047   9.416  0.00  0.00    +0.194 C 
ATOM     28  O   UNL     1       1.492  -2.323  10.350  0.00  0.00    -0.287 OA
ENDBRANCH  11  15
BRANCH   1  30
ATOM     29  N   UNL     1       1.551  -0.940   0.163  0.00  0.00    -0.312 N 
ATOM     30  C   UNL     1       2.041  -0.160   1.147  0.00  0.00    +0.218 C 
ATOM     31  O   UNL     1       1.925   1.045   1.081  0.00  0.00    -0.275 OA
ATOM     32  H   UNL     1       1.644  -1.903   0.216  0.00  0.00    +0.149 HD
BRANCH  29  34
ATOM     33  C   UNL     1      -0.595  -0.088  -0.644  0.00  0.00    +0.028 C 
ATOM     34  C   UNL     1       0.876  -0.331  -0.986  0.00  0.00    +0.075 C 
BRANCH  34  35
ATOM     35  C   UNL     1       0.973  -1.270  -2.190  0.00  0.00    -0.020 C 
ATOM     36  C   UNL     1       0.268  -0.634  -3.390  0.00  0.00    +0.012 C 
ATOM     37  C   UNL     1       2.444  -1.512  -2.531  0.00  0.00    +0.012 C 
ATOM     38  C   UNL     1       0.301  -2.603  -1.852  0.00  0.00    +0.012 C 
ENDBRANCH  34  35
ENDBRANCH  29  34
ENDBRANCH   1  30
TORSDOF 4
