REMARK  Name = ZINC44854875
REMARK  5 active torsions:
REMARK  status: ('A' for Active; 'I' for Inactive)
REMARK    1  A    between atoms: C_1  and  N_2
REMARK    2  A    between atoms: N_2  and  C_3
REMARK    3  A    between atoms: C_3  and  C_4
REMARK    4  A    between atoms: C_7  and  C_10
REMARK    5  A    between atoms: C_17  and  C_19
REMARK                            x       y       z     vdW  Elec       q    Type
REMARK                         _______ _______ _______ _____ _____    ______ ____
ROOT
ATOM      1  C   UNL     1      -0.208  -0.591   2.068  0.00  0.00    +0.227 C 
ATOM      2  C   UNL     1      -0.098  -1.380   3.395  0.00  0.00    +0.108 C 
ATOM      3  C   UNL     1      -1.549  -1.525   3.813  0.00  0.00    +0.091 C 
ATOM      4  N   UNL     1      -2.293  -1.251   2.795  0.00  0.00    -0.089 NA
ATOM      5  O   UNL     1      -1.546  -0.919   1.641  0.00  0.00    -0.388 OA
ENDROOT
BRANCH   3   6
ATOM      6  C   UNL     1      -2.027  -1.912   5.155  0.00  0.00    -0.000 A 
ATOM      7  C   UNL     1      -1.112  -2.178   6.176  0.00  0.00    +0.011 A 
ATOM      8  C   UNL     1      -1.565  -2.539   7.427  0.00  0.00    +0.020 A 
ATOM      9  C   UNL     1      -2.925  -2.640   7.672  0.00  0.00    +0.041 A 
ATOM     10  C   UNL     1      -3.837  -2.378   6.663  0.00  0.00    +0.020 A 
ATOM     11  C   UNL     1      -3.397  -2.010   5.410  0.00  0.00    +0.011 A 
ATOM     12 CL   UNL     1      -3.487  -3.096   9.250  0.00  0.00    -0.084 Cl
ENDBRANCH   3   6
BRANCH   1  13
ATOM     13  C   UNL     1       0.827  -1.080   1.052  0.00  0.00    +0.155 C 
BRANCH  13  15
ATOM     14  C   UNL     1       1.518   0.940  -0.319  0.00  0.00    +0.132 C 
ATOM     15  N   UNL     1       0.724  -0.282  -0.172  0.00  0.00    -0.301 N 
ATOM     16  C   UNL     1      -0.102  -0.673  -1.163  0.00  0.00    +0.219 C 
ATOM     17  O   UNL     1      -0.826  -1.633  -1.006  0.00  0.00    -0.275 OA
BRANCH  16  18
ATOM     18  C   UNL     1      -0.124   0.083  -2.467  0.00  0.00    +0.075 C 
ATOM     19  C   UNL     1      -1.294   1.090  -2.473  0.00  0.00    +0.013 C 
ATOM     20  C   UNL     1      -1.812   1.060  -3.933  0.00  0.00    +0.001 C 
ATOM     21  C   UNL     1      -1.685  -0.436  -4.310  0.00  0.00    +0.001 C 
ATOM     22  C   UNL     1      -0.373  -0.887  -3.635  0.00  0.00    +0.013 C 
ENDBRANCH  16  18
ENDBRANCH  13  15
ENDBRANCH   1  13
TORSDOF 4
