REMARK  Name = ZINC13123874
REMARK  3 active torsions:
REMARK  status: ('A' for Active; 'I' for Inactive)
REMARK    1  A    between atoms: C_1  and  C_2
REMARK    2  A    between atoms: C_10  and  C_25
REMARK    3  A    between atoms: C_13  and  C_16
REMARK                            x       y       z     vdW  Elec       q    Type
REMARK                         _______ _______ _______ _____ _____    ______ ____
ROOT
ATOM      1  C   UNL     1      -0.018   1.503   0.010  0.00  0.00    +0.044 C 
ATOM      2  C   UNL     1       0.002  -0.004   0.002  0.00  0.00    -0.050 A 
ATOM      3  C   UNL     1       0.006  -0.687  -1.202  0.00  0.00    +0.005 A 
ATOM      4  C   UNL     1       0.019  -2.070  -1.230  0.00  0.00    +0.024 A 
ATOM      5  C   UNL     1       0.032  -2.783  -0.044  0.00  0.00    +0.038 A 
ATOM      6  C   UNL     1       0.037  -2.084   1.180  0.00  0.00    +0.021 A 
ATOM      7  C   UNL     1       0.023  -0.700   1.197  0.00  0.00    +0.015 A 
ATOM      8  C   UNL     1       0.081  -2.906   2.404  0.00  0.00    +0.073 A 
ATOM      9  C   UNL     1      -0.119  -2.596   3.703  0.00  0.00    +0.052 A 
ATOM     10  C   UNL     1       0.036  -3.770   4.449  0.00  0.00    +0.061 A 
ATOM     11  N   UNL     1       0.323  -4.755   3.629  0.00  0.00    -0.174 NA
ATOM     12  N   UNL     1       0.366  -4.251   2.334  0.00  0.00    -0.238 N 
ATOM     13  C   UNL     1       0.657  -4.925   1.067  0.00  0.00    +0.222 C 
ATOM     14  N   UNL     1       0.030  -4.177  -0.031  0.00  0.00    -0.319 N 
ATOM     15  C   UNL     1      -0.102  -3.885   5.945  0.00  0.00    +0.067 C 
ATOM     16  H   UNL     1      -0.392  -4.661  -0.758  0.00  0.00    +0.148 HD
ENDROOT
BRANCH  13  17
ATOM     17  C   UNL     1       2.149  -4.978   0.856  0.00  0.00    -0.002 A 
ATOM     18  C   UNL     1       2.818  -3.864   0.384  0.00  0.00    +0.011 A 
ATOM     19  C   UNL     1       4.186  -3.907   0.188  0.00  0.00    +0.050 A 
ATOM     20  C   UNL     1       4.889  -5.068   0.466  0.00  0.00    +0.166 A 
ATOM     21  C   UNL     1       4.215  -6.190   0.942  0.00  0.00    +0.167 A 
ATOM     22  C   UNL     1       2.845  -6.138   1.140  0.00  0.00    +0.057 A 
ATOM     23  O   UNL     1       5.120  -7.193   1.136  0.00  0.00    -0.453 OA
ATOM     24  C   UNL     1       6.289  -6.806   0.389  0.00  0.00    +0.466 C 
ATOM     25  O   UNL     1       6.217  -5.368   0.362  0.00  0.00    -0.453 OA
ENDBRANCH  13  17
TORSDOF 1
