REMARK  Name = ZINC02139535
REMARK  10 active torsions:
REMARK  status: ('A' for Active; 'I' for Inactive)
REMARK    1  A    between atoms: C_1  and  O_2
REMARK    2  A    between atoms: O_2  and  C_3
REMARK    3  A    between atoms: C_6  and  C_11
REMARK    4  A    between atoms: C_8  and  O_9
REMARK    5  A    between atoms: O_9  and  C_10
REMARK    6  A    between atoms: C_12  and  C_28
REMARK    7  A    between atoms: C_13  and  C_22
REMARK    8  A    between atoms: N_29  and  C_30
REMARK    9  A    between atoms: C_30  and  C_31
REMARK   10  A    between atoms: C_31  and  C_32
REMARK                            x       y       z     vdW  Elec       q    Type
REMARK                         _______ _______ _______ _____ _____    ______ ____
ROOT
ATOM      1  C   UNL     1      -5.355  -2.783   0.247  0.00  0.00    +0.141 C 
ATOM      2  C   UNL     1      -6.403  -1.948   0.435  0.00  0.00    +0.023 C 
ATOM      3  C   UNL     1      -7.798  -2.473   0.622  0.00  0.00    +0.087 C 
ATOM      4  C   UNL     1      -7.881  -3.905   0.163  0.00  0.00    +0.007 A 
ATOM      5  C   UNL     1      -9.119  -4.471  -0.081  0.00  0.00    +0.008 A 
ATOM      6  C   UNL     1      -9.212  -5.784  -0.502  0.00  0.00    +0.001 A 
ATOM      7  C   UNL     1      -8.065  -6.536  -0.682  0.00  0.00    +0.004 A 
ATOM      8  C   UNL     1      -6.827  -5.976  -0.440  0.00  0.00    +0.046 A 
ATOM      9  C   UNL     1      -6.731  -4.656  -0.015  0.00  0.00    +0.133 A 
ATOM     10  O   UNL     1      -5.508  -4.120   0.212  0.00  0.00    -0.455 OA
ENDROOT
BRANCH   1  14
ATOM     11  C   UNL     1      -1.474  -1.134  -0.268  0.00  0.00    +0.162 A 
ATOM     12  C   UNL     1      -2.519  -0.714  -1.078  0.00  0.00    +0.050 A 
ATOM     13  C   UNL     1      -3.780  -1.246  -0.914  0.00  0.00    +0.015 A 
ATOM     14  C   UNL     1      -4.007  -2.212   0.070  0.00  0.00    +0.021 A 
ATOM     15  C   UNL     1      -2.954  -2.636   0.885  0.00  0.00    +0.061 A 
ATOM     16  C   UNL     1      -1.692  -2.101   0.712  0.00  0.00    +0.162 A 
BRANCH  11  18
ATOM     17  C   UNL     1      -0.080   0.382  -1.456  0.00  0.00    +0.277 C 
ATOM     18  O   UNL     1      -0.233  -0.605  -0.433  0.00  0.00    -0.491 OA
ENDBRANCH  11  18
BRANCH  16  19
ATOM     19  O   UNL     1      -0.664  -2.514   1.500  0.00  0.00    -0.491 OA
ATOM     20  C   UNL     1      -0.959  -3.508   2.484  0.00  0.00    +0.277 C 
ENDBRANCH  16  19
ENDBRANCH   1  14
BRANCH   3  21
ATOM     21  C   UNL     1      -8.168  -2.398   2.081  0.00  0.00    -0.035 A 
ATOM     22  C   UNL     1      -7.418  -3.080   3.020  0.00  0.00    +0.004 A 
ATOM     23  C   UNL     1      -7.758  -3.011   4.359  0.00  0.00    +0.000 A 
ATOM     24  C   UNL     1      -8.848  -2.259   4.757  0.00  0.00    +0.000 A 
ATOM     25  C   UNL     1      -9.597  -1.576   3.817  0.00  0.00    +0.000 A 
ATOM     26  C   UNL     1      -9.255  -1.642   2.480  0.00  0.00    +0.004 A 
ENDBRANCH   3  21
BRANCH   2  27
ATOM     27  C   UNL     1      -6.181  -0.555   0.456  0.00  0.00    +0.086 C 
ATOM     28  N   UNL     1      -7.190   0.265   0.528  0.00  0.00    -0.390 N 
ATOM     29  H   UNL     1      -8.089  -0.082   0.642  0.00  0.00    +0.159 HD
BRANCH  28  30
ATOM     30  C   UNL     1      -6.969   1.710   0.440  0.00  0.00    +0.117 C 
BRANCH  30  31
ATOM     31  C   UNL     1      -7.668   2.258  -0.806  0.00  0.00    +0.058 C 
BRANCH  31  32
ATOM     32  C   UNL     1      -7.473   3.751  -0.876  0.00  0.00    -0.021 A 
ATOM     33  C   UNL     1      -6.322   4.453  -1.451  0.00  0.00    +0.003 A 
ATOM     34  C   UNL     1      -5.140   4.037  -2.065  0.00  0.00    +0.010 A 
ATOM     35  C   UNL     1      -4.242   4.968  -2.507  0.00  0.00    +0.001 A 
ATOM     36  C   UNL     1      -4.495   6.323  -2.349  0.00  0.00    +0.002 A 
ATOM     37  C   UNL     1      -5.656   6.755  -1.746  0.00  0.00    +0.026 A 
ATOM     38  C   UNL     1      -6.585   5.826  -1.289  0.00  0.00    +0.047 A 
ATOM     39  N   UNL     1      -7.806   5.935  -0.662  0.00  0.00    -0.360 N 
ATOM     40  C   UNL     1      -8.322   4.689  -0.429  0.00  0.00    +0.087 A 
ATOM     41  H   UNL     1      -8.237   6.770  -0.424  0.00  0.00    +0.165 HD
ENDBRANCH  31  32
ENDBRANCH  30  31
ENDBRANCH  28  30
ENDBRANCH   2  27
TORSDOF 8
