REMARK  Name = ZINC38655485
REMARK  10 active torsions:
REMARK  status: ('A' for Active; 'I' for Inactive)
REMARK    1  A    between atoms: C_1  and  C_2
REMARK    2  A    between atoms: C_2  and  C_3
REMARK    3  A    between atoms: C_4  and  C_22
REMARK    4  A    between atoms: C_10  and  O_20
REMARK    5  A    between atoms: C_11  and  O_18
REMARK    6  A    between atoms: O_18  and  C_19
REMARK    7  A    between atoms: O_20  and  C_21
REMARK    8  A    between atoms: C_26  and  O_35
REMARK    9  A    between atoms: C_27  and  O_33
REMARK   10  A    between atoms: O_33  and  C_34
REMARK                            x       y       z     vdW  Elec       q    Type
REMARK                         _______ _______ _______ _____ _____    ______ ____
ROOT
ATOM      1  C   UNL     1      -1.357  -0.712   0.003  0.00  0.00    -0.085 C 
ATOM      2  C   UNL     1      -2.001  -0.739  -1.125  0.00  0.00    -0.052 C 
ATOM      3  C   UNL     1      -3.469  -1.048  -1.211  0.00  0.00    +0.022 C 
ATOM      4  C   UNL     1      -4.105  -0.917   0.178  0.00  0.00    -0.033 C 
ATOM      5  C   UNL     1      -5.512  -1.452   0.124  0.00  0.00    -0.054 A 
ATOM      6  C   UNL     1      -6.309  -1.100  -0.957  0.00  0.00    +0.051 A 
ATOM      7  C   UNL     1      -7.607  -1.565  -1.051  0.00  0.00    +0.162 A 
ATOM      8  C   UNL     1      -8.120  -2.392  -0.055  0.00  0.00    +0.162 A 
ATOM      9  C   UNL     1      -7.322  -2.742   1.020  0.00  0.00    +0.053 A 
ATOM     10  C   UNL     1      -6.021  -2.272   1.109  0.00  0.00    -0.044 A 
ATOM     11  C   UNL     1      -5.186  -2.679   2.296  0.00  0.00    +0.017 C 
ATOM     12  C   UNL     1      -3.992  -1.733   2.429  0.00  0.00    -0.073 C 
ATOM     13  N   UNL     1      -3.292  -1.673   1.138  0.00  0.00    +0.387 N 
ATOM     14  C   UNL     1      -2.009  -0.985   1.326  0.00  0.00    -0.047 C 
ATOM     15  H   UNL     1      -3.137  -2.607   0.790  0.00  0.00    -0.080 HD
ENDROOT
BRANCH   2  16
ATOM     16  C   UNL     1      -1.247  -0.447  -2.397  0.00  0.00    +0.111 C 
ATOM     17  C   UNL     1      -1.836   0.772  -3.056  0.00  0.00    -0.019 A 
ATOM     18  C   UNL     1      -2.181   1.852  -2.256  0.00  0.00    +0.055 A 
ATOM     19  C   UNL     1      -2.722   2.995  -2.816  0.00  0.00    +0.159 A 
ATOM     20  C   UNL     1      -2.921   3.061  -4.192  0.00  0.00    +0.162 A 
ATOM     21  C   UNL     1      -2.578   1.981  -4.986  0.00  0.00    +0.053 A 
ATOM     22  C   UNL     1      -2.038   0.836  -4.419  0.00  0.00    -0.038 A 
ATOM     23  C   UNL     1      -1.692  -0.318  -5.324  0.00  0.00    +0.050 C 
ATOM     24  C   UNL     1      -0.754  -1.285  -4.602  0.00  0.00    +0.086 C 
ATOM     25  N   UNL     1      -1.337  -1.607  -3.289  0.00  0.00    -0.306 NA
ATOM     26  H   UNL     1      -0.886  -2.413  -2.882  0.00  0.00    +0.123 HD
BRANCH  20  27
ATOM     27  O   UNL     1      -3.450   4.181  -4.753  0.00  0.00    -0.491 OA
ATOM     28  C   UNL     1      -3.626   4.175  -6.171  0.00  0.00    +0.277 C 
ENDBRANCH  20  27
BRANCH  19  29
ATOM     29  O   UNL     1      -3.059   4.050  -2.026  0.00  0.00    -0.503 OA
ATOM     30  H   UNL     1      -2.345   4.689  -1.899  0.00  0.00    +0.292 HD
ENDBRANCH  19  29
ENDBRANCH   2  16
BRANCH   1  32
ATOM     31  C   UNL     1       0.319   1.111   0.133  0.00  0.00    +0.008 C 
ATOM     32  C   UNL     1       0.117  -0.398  -0.020  0.00  0.00    +0.025 C 
ENDBRANCH   1  32
BRANCH   8  33
ATOM     33  O   UNL     1      -9.396  -2.854  -0.139  0.00  0.00    -0.491 OA
ATOM     34  C   UNL     1      -9.852  -3.697   0.921  0.00  0.00    +0.277 C 
ENDBRANCH   8  33
BRANCH   7  35
ATOM     35  O   UNL     1      -8.382  -1.216  -2.113  0.00  0.00    -0.491 OA
ATOM     36  C   UNL     1      -7.790  -0.364  -3.096  0.00  0.00    +0.277 C 
ENDBRANCH   7  35
TORSDOF 6
