REMARK  Name = ZINC35170974
REMARK  3 active torsions:
REMARK  status: ('A' for Active; 'I' for Inactive)
REMARK    1  A    between atoms: C_5  and  C_7
REMARK    2  A    between atoms: C_8  and  N_16
REMARK    3  A    between atoms: N_16  and  C_17
REMARK                            x       y       z     vdW  Elec       q    Type
REMARK                         _______ _______ _______ _____ _____    ______ ____
ROOT
ATOM      1  C   UNL     1       1.199  -2.445  -0.467  0.00  0.00    +0.116 A 
ATOM      2  C   UNL     1       0.143  -3.040   0.188  0.00  0.00    +0.133 A 
ATOM      3  N   UNL     1       0.644  -4.142   0.823  0.00  0.00    -0.272 N 
ATOM      4  C   UNL     1       0.064  -5.098   1.611  0.00  0.00    +0.097 A 
ATOM      5  C   UNL     1       0.832  -6.095   2.111  0.00  0.00    +0.038 A 
ATOM      6  C   UNL     1       2.203  -6.125   1.809  0.00  0.00    +0.116 A 
ATOM      7  N   UNL     1       2.737  -5.198   1.051  0.00  0.00    -0.220 NA
ATOM      8  C   UNL     1       1.991  -4.202   0.546  0.00  0.00    +0.237 A 
ATOM      9  N   UNL     1       2.303  -3.179  -0.232  0.00  0.00    -0.208 NA
ENDROOT
BRANCH   1  14
ATOM     10  C   UNL     1       0.074   0.076  -3.018  0.00  0.00    +0.001 A 
ATOM     11  C   UNL     1       1.005   1.083  -2.834  0.00  0.00    +0.003 A 
ATOM     12  C   UNL     1       1.999   0.948  -1.882  0.00  0.00    +0.039 A 
ATOM     13  C   UNL     1       2.068  -0.196  -1.109  0.00  0.00    +0.133 A 
ATOM     14  C   UNL     1       1.131  -1.215  -1.292  0.00  0.00    +0.039 A 
ATOM     15  C   UNL     1       0.132  -1.071  -2.253  0.00  0.00    +0.013 A 
ATOM     16  F   UNL     1       3.040  -0.328  -0.180  0.00  0.00    -0.205 F 
ENDBRANCH   1  14
BRANCH   2  17
ATOM     17  N   UNL     1      -1.182  -2.601   0.201  0.00  0.00    -0.326 N 
ATOM     18  H   UNL     1      -1.393  -1.704   0.503  0.00  0.00    +0.148 HD
BRANCH  17  19
ATOM     19  C   UNL     1      -2.254  -3.496  -0.243  0.00  0.00    +0.072 C 
ATOM     20  C   UNL     1      -2.407  -3.395  -1.762  0.00  0.00    +0.022 C 
ATOM     21  C   UNL     1      -3.527  -4.329  -2.225  0.00  0.00    +0.002 C 
ATOM     22  C   UNL     1      -4.840  -3.925  -1.552  0.00  0.00    +0.000 C 
ATOM     23  C   UNL     1      -4.686  -4.027  -0.033  0.00  0.00    +0.002 C 
ATOM     24  C   UNL     1      -3.567  -3.092   0.431  0.00  0.00    +0.022 C 
ENDBRANCH  17  19
ENDBRANCH   2  17
TORSDOF 3
