REMARK  Name = ZINC57432639
REMARK  7 active torsions:
REMARK  status: ('A' for Active; 'I' for Inactive)
REMARK    1  A    between atoms: C_1  and  C_2
REMARK    2  A    between atoms: C_2  and  C_3
REMARK    3  A    between atoms: C_3  and  C_4
REMARK    4  A    between atoms: C_4  and  N_5
REMARK    5  A    between atoms: N_8  and  C_9
REMARK    6  A    between atoms: C_9  and  C_15
REMARK    7  A    between atoms: N_17  and  C_18
REMARK                            x       y       z     vdW  Elec       q    Type
REMARK                         _______ _______ _______ _____ _____    ______ ____
ROOT
ATOM      1  C   UNL     1      -4.527  -5.802  -0.097  0.00  0.00    +0.112 C 
ATOM      2  C   UNL     1      -3.774  -6.265  -1.346  0.00  0.00    +0.035 C 
ATOM      3  C   UNL     1      -4.335  -5.546  -2.575  0.00  0.00    +0.003 C 
ATOM      4  C   UNL     1      -5.822  -5.875  -2.724  0.00  0.00    +0.000 C 
ATOM      5  C   UNL     1      -6.574  -5.412  -1.474  0.00  0.00    +0.003 C 
ATOM      6  C   UNL     1      -6.013  -6.131  -0.246  0.00  0.00    +0.035 C 
ENDROOT
BRANCH   1  10
ATOM      7  N   UNL     1      -2.965  -2.497   0.286  0.00  0.00    -0.299 N 
ATOM      8  C   UNL     1      -3.129  -3.834   0.236  0.00  0.00    +0.300 C 
ATOM      9  O   UNL     1      -2.167  -4.569   0.345  0.00  0.00    -0.253 OA
ATOM     10  N   UNL     1      -4.360  -4.356   0.065  0.00  0.00    -0.285 N 
ATOM     11  H   UNL     1      -3.732  -1.910   0.200  0.00  0.00    +0.150 HD
ATOM     12  H   UNL     1      -5.136  -3.773   0.050  0.00  0.00    +0.151 HD
BRANCH   7  13
ATOM     13  C   UNL     1      -1.627  -1.930   0.472  0.00  0.00    +0.106 C 
BRANCH  13  14
ATOM     14  C   UNL     1      -1.719  -0.403   0.493  0.00  0.00    +0.018 C 
BRANCH  14  16
ATOM     15  C   UNL     1      -0.413   1.716   0.709  0.00  0.00    +0.004 C 
ATOM     16  C   UNL     1      -0.321   0.189   0.688  0.00  0.00    -0.002 C 
ENDBRANCH  14  16
ENDBRANCH  13  14
ENDBRANCH   7  13
ENDBRANCH   1  10
BRANCH   1  17
ATOM     17  C   UNL     1      -3.974  -6.510   1.113  0.00  0.00    +0.237 C 
ATOM     18  O   UNL     1      -3.414  -7.578   0.988  0.00  0.00    -0.273 OA
ATOM     19  N   UNL     1      -4.103  -5.956   2.335  0.00  0.00    -0.302 N 
ATOM     20  H   UNL     1      -4.489  -5.071   2.428  0.00  0.00    +0.150 HD
BRANCH  19  21
ATOM     21  C   UNL     1      -3.661  -6.691   3.523  0.00  0.00    +0.159 C 
ATOM     22  C   UNL     1      -3.333  -5.705   4.646  0.00  0.00    +0.032 C 
ATOM     23  C   UNL     1      -2.344  -6.312   5.624  0.00  0.00    +0.004 C 
ATOM     24  C   UNL     1      -2.903  -7.482   6.413  0.00  0.00    +0.019 C 
ATOM     25  C   UNL     1      -3.178  -8.676   5.498  0.00  0.00    +0.104 C 
ATOM     26  N   UNL     1      -4.527  -8.531   4.927  0.00  0.00    -0.314 N 
ATOM     27  C   UNL     1      -4.769  -7.611   3.994  0.00  0.00    +0.233 C 
ATOM     28  O   UNL     1      -5.882  -7.506   3.524  0.00  0.00    -0.274 OA
ATOM     29  H   UNL     1      -5.243  -9.112   5.229  0.00  0.00    +0.149 HD
ENDBRANCH  19  21
ENDBRANCH   1  17
TORSDOF 6
