REMARK  Name = ZINC20992535
REMARK  6 active torsions:
REMARK  status: ('A' for Active; 'I' for Inactive)
REMARK    1  A    between atoms: C_1  and  C_2
REMARK    2  A    between atoms: C_7  and  N_8
REMARK    3  A    between atoms: C_9  and  C_11
REMARK    4  A    between atoms: C_11  and  N_12
REMARK    5  A    between atoms: C_18  and  C_21
REMARK    6  A    between atoms: C_19  and  C_20
REMARK                            x       y       z     vdW  Elec       q    Type
REMARK                         _______ _______ _______ _____ _____    ______ ____
ROOT
ATOM      1  N   UNL     1      -1.176  -0.724  -0.008  0.00  0.00    -0.319 N 
ATOM      2  C   UNL     1       0.002  -0.003  -0.025  0.00  0.00    +0.146 C 
ATOM      3  N   UNL     1      -0.016   1.300  -0.026  0.00  0.00    -0.113 NA
ATOM      4  S   UNL     1       1.595   1.751  -0.050  0.00  0.00    +0.101 S 
ATOM      5  O   UNL     1       1.857   2.361  -1.306  0.00  0.00    -0.146 OA
ATOM      6  O   UNL     1       1.892   2.364   1.197  0.00  0.00    -0.146 OA
ATOM      7  C   UNL     1       2.359   0.142  -0.059  0.00  0.00    +0.126 C 
ATOM      8  C   UNL     1       1.283  -0.679  -0.042  0.00  0.00    +0.018 C 
ATOM      9  C   UNL     1       1.409  -2.181  -0.042  0.00  0.00    +0.049 C 
ATOM     10  H   UNL     1      -1.147  -1.824  -0.007  0.00  0.00    +0.148 HD
ENDROOT
BRANCH   7  11
ATOM     11  C   UNL     1       3.790  -0.205  -0.079  0.00  0.00    +0.002 A 
ATOM     12  C   UNL     1       4.187  -1.546  -0.079  0.00  0.00    +0.011 A 
ATOM     13  C   UNL     1       5.529  -1.863  -0.103  0.00  0.00    +0.020 A 
ATOM     14  C   UNL     1       6.482  -0.858  -0.117  0.00  0.00    +0.041 A 
ATOM     15  C   UNL     1       6.095   0.472  -0.113  0.00  0.00    +0.020 A 
ATOM     16  C   UNL     1       4.757   0.804  -0.094  0.00  0.00    +0.011 A 
ATOM     17 CL   UNL     1       8.169  -1.267  -0.142  0.00  0.00    -0.084 Cl
ENDBRANCH   7  11
BRANCH   1  18
ATOM     18  C   UNL     1      -2.463  -0.025   0.010  0.00  0.00    +0.199 C 
BRANCH  18  20
ATOM     19  N   UNL     1      -4.864  -0.617   0.044  0.00  0.00    -0.284 N 
ATOM     20  C   UNL     1      -3.583  -1.034   0.026  0.00  0.00    +0.234 C 
ATOM     21  O   UNL     1      -3.330  -2.220   0.024  0.00  0.00    -0.274 OA
ATOM     22  H   UNL     1      -5.093   0.454   0.138  0.00  0.00    +0.155 HD
BRANCH  19  29
ATOM     23  C   UNL     1      -7.406   0.084   1.115  0.00  0.00    +0.045 C 
ATOM     24  C   UNL     1      -7.160  -1.248   0.452  0.00  0.00    -0.029 A 
ATOM     25  C   UNL     1      -8.184  -2.169   0.351  0.00  0.00    +0.005 A 
ATOM     26  C   UNL     1      -7.959  -3.390  -0.258  0.00  0.00    +0.000 A 
ATOM     27  C   UNL     1      -6.709  -3.693  -0.766  0.00  0.00    +0.002 A 
ATOM     28  C   UNL     1      -5.683  -2.774  -0.672  0.00  0.00    +0.023 A 
ATOM     29  C   UNL     1      -5.904  -1.549  -0.057  0.00  0.00    +0.036 A 
ENDBRANCH  19  29
ENDBRANCH  18  20
ENDBRANCH   1  18
TORSDOF 4
