REMARK  Name = ZINC19724078
REMARK  7 active torsions:
REMARK  status: ('A' for Active; 'I' for Inactive)
REMARK    1  A    between atoms: C_1  and  C_2
REMARK    2  A    between atoms: C_2  and  C_3
REMARK    3  A    between atoms: C_2  and  C_4
REMARK    4  A    between atoms: C_2  and  C_5
REMARK    5  A    between atoms: C_8  and  N_11
REMARK    6  A    between atoms: C_13  and  C_19
REMARK    7  A    between atoms: C_19  and  N_20
REMARK                            x       y       z     vdW  Elec       q    Type
REMARK                         _______ _______ _______ _____ _____    ______ ____
ROOT
ATOM      1  N   UNL     1      -1.197  -0.720   0.010  0.00  0.00    -0.227 N 
ATOM      2  C   UNL     1      -1.423  -2.084  -0.489  0.00  0.00    +0.106 C 
ATOM      3  C   UNL     1      -2.868  -2.521  -0.263  0.00  0.00    -0.096 C 
ATOM      4  N   UNL     1      -3.723  -1.333  -0.078  0.00  0.00    +0.481 NA
ATOM      5  S   UNL     1      -2.676  -0.211   0.596  0.00  0.00    -0.011 S 
ATOM      6  O   UNL     1      -2.671  -0.421   2.001  0.00  0.00    -0.177 OA
ATOM      7  O   UNL     1      -2.960   1.045  -0.004  0.00  0.00    -0.177 OA
ENDROOT
BRANCH   1  11
ATOM      8  C   UNL     1       2.377   1.415  -0.013  0.00  0.00    -0.042 A 
ATOM      9  C   UNL     1       1.171   2.090   0.002  0.00  0.00    +0.006 A 
ATOM     10  C   UNL     1      -0.017   1.385   0.010  0.00  0.00    +0.025 A 
ATOM     11  C   UNL     1       0.002  -0.004   0.002  0.00  0.00    +0.049 A 
ATOM     12  C   UNL     1       1.216  -0.679  -0.013  0.00  0.00    +0.025 A 
ATOM     13  C   UNL     1       2.400   0.032  -0.021  0.00  0.00    +0.006 A 
BRANCH   8  15
ATOM     14  C   UNL     1       4.467   1.837  -1.280  0.00  0.00    +0.015 C 
ATOM     15  C   UNL     1       3.671   2.188  -0.021  0.00  0.00    -0.013 C 
ATOM     16  C   UNL     1       3.369   3.688  -0.010  0.00  0.00    +0.015 C 
ATOM     17  C   UNL     1       4.491   1.823   1.218  0.00  0.00    +0.015 C 
ENDBRANCH   8  15
ENDBRANCH   1  11
BRANCH   3  18
ATOM     18  C   UNL     1      -2.945  -3.401   0.987  0.00  0.00    -0.106 C 
BRANCH  18  19
ATOM     19  N   UNL     1      -4.349  -3.722   1.274  0.00  0.00    +0.377 N 
ATOM     20  H   UNL     1      -4.404  -4.355   2.172  0.00  0.00    -0.090 HD
ATOM     21  H   UNL     1      -4.784  -4.261   0.419  0.00  0.00    -0.090 HD
ATOM     22  H   UNL     1      -4.910  -2.792   1.446  0.00  0.00    -0.090 HD
ENDBRANCH  18  19
ENDBRANCH   3  18
TORSDOF 4
