REMARK  Name = ZINC02130478
REMARK  7 active torsions:
REMARK  status: ('A' for Active; 'I' for Inactive)
REMARK    1  A    between atoms: C_1  and  C_2
REMARK    2  A    between atoms: C_16  and  C_18
REMARK    3  A    between atoms: C_18  and  C_19
REMARK    4  A    between atoms: C_19  and  C_20
REMARK    5  A    between atoms: N_25  and  C_28
REMARK    6  A    between atoms: C_28  and  C_30
REMARK    7  A    between atoms: C_28  and  C_31
REMARK                            x       y       z     vdW  Elec       q    Type
REMARK                         _______ _______ _______ _____ _____    ______ ____
ROOT
ATOM      1  C   UNL     1       0.310   1.333   0.057  0.00  0.00    +0.047 C 
ATOM      2  C   UNL     1       0.250  -0.172   0.061  0.00  0.00    -0.011 A 
ATOM      3  C   UNL     1       0.198  -0.856   1.259  0.00  0.00    +0.046 A 
ATOM      4  C   UNL     1       0.143  -2.239   1.272  0.00  0.00    +0.020 A 
ATOM      5  C   UNL     1       0.141  -2.939   0.078  0.00  0.00    +0.006 A 
ATOM      6  C   UNL     1       0.195  -2.261  -1.119  0.00  0.00    -0.027 A 
ATOM      7  C   UNL     1       0.243  -0.870  -1.145  0.00  0.00    +0.040 A 
ATOM      8  N   UNL     1       0.281  -0.412  -2.464  0.00  0.00    -0.286 N 
ATOM      9  C   UNL     1       0.260  -1.424  -3.353  0.00  0.00    +0.211 C 
ATOM     10  O   UNL     1       0.282  -1.327  -4.561  0.00  0.00    -0.277 OA
ATOM     11  C   UNL     1       0.214  -2.699  -2.555  0.00  0.00    +0.050 C 
ATOM     12  C   UNL     1      -1.028  -3.525  -2.910  0.00  0.00    +0.088 C 
ATOM     13  C   UNL     1      -0.554  -5.003  -2.826  0.00  0.00    +0.073 C 
ATOM     14  C   UNL     1       0.929  -4.918  -2.405  0.00  0.00    -0.057 C 
ATOM     15  C   UNL     1      -1.361  -5.579  -1.685  0.00  0.00    +0.225 C 
ATOM     16  O   UNL     1      -1.299  -6.723  -1.290  0.00  0.00    -0.275 OA
ATOM     17  N   UNL     1      -2.156  -4.604  -1.183  0.00  0.00    -0.235 N 
ATOM     18  C   UNL     1      -2.047  -3.421  -1.799  0.00  0.00    +0.226 C 
ATOM     19  O   UNL     1      -2.670  -2.422  -1.510  0.00  0.00    -0.275 OA
ATOM     20 CL   UNL     1       0.201   0.022   2.756  0.00  0.00    -0.083 Cl
ATOM     21  H   UNL     1       0.319   0.525  -2.711  0.00  0.00    +0.155 HD
ATOM     22  N   UNL     1       1.340  -3.577  -2.825  0.00  0.00    +0.394 N 
ATOM     23  H   UNL     1       2.162  -3.274  -2.290  0.00  0.00    -0.083 HD
ATOM     24  H   UNL     1       1.562  -3.571  -3.827  0.00  0.00    -0.083 HD
ENDROOT
BRANCH  17  25
ATOM     25  C   UNL     1      -3.067  -4.832  -0.059  0.00  0.00    +0.111 C 
ATOM     26  C   UNL     1      -2.270  -5.316   1.154  0.00  0.00    +0.033 C 
BRANCH  25  27
ATOM     27  C   UNL     1      -4.085  -5.876  -0.441  0.00  0.00    -0.027 A 
ATOM     28  C   UNL     1      -4.532  -5.960  -1.746  0.00  0.00    +0.005 A 
ATOM     29  C   UNL     1      -5.462  -6.921  -2.097  0.00  0.00    +0.000 A 
ATOM     30  C   UNL     1      -5.952  -7.791  -1.141  0.00  0.00    +0.000 A 
ATOM     31  C   UNL     1      -5.509  -7.702   0.165  0.00  0.00    +0.000 A 
ATOM     32  C   UNL     1      -4.575  -6.745   0.515  0.00  0.00    +0.005 A 
ENDBRANCH  25  27
ENDBRANCH  17  25
BRANCH  14  33
ATOM     33  C   UNL     1       1.746  -6.000  -3.114  0.00  0.00    -0.006 C 
BRANCH  33  34
ATOM     34  C   UNL     1       3.201  -5.928  -2.647  0.00  0.00    +0.094 C 
BRANCH  34  35
ATOM     35  C   UNL     1       4.006  -6.994  -3.345  0.00  0.00    +0.210 C 
ATOM     36  O   UNL     1       3.469  -7.738  -4.138  0.00  0.00    -0.276 OA
ATOM     37  N   UNL     1       5.323  -7.120  -3.088  0.00  0.00    -0.329 N 
ATOM     38  H   UNL     1       5.753  -6.526  -2.454  0.00  0.00    +0.145 HD
ATOM     39  H   UNL     1       5.841  -7.806  -3.538  0.00  0.00    +0.145 HD
ENDBRANCH  34  35
ENDBRANCH  33  34
ENDBRANCH  14  33
TORSDOF 5
