REMARK  Name = ZINC35911922
REMARK  12 active torsions:
REMARK  status: ('A' for Active; 'I' for Inactive)
REMARK    1  A    between atoms: C_1  and  C_2
REMARK    2  A    between atoms: C_4  and  C_16
REMARK    3  A    between atoms: N_6  and  C_7
REMARK    4  A    between atoms: C_10  and  C_13
REMARK    5  A    between atoms: C_13  and  C_14
REMARK    6  A    between atoms: C_13  and  C_15
REMARK    7  A    between atoms: C_17  and  C_33
REMARK    8  A    between atoms: C_23  and  C_26
REMARK    9  A    between atoms: C_26  and  C_27
REMARK   10  A    between atoms: N_29  and  C_30
REMARK   11  A    between atoms: C_30  and  C_31
REMARK   12  A    between atoms: C_30  and  C_32
REMARK                            x       y       z     vdW  Elec       q    Type
REMARK                         _______ _______ _______ _____ _____    ______ ____
ROOT
ATOM      1  C   UNL     1       0.040  -3.331  -1.537  0.00  0.00    +0.088 A 
ATOM      2  C   UNL     1       0.054  -4.606  -0.981  0.00  0.00    +0.055 A 
ATOM      3  N   UNL     1       0.064  -5.656  -1.794  0.00  0.00    -0.227 NA
ATOM      4  C   UNL     1       0.061  -5.509  -3.096  0.00  0.00    +0.180 A 
ATOM      5  N   UNL     1       0.048  -4.296  -3.733  0.00  0.00    -0.258 N 
ATOM      6  C   UNL     1       0.032  -3.187  -2.935  0.00  0.00    +0.268 A 
ATOM      7  O   UNL     1       0.015  -2.074  -3.435  0.00  0.00    -0.266 OA
ATOM      8  C   UNL     1       0.048  -4.318  -5.107  0.00  0.00    +0.044 A 
ATOM      9  C   UNL     1       0.060  -5.470  -5.777  0.00  0.00    +0.071 A 
ATOM     10  S   UNL     1       0.072  -6.665  -4.450  0.00  0.00    -0.057 S 
ATOM     11  C   UNL     1       0.058  -4.792   0.514  0.00  0.00    +0.066 C 
ENDROOT
BRANCH   1  15
ATOM     12  C   UNL     1      -0.018   1.503   0.010  0.00  0.00    +0.066 C 
ATOM     13  C   UNL     1       0.002  -0.004   0.002  0.00  0.00    +0.042 A 
ATOM     14  C   UNL     1       0.008  -0.793  -1.094  0.00  0.00    +0.053 A 
ATOM     15  C   UNL     1       0.028  -2.135  -0.662  0.00  0.00    +0.100 A 
ATOM     16  N   UNL     1       0.034  -2.139   0.655  0.00  0.00    -0.166 NA
ATOM     17  N   UNL     1       0.023  -0.810   1.096  0.00  0.00    -0.236 N 
BRANCH  17  18
ATOM     18  C   UNL     1       0.031  -0.385   2.431  0.00  0.00    +0.066 A 
ATOM     19  C   UNL     1       0.704   0.776   2.788  0.00  0.00    +0.028 A 
ATOM     20  C   UNL     1       0.709   1.192   4.105  0.00  0.00    +0.006 A 
ATOM     21  C   UNL     1       0.044   0.454   5.067  0.00  0.00    -0.045 A 
ATOM     22  C   UNL     1      -0.626  -0.703   4.715  0.00  0.00    +0.006 A 
ATOM     23  C   UNL     1      -0.639  -1.121   3.399  0.00  0.00    +0.028 A 
BRANCH  21  24
ATOM     24  C   UNL     1       0.052   0.911   6.503  0.00  0.00    +0.013 C 
ATOM     25  C   UNL     1      -1.384   1.160   6.967  0.00  0.00    +0.012 C 
ATOM     26  C   UNL     1       0.691  -0.169   7.379  0.00  0.00    +0.012 C 
ENDBRANCH  21  24
ENDBRANCH  17  18
ENDBRANCH   1  15
BRANCH   8  27
ATOM     27  C   UNL     1       0.034  -3.018  -5.869  0.00  0.00    +0.150 C 
BRANCH  27  28
ATOM     28  C   UNL     1      -1.387  -2.537  -6.016  0.00  0.00    +0.219 C 
ATOM     29  O   UNL     1      -2.298  -3.186  -5.548  0.00  0.00    -0.275 OA
ATOM     30  N   UNL     1      -1.645  -1.385  -6.667  0.00  0.00    -0.313 N 
ATOM     31  H   UNL     1      -0.916  -0.866  -7.041  0.00  0.00    +0.149 HD
BRANCH  30  32
ATOM     32  C   UNL     1      -3.026  -0.918  -6.810  0.00  0.00    +0.067 C 
ATOM     33  C   UNL     1      -3.034   0.601  -6.991  0.00  0.00    +0.027 C 
ATOM     34  C   UNL     1      -3.665  -1.581  -8.032  0.00  0.00    +0.027 C 
ENDBRANCH  30  32
ENDBRANCH  27  28
ENDBRANCH   8  27
TORSDOF 6
