REMARK  Name = ZINC01374802
REMARK  12 active torsions:
REMARK  status: ('A' for Active; 'I' for Inactive)
REMARK    1  A    between atoms: C_1  and  C_2
REMARK    2  A    between atoms: C_2  and  C_3
REMARK    3  A    between atoms: C_3  and  C_5
REMARK    4  A    between atoms: C_3  and  N_14
REMARK    5  A    between atoms: N_9  and  C_10
REMARK    6  A    between atoms: C_10  and  C_11
REMARK    7  A    between atoms: C_10  and  C_12
REMARK    8  A    between atoms: C_10  and  C_13
REMARK    9  A    between atoms: N_14  and  C_15
REMARK   10  A    between atoms: N_14  and  C_25
REMARK   11  A    between atoms: C_15  and  C_16
REMARK   12  A    between atoms: C_25  and  C_26
REMARK                            x       y       z     vdW  Elec       q    Type
REMARK                         _______ _______ _______ _____ _____    ______ ____
ROOT
ATOM      1  N   UNL     1       0.801  -0.182   2.567  0.00  0.00    -0.284 NA
ENDROOT
BRANCH   1   2
ATOM      2  C   UNL     1      -0.663  -0.305   2.581  0.00  0.00    +0.127 C 
BRANCH   2   3
ATOM      3  C   UNL     1      -1.283   1.068   2.583  0.00  0.00    +0.169 A 
ATOM      4  N   UNL     1      -0.771   2.157   3.102  0.00  0.00    -0.112 NA
ATOM      5  N   UNL     1      -1.600   3.122   2.901  0.00  0.00    -0.023 NA
ATOM      6  N   UNL     1      -2.628   2.677   2.267  0.00  0.00    -0.043 NA
ATOM      7  N   UNL     1      -2.468   1.416   2.048  0.00  0.00    -0.222 N 
BRANCH   7   8
ATOM      8  C   UNL     1      -3.402   0.528   1.351  0.00  0.00    +0.059 C 
ATOM      9  C   UNL     1      -3.606  -0.746   2.174  0.00  0.00    +0.036 C 
ATOM     10  C   UNL     1      -4.745   1.240   1.172  0.00  0.00    +0.036 C 
ATOM     11  C   UNL     1      -2.832   0.163  -0.021  0.00  0.00    +0.036 C 
ENDBRANCH   7   8
ENDBRANCH   2   3
BRANCH   2  13
ATOM     12  C   UNL     1      -0.562  -2.495   3.779  0.00  0.00    +0.006 C 
ATOM     13  C   UNL     1      -1.099  -1.064   3.836  0.00  0.00    +0.023 C 
ENDBRANCH   2  13
ENDBRANCH   1   2
BRANCH   1  14
ATOM     14  C   UNL     1       1.335  -0.103   3.933  0.00  0.00    +0.120 C 
BRANCH  14  15
ATOM     15  C   UNL     1       1.064   1.266   4.501  0.00  0.00    -0.030 A 
ATOM     16  C   UNL     1       1.949   2.301   4.260  0.00  0.00    +0.009 A 
ATOM     17  C   UNL     1       1.704   3.558   4.778  0.00  0.00    +0.050 A 
ATOM     18  C   UNL     1       0.570   3.785   5.541  0.00  0.00    +0.166 A 
ATOM     19  C   UNL     1      -0.322   2.743   5.784  0.00  0.00    +0.167 A 
ATOM     20  C   UNL     1      -0.073   1.486   5.256  0.00  0.00    +0.054 A 
ATOM     21  O   UNL     1      -1.347   3.216   6.551  0.00  0.00    -0.453 OA
ATOM     22  C   UNL     1      -0.866   4.450   7.116  0.00  0.00    +0.466 C 
ATOM     23  O   UNL     1       0.103   4.911   6.157  0.00  0.00    -0.453 OA
ENDBRANCH  14  15
ENDBRANCH   1  14
BRANCH   1  24
ATOM     24  C   UNL     1       1.415  -1.290   1.824  0.00  0.00    +0.126 C 
BRANCH  24  25
ATOM     25  C   UNL     1       1.292  -1.032   0.344  0.00  0.00    +0.031 A 
ATOM     26  C   UNL     1       2.303  -0.417  -0.321  0.00  0.00    +0.020 A 
ATOM     27  C   UNL     1       2.154  -0.182  -1.757  0.00  0.00    +0.003 A 
ATOM     28  C   UNL     1       3.163   0.449  -2.494  0.00  0.00    +0.059 A 
ATOM     29  C   UNL     1       2.994   0.657  -3.847  0.00  0.00    +0.163 A 
ATOM     30  C   UNL     1       1.822   0.239  -4.483  0.00  0.00    +0.164 A 
ATOM     31  C   UNL     1       0.818  -0.384  -3.761  0.00  0.00    +0.075 A 
ATOM     32  C   UNL     1       0.971  -0.600  -2.398  0.00  0.00    +0.053 A 
ATOM     33  N   UNL     1      -0.019  -1.220  -1.663  0.00  0.00    -0.322 N 
ATOM     34  H   UNL     1      -0.833  -1.507  -2.105  0.00  0.00    +0.169 HD
ATOM     35  C   UNL     1       0.131  -1.436  -0.344  0.00  0.00    +0.254 A 
ATOM     36  O   UNL     1      -0.763  -1.990   0.272  0.00  0.00    -0.268 OA
ATOM     37  O   UNL     1       1.651   0.432  -5.819  0.00  0.00    -0.485 OA
ATOM     38  C   UNL     1       2.510   1.391  -6.445  0.00  0.00    +0.270 C 
ATOM     39  C   UNL     1       3.947   1.131  -5.974  0.00  0.00    +0.270 C 
ATOM     40  O   UNL     1       3.984   1.275  -4.550  0.00  0.00    -0.485 OA
ENDBRANCH  24  25
ENDBRANCH   1  24
TORSDOF 8
