REMARK  Name = ZINC66925428
REMARK  7 active torsions:
REMARK  status: ('A' for Active; 'I' for Inactive)
REMARK    1  A    between atoms: C_1  and  S_2
REMARK    2  A    between atoms: S_2  and  C_3
REMARK    3  A    between atoms: C_6  and  C_9
REMARK    4  A    between atoms: C_9  and  N_10
REMARK    5  A    between atoms: N_13  and  N_14
REMARK    6  A    between atoms: C_15  and  C_17
REMARK    7  A    between atoms: C_17  and  C_18
REMARK                            x       y       z     vdW  Elec       q    Type
REMARK                         _______ _______ _______ _____ _____    ______ ____
ROOT
ATOM      1  N   UNL     1       2.051  -1.595   6.146  0.00  0.00    -0.294 N 
ATOM      2  C   UNL     1       2.496  -1.917   7.376  0.00  0.00    +0.316 C 
ATOM      3  O   UNL     1       3.685  -2.089   7.567  0.00  0.00    -0.251 OA
ATOM      4  N   UNL     1       1.625  -2.050   8.396  0.00  0.00    -0.218 N 
ATOM      5  H   UNL     1       1.103  -1.458   5.994  0.00  0.00    +0.151 HD
ATOM      6  H   UNL     1       1.945  -2.282   9.281  0.00  0.00    +0.174 HD
ENDROOT
BRANCH   4   7
ATOM      7  N   UNL     1       0.255  -1.852   8.176  0.00  0.00    -0.233 N 
ATOM      8  C   UNL     1      -0.617  -1.984   9.195  0.00  0.00    +0.234 C 
ATOM      9  O   UNL     1      -0.216  -2.274  10.303  0.00  0.00    -0.274 OA
ATOM     10  H   UNL     1      -0.066  -1.620   7.291  0.00  0.00    +0.173 HD
BRANCH   8  11
ATOM     11  C   UNL     1      -2.090  -1.771   8.959  0.00  0.00    +0.135 C 
BRANCH  11  12
ATOM     12  C   UNL     1      -2.840  -1.976  10.250  0.00  0.00    -0.003 A 
ATOM     13  C   UNL     1      -3.396  -3.209  10.538  0.00  0.00    +0.007 A 
ATOM     14  C   UNL     1      -4.084  -3.398  11.722  0.00  0.00    +0.000 A 
ATOM     15  C   UNL     1      -4.218  -2.354  12.619  0.00  0.00    +0.003 A 
ATOM     16  C   UNL     1      -3.663  -1.121  12.333  0.00  0.00    +0.038 A 
ATOM     17  C   UNL     1      -2.969  -0.932  11.150  0.00  0.00    +0.127 A 
ATOM     18  F   UNL     1      -2.422   0.271  10.872  0.00  0.00    -0.205 F 
ENDBRANCH  11  12
ENDBRANCH   8  11
ENDBRANCH   4   7
BRANCH   1  19
ATOM     19  C   UNL     1       2.998  -1.452   5.038  0.00  0.00    +0.141 C 
BRANCH  19  23
ATOM     20  C   UNL     1       0.877  -0.427   1.472  0.00  0.00    +0.008 A 
ATOM     21  C   UNL     1       1.349   0.574   2.313  0.00  0.00    +0.015 A 
ATOM     22  C   UNL     1       2.035   0.239   3.464  0.00  0.00    +0.006 A 
ATOM     23  C   UNL     1       2.250  -1.090   3.781  0.00  0.00    -0.030 A 
ATOM     24  C   UNL     1       1.782  -2.088   2.946  0.00  0.00    +0.006 A 
ATOM     25  C   UNL     1       1.090  -1.761   1.796  0.00  0.00    +0.015 A 
BRANCH  20  27
ATOM     26  C   UNL     1      -0.022   1.810   0.012  0.00  0.00    +0.090 C 
ATOM     27  S   UNL     1       0.002  -0.004   0.002  0.00  0.00    -0.129 S 
ENDBRANCH  20  27
ENDBRANCH  19  23
ENDBRANCH   1  19
TORSDOF 6
