REMARK  Name = ZINC40700528
REMARK  9 active torsions:
REMARK  status: ('A' for Active; 'I' for Inactive)
REMARK    1  A    between atoms: C_1  and  C_2
REMARK    2  A    between atoms: C_10  and  C_11
REMARK    3  A    between atoms: C_11  and  O_13
REMARK    4  A    between atoms: O_13  and  C_14
REMARK    5  A    between atoms: C_14  and  C_15
REMARK    6  A    between atoms: C_14  and  C_16
REMARK    7  A    between atoms: C_23  and  C_25
REMARK    8  A    between atoms: C_25  and  C_26
REMARK    9  A    between atoms: C_26  and  O_27
REMARK                            x       y       z     vdW  Elec       q    Type
REMARK                         _______ _______ _______ _____ _____    ______ ____
ROOT
ATOM      1  C   UNL     1       0.316   1.688   0.101  0.00  0.00    +0.046 C 
ATOM      2  C   UNL     1       0.302   0.184   0.193  0.00  0.00    -0.017 A 
ATOM      3  C   UNL     1       0.048  -0.586  -0.949  0.00  0.00    +0.051 A 
ATOM      4  C   UNL     1      -0.222  -0.160  -2.284  0.00  0.00    +0.135 A 
ATOM      5  N   UNL     1      -0.436  -1.069  -3.220  0.00  0.00    -0.202 NA
ATOM      6  C   UNL     1      -0.411  -2.365  -2.965  0.00  0.00    +0.225 A 
ATOM      7  N   UNL     1      -0.167  -2.824  -1.750  0.00  0.00    -0.210 NA
ATOM      8  C   UNL     1       0.059  -1.990  -0.756  0.00  0.00    +0.116 A 
ATOM      9  S   UNL     1       0.416  -2.162   0.974  0.00  0.00    -0.062 S 
ATOM     10  C   UNL     1       0.543  -0.430   1.385  0.00  0.00    +0.102 A 
ATOM     11 CL   UNL     1      -0.704  -3.491  -4.253  0.00  0.00    -0.041 Cl
ATOM     12  N   UNL     1      -0.258   1.184  -2.594  0.00  0.00    -0.311 N 
ATOM     13  C   UNL     1       0.979   1.916  -2.900  0.00  0.00    +0.107 C 
ATOM     14  C   UNL     1       0.815   2.618  -4.251  0.00  0.00    +0.019 C 
ATOM     15  C   UNL     1      -0.440   3.492  -4.219  0.00  0.00    +0.003 C 
ATOM     16  C   UNL     1      -1.670   2.613  -3.979  0.00  0.00    +0.022 C 
ATOM     17  C   UNL     1      -1.535   1.910  -2.630  0.00  0.00    +0.077 C 
ENDROOT
BRANCH  10  18
ATOM     18  C   UNL     1       0.833   0.182   2.685  0.00  0.00    +0.346 C 
ATOM     19  O   UNL     1       0.881   1.392   2.791  0.00  0.00    -0.244 OA
BRANCH  18  20
ATOM     20  O   UNL     1       1.046  -0.598   3.765  0.00  0.00    -0.458 OA
BRANCH  20  21
ATOM     21  C   UNL     1       1.323   0.065   5.000  0.00  0.00    +0.171 C 
ATOM     22  C   UNL     1       0.012   0.332   5.741  0.00  0.00    +0.052 C 
ATOM     23  C   UNL     1       2.226  -0.820   5.863  0.00  0.00    +0.052 C 
ENDBRANCH  20  21
ENDBRANCH  18  20
ENDBRANCH  10  18
BRANCH  17  24
ATOM     24  C   UNL     1      -2.691   0.923  -2.451  0.00  0.00    +0.050 C 
BRANCH  24  25
ATOM     25  C   UNL     1      -4.008   1.694  -2.344  0.00  0.00    +0.157 C 
BRANCH  25  26
ATOM     26  O   UNL     1      -5.096   0.771  -2.269  0.00  0.00    -0.395 OA
ATOM     27  H   UNL     1      -5.964   1.191  -2.200  0.00  0.00    +0.209 HD
ENDBRANCH  25  26
ENDBRANCH  24  25
ENDBRANCH  17  24
TORSDOF 6
