REMARK  Name = ZINC13739516
REMARK  8 active torsions:
REMARK  status: ('A' for Active; 'I' for Inactive)
REMARK    1  A    between atoms: C_1  and  C_2
REMARK    2  A    between atoms: C_4  and  C_28
REMARK    3  A    between atoms: C_5  and  C_26
REMARK    4  A    between atoms: C_6  and  S_8
REMARK    5  A    between atoms: S_8  and  C_9
REMARK    6  A    between atoms: C_9  and  C_10
REMARK    7  A    between atoms: C_10  and  N_12
REMARK    8  A    between atoms: C_18  and  N_23
REMARK                            x       y       z     vdW  Elec       q    Type
REMARK                         _______ _______ _______ _____ _____    ______ ____
ROOT
ATOM      1  C   UNL     1       0.043  -2.019   5.356  0.00  0.00    +0.249 C 
ATOM      2  O   UNL     1       0.052  -3.224   5.519  0.00  0.00    -0.273 OA
ENDROOT
BRANCH   1   3
ATOM      3  N   UNL     1       0.050  -1.207   6.408  0.00  0.00    -0.156 NA
ATOM      4  C   UNL     1      -0.037  -1.710   7.638  0.00  0.00    +0.164 A 
ATOM      5  N   UNL     1      -0.028  -3.016   8.005  0.00  0.00    -0.335 N 
ATOM      6  H   UNL     1       0.050  -3.710   7.332  0.00  0.00    +0.168 HD
ATOM      7  C   UNL     1      -0.129  -3.355   9.341  0.00  0.00    +0.057 A 
ATOM      8  C   UNL     1      -0.140  -4.625   9.934  0.00  0.00    +0.059 A 
ATOM      9  C   UNL     1      -0.249  -4.760  11.299  0.00  0.00    +0.128 A 
ATOM     10  C   UNL     1      -0.352  -3.652  12.123  0.00  0.00    +0.034 A 
ATOM     11  C   UNL     1      -0.344  -2.387  11.563  0.00  0.00    +0.019 A 
ATOM     12  C   UNL     1      -0.234  -2.251  10.199  0.00  0.00    +0.039 A 
ATOM     13  S   UNL     1      -0.177  -0.870   9.087  0.00  0.00    -0.052 S 
BRANCH   9  14
ATOM     14  N   UNL     1      -0.258  -6.114  11.897  0.00  0.00    +0.056 N 
ATOM     15  O   UNL     1      -0.169  -7.089  11.187  0.00  0.00    -0.126 OA
ATOM     16  O   UNL     1      -0.353  -6.245  13.095  0.00  0.00    -0.126 OA
ENDBRANCH   9  14
ENDBRANCH   1   3
BRANCH   1  17
ATOM     17  C   UNL     1       0.022  -1.446   3.962  0.00  0.00    +0.173 C 
BRANCH  17  18
ATOM     18  S   UNL     1       0.016  -2.798   2.753  0.00  0.00    -0.095 S 
BRANCH  18  24
ATOM     19  C   UNL     1      -0.043   1.508   0.013  0.00  0.00    +0.065 C 
ATOM     20  C   UNL     1      -0.035   0.002   0.003  0.00  0.00    +0.040 A 
ATOM     21  C   UNL     1      -0.045  -0.670  -1.206  0.00  0.00    +0.036 A 
ATOM     22  C   UNL     1      -0.036  -2.054  -1.218  0.00  0.00    +0.076 A 
ATOM     23  C   UNL     1      -0.017  -2.729   0.007  0.00  0.00    +0.095 A 
ATOM     24  C   UNL     1      -0.008  -1.976   1.195  0.00  0.00    +0.116 A 
ATOM     25  N   UNL     1      -0.012  -0.653   1.148  0.00  0.00    -0.244 NA
BRANCH  22  26
ATOM     26  C   UNL     1      -0.048  -2.814  -2.519  0.00  0.00    +0.419 C 
ATOM     27  F   UNL     1      -0.067  -1.911  -3.587  0.00  0.00    -0.166 F 
ATOM     28  F   UNL     1       1.099  -3.612  -2.603  0.00  0.00    -0.166 F 
ATOM     29  F   UNL     1      -1.185  -3.626  -2.575  0.00  0.00    -0.166 F 
ENDBRANCH  22  26
BRANCH  23  30
ATOM     30  C   UNL     1      -0.008  -4.160   0.051  0.00  0.00    +0.102 C 
ATOM     31  N   UNL     1      -0.001  -5.296   0.085  0.00  0.00    -0.191 NA
ENDBRANCH  23  30
ENDBRANCH  18  24
ENDBRANCH  17  18
ENDBRANCH   1  17
TORSDOF 7
