REMARK  Name = ZINC40370542
REMARK  7 active torsions:
REMARK  status: ('A' for Active; 'I' for Inactive)
REMARK    1  A    between atoms: C_1  and  C_2
REMARK    2  A    between atoms: C_2  and  C_3
REMARK    3  A    between atoms: C_3  and  C_4
REMARK    4  A    between atoms: C_4  and  C_6
REMARK    5  A    between atoms: C_4  and  N_10
REMARK    6  A    between atoms: N_7  and  O_8
REMARK    7  A    between atoms: C_11  and  C_13
REMARK                            x       y       z     vdW  Elec       q    Type
REMARK                         _______ _______ _______ _____ _____    ______ ____
ROOT
ATOM      1  N   UNL     1       1.551  -2.512   0.092  0.00  0.00    -0.302 N 
ATOM      2  C   UNL     1       1.321  -3.735  -0.427  0.00  0.00    +0.248 C 
ATOM      3  O   UNL     1       0.459  -4.446   0.052  0.00  0.00    -0.270 OA
ATOM      4  H   UNL     1       2.238  -1.944  -0.291  0.00  0.00    +0.150 HD
ENDROOT
BRANCH   2   5
ATOM      5  C   UNL     1       2.114  -4.209  -1.577  0.00  0.00    +0.079 A 
ATOM      6  C   UNL     1       3.109  -3.396  -2.127  0.00  0.00    +0.057 A 
ATOM      7  C   UNL     1       3.850  -3.843  -3.201  0.00  0.00    +0.163 A 
ATOM      8  C   UNL     1       3.610  -5.100  -3.740  0.00  0.00    +0.208 A 
ATOM      9  C   UNL     1       2.623  -5.915  -3.201  0.00  0.00    +0.252 A 
ATOM     10  C   UNL     1       1.877  -5.477  -2.117  0.00  0.00    +0.185 A 
ATOM     11  F   UNL     1       0.921  -6.271  -1.589  0.00  0.00    -0.201 F 
ATOM     12  O   UNL     1       2.392  -7.145  -3.733  0.00  0.00    -0.282 OA
ATOM     13  F   UNL     1       4.338  -5.531  -4.793  0.00  0.00    -0.198 F 
ATOM     14  F   UNL     1       4.811  -3.055  -3.731  0.00  0.00    -0.202 F 
ENDBRANCH   2   5
BRANCH   1  15
ATOM     15  C   UNL     1       0.763  -2.041   1.233  0.00  0.00    +0.140 C 
BRANCH  15  16
ATOM     16  C   UNL     1       1.382  -2.542   2.512  0.00  0.00    +0.152 C 
ATOM     17  N   UNL     1       2.666  -2.648   2.610  0.00  0.00    -0.075 NA
ATOM     18  N   UNL     1       0.580  -2.886   3.577  0.00  0.00    -0.342 N 
ATOM     19  H   UNL     1      -0.384  -2.806   3.504  0.00  0.00    +0.144 HD
ATOM     20  H   UNL     1       0.979  -3.209   4.401  0.00  0.00    +0.144 HD
BRANCH  17  21
ATOM     21  O   UNL     1       3.248  -3.119   3.812  0.00  0.00    -0.408 OA
ATOM     22  H   UNL     1       4.214  -3.164   3.790  0.00  0.00    +0.328 HD
ENDBRANCH  17  21
ENDBRANCH  15  16
BRANCH  15  23
ATOM     23  C   UNL     1       0.742  -0.511   1.242  0.00  0.00    +0.030 C 
BRANCH  23  25
ATOM     24  C   UNL     1      -0.019   1.526   0.010  0.00  0.00    +0.004 C 
ATOM     25  C   UNL     1       0.002  -0.004   0.002  0.00  0.00    -0.001 C 
ENDBRANCH  23  25
ENDBRANCH  15  23
ENDBRANCH   1  15
TORSDOF 6
