REMARK  Name = ZINC33256618
REMARK  13 active torsions:
REMARK  status: ('A' for Active; 'I' for Inactive)
REMARK    1  A    between atoms: C_1  and  C_2
REMARK    2  A    between atoms: C_2  and  C_3
REMARK    3  A    between atoms: C_3  and  N_4
REMARK    4  A    between atoms: C_10  and  C_30
REMARK    5  A    between atoms: C_17  and  S_18
REMARK    6  A    between atoms: S_18  and  C_19
REMARK    7  A    between atoms: C_19  and  C_20
REMARK    8  A    between atoms: N_22  and  C_23
REMARK    9  A    between atoms: C_28  and  C_29
REMARK   10  A    between atoms: N_32  and  C_33
REMARK   11  A    between atoms: C_33  and  C_35
REMARK   12  A    between atoms: C_33  and  C_36
REMARK   13  A    between atoms: C_36  and  C_37
REMARK                            x       y       z     vdW  Elec       q    Type
REMARK                         _______ _______ _______ _____ _____    ______ ____
ROOT
ATOM      1  N   UNL     1       0.810   0.462   6.242  0.00  0.00    -0.277 N 
ATOM      2  C   UNL     1      -0.123   1.126   6.954  0.00  0.00    +0.263 A 
ATOM      3  O   UNL     1      -0.102   1.109   8.170  0.00  0.00    -0.267 OA
ATOM      4  C   UNL     1      -1.178   1.865   6.232  0.00  0.00    +0.064 A 
ATOM      5  C   UNL     1      -2.171   2.559   6.920  0.00  0.00    +0.016 A 
ATOM      6  C   UNL     1      -3.142   3.240   6.220  0.00  0.00    +0.014 A 
ATOM      7  C   UNL     1      -3.134   3.236   4.822  0.00  0.00    +0.039 A 
ATOM      8  C   UNL     1      -2.144   2.544   4.128  0.00  0.00    +0.040 A 
ATOM      9  C   UNL     1      -1.165   1.858   4.829  0.00  0.00    +0.065 A 
ATOM     10  N   UNL     1      -0.164   1.157   4.158  0.00  0.00    -0.256 N 
ATOM     11  C   UNL     1       0.798   0.478   4.856  0.00  0.00    +0.240 A 
ATOM     12  N   UNL     1       1.607  -0.080   3.985  0.00  0.00    -0.109 NA
ATOM     13  N   UNL     1       1.154   0.242   2.700  0.00  0.00    -0.120 NA
ATOM     14  C   UNL     1       0.082   0.987   2.823  0.00  0.00    +0.198 A 
ENDROOT
BRANCH   7  15
ATOM     15  C   UNL     1      -4.181   3.970   4.076  0.00  0.00    +0.244 C 
ATOM     16  O   UNL     1      -4.176   3.968   2.861  0.00  0.00    -0.270 OA
ATOM     17  N   UNL     1      -5.140   4.640   4.745  0.00  0.00    -0.309 N 
ATOM     18  H   UNL     1      -5.145   4.641   5.845  0.00  0.00    +0.149 HD
BRANCH  17  19
ATOM     19  C   UNL     1      -6.177   5.366   4.007  0.00  0.00    +0.070 C 
ATOM     20  C   UNL     1      -5.662   6.760   3.644  0.00  0.00    +0.028 C 
BRANCH  19  21
ATOM     21  C   UNL     1      -7.428   5.496   4.879  0.00  0.00    +0.018 C 
ATOM     22  C   UNL     1      -8.014   4.107   5.139  0.00  0.00    +0.005 C 
ENDBRANCH  19  21
ENDBRANCH  17  19
ENDBRANCH   7  15
BRANCH   1  23
ATOM     23  C   UNL     1       1.864  -0.274   6.945  0.00  0.00    +0.128 C 
BRANCH  23  25
ATOM     24  C   UNL     1       4.155  -0.115   7.930  0.00  0.00    +0.005 C 
ATOM     25  C   UNL     1       3.054   0.654   7.196  0.00  0.00    +0.018 C 
ENDBRANCH  23  25
ENDBRANCH   1  23
BRANCH  14  26
ATOM     26  S   UNL     1      -0.871   1.656   1.501  0.00  0.00    -0.076 S 
BRANCH  26  27
ATOM     27  C   UNL     1      -0.021   1.073   0.008  0.00  0.00    +0.173 C 
BRANCH  27  28
ATOM     28  C   UNL     1      -0.743   1.582  -1.213  0.00  0.00    +0.227 C 
ATOM     29  O   UNL     1      -1.734   2.271  -1.088  0.00  0.00    -0.275 OA
ATOM     30  N   UNL     1      -0.288   1.272  -2.443  0.00  0.00    -0.285 N 
ATOM     31  H   UNL     1       0.659   0.725  -2.558  0.00  0.00    +0.155 HD
BRANCH  30  32
ATOM     32  C   UNL     1      -1.022   1.646  -3.575  0.00  0.00    +0.036 A 
ATOM     33  C   UNL     1      -2.392   1.853  -3.479  0.00  0.00    +0.023 A 
ATOM     34  C   UNL     1      -3.112   2.226  -4.597  0.00  0.00    +0.002 A 
ATOM     35  C   UNL     1      -2.471   2.386  -5.812  0.00  0.00    +0.000 A 
ATOM     36  C   UNL     1      -1.108   2.176  -5.912  0.00  0.00    +0.005 A 
ATOM     37  C   UNL     1      -0.382   1.807  -4.796  0.00  0.00    -0.029 A 
ATOM     38  C   UNL     1       1.104   1.578  -4.906  0.00  0.00    +0.045 C 
ENDBRANCH  30  32
ENDBRANCH  27  28
ENDBRANCH  26  27
ENDBRANCH  14  26
TORSDOF 9
