REMARK  Name = ZINC46016010
REMARK  6 active torsions:
REMARK  status: ('A' for Active; 'I' for Inactive)
REMARK    1  A    between atoms: C_1  and  C_2
REMARK    2  A    between atoms: C_4  and  N_8
REMARK    3  A    between atoms: N_5  and  C_7
REMARK    4  A    between atoms: C_9  and  C_11
REMARK    5  A    between atoms: C_13  and  C_17
REMARK    6  A    between atoms: C_15  and  C_16
REMARK                            x       y       z     vdW  Elec       q    Type
REMARK                         _______ _______ _______ _____ _____    ______ ____
ROOT
ATOM      1  N   UNL     1       0.039  -3.239  -1.543  0.00  0.00    -0.267 N 
ATOM      2  C   UNL     1       0.031  -3.096  -2.883  0.00  0.00    +0.250 C 
ATOM      3  O   UNL     1       0.014  -1.985  -3.376  0.00  0.00    -0.270 OA
ATOM      4  H   UNL     1       0.052  -4.126  -1.149  0.00  0.00    +0.157 HD
ENDROOT
BRANCH   1   8
ATOM      5  C   UNL     1      -0.018   1.503   0.010  0.00  0.00    +0.067 C 
ATOM      6  C   UNL     1       0.002  -0.004   0.002  0.00  0.00    +0.062 A 
ATOM      7  C   UNL     1       0.008  -0.816  -1.135  0.00  0.00    +0.068 A 
ATOM      8  C   UNL     1       0.027  -2.113  -0.722  0.00  0.00    +0.123 A 
ATOM      9  N   UNL     1       0.034  -2.110   0.631  0.00  0.00    -0.253 N 
ATOM     10  N   UNL     1       0.023  -0.776   1.058  0.00  0.00    -0.175 NA
ATOM     11  C   UNL     1       0.053  -3.292   1.496  0.00  0.00    +0.174 C 
ENDBRANCH   1   8
BRANCH   2  12
ATOM     12  C   UNL     1       0.042  -4.286  -3.750  0.00  0.00    +0.047 A 
ATOM     13  C   UNL     1       0.056  -5.620  -3.201  0.00  0.00    +0.024 A 
ATOM     14  C   UNL     1       0.066  -6.623  -4.101  0.00  0.00    -0.012 A 
ATOM     15  S   UNL     1       0.056  -5.766  -5.661  0.00  0.00    -0.098 S 
ATOM     16  C   UNL     1       0.035  -4.177  -5.122  0.00  0.00    -0.001 A 
ATOM     17  C   UNL     1       0.015  -2.919  -5.951  0.00  0.00    +0.052 C 
ATOM     18  C   UNL     1       0.081  -8.109  -3.849  0.00  0.00    +0.051 C 
ENDBRANCH   2  12
TORSDOF 2
