REMARK  Name = ZINC04210051
REMARK  6 active torsions:
REMARK  status: ('A' for Active; 'I' for Inactive)
REMARK    1  A    between atoms: C_6  and  C_7
REMARK    2  A    between atoms: C_10  and  C_12
REMARK    3  A    between atoms: N_13  and  N_14
REMARK    4  A    between atoms: N_14  and  C_15
REMARK    5  A    between atoms: C_15  and  N_17
REMARK    6  A    between atoms: N_17  and  C_18
REMARK                            x       y       z     vdW  Elec       q    Type
REMARK                         _______ _______ _______ _____ _____    ______ ____
ROOT
ATOM      1  C   UNL     1      -1.214   2.216   0.020  0.00  0.00    +0.176 C 
ATOM      2  N   UNL     1      -1.097   3.513   0.027  0.00  0.00    -0.185 NA
ENDROOT
BRANCH   1   6
ATOM      3  C   UNL     1       2.093   0.752  -0.014  0.00  0.00    +0.136 A 
ATOM      4  C   UNL     1       1.349  -0.390  -0.013  0.00  0.00    +0.050 A 
ATOM      5  C   UNL     1       0.002  -0.004   0.002  0.00  0.00    +0.051 A 
ATOM      6  C   UNL     1      -0.017   1.373   0.010  0.00  0.00    +0.148 A 
ATOM      7  O   UNL     1       1.259   1.810  -0.000  0.00  0.00    -0.454 OA
BRANCH   3  13
ATOM      8  C   UNL     1       4.323  -0.356  -0.037  0.00  0.00    +0.012 A 
ATOM      9  C   UNL     1       5.700  -0.286  -0.055  0.00  0.00    +0.016 A 
ATOM     10  C   UNL     1       6.335   0.945  -0.054  0.00  0.00    +0.018 A 
ATOM     11  C   UNL     1       5.592   2.113  -0.041  0.00  0.00    +0.016 A 
ATOM     12  C   UNL     1       4.214   2.058  -0.028  0.00  0.00    +0.012 A 
ATOM     13  C   UNL     1       3.568   0.819  -0.028  0.00  0.00    +0.017 A 
ATOM     14 BR   UNL     1       8.224   1.030  -0.071  0.00  0.00    -0.050 Br
ENDBRANCH   3  13
ENDBRANCH   1   6
BRANCH   2  15
ATOM     15  N   UNL     1      -2.242   4.320   0.037  0.00  0.00    -0.218 N 
ATOM     16  H   UNL     1      -3.122   3.912   0.039  0.00  0.00    +0.176 HD
BRANCH  15  17
ATOM     17  C   UNL     1      -2.120   5.662   0.043  0.00  0.00    +0.150 C 
ATOM     18  S   UNL     1      -3.520   6.648   0.056  0.00  0.00    -0.017 S 
BRANCH  17  19
ATOM     19  N   UNL     1      -0.897   6.228   0.040  0.00  0.00    -0.322 N 
ATOM     20  H   UNL     1      -0.104   5.669   0.033  0.00  0.00    +0.148 HD
BRANCH  19  21
ATOM     21  C   UNL     1      -0.765   7.687   0.048  0.00  0.00    +0.072 C 
ATOM     22  C   UNL     1      -0.852   8.214  -1.386  0.00  0.00    +0.022 C 
ATOM     23  C   UNL     1      -0.714   9.738  -1.379  0.00  0.00    +0.002 C 
ATOM     24  C   UNL     1       0.637  10.125  -0.773  0.00  0.00    +0.000 C 
ATOM     25  C   UNL     1       0.724   9.598   0.660  0.00  0.00    +0.002 C 
ATOM     26  C   UNL     1       0.586   8.074   0.653  0.00  0.00    +0.022 C 
ENDBRANCH  19  21
ENDBRANCH  17  19
ENDBRANCH  15  17
ENDBRANCH   2  15
TORSDOF 6
