REMARK  Name = ZINC04535156
REMARK  6 active torsions:
REMARK  status: ('A' for Active; 'I' for Inactive)
REMARK    1  A    between atoms: C_1  and  O_2
REMARK    2  A    between atoms: O_2  and  C_3
REMARK    3  A    between atoms: C_7  and  C_11
REMARK    4  A    between atoms: C_8  and  O_9
REMARK    5  A    between atoms: O_9  and  C_10
REMARK    6  A    between atoms: C_26  and  C_31
REMARK                            x       y       z     vdW  Elec       q    Type
REMARK                         _______ _______ _______ _____ _____    ______ ____
ROOT
ATOM      1  C   UNL     1       2.500   7.991  -0.505  0.00  0.00    +0.108 C 
ATOM      2  C   UNL     1       3.559   7.096  -1.053  0.00  0.00    +0.025 C 
ATOM      3  C   UNL     1       4.917   7.594  -1.544  0.00  0.00    -0.005 C 
ATOM      4  C   UNL     1       5.170   6.579  -2.724  0.00  0.00    +0.004 C 
ATOM      5  C   UNL     1       5.220   5.213  -1.996  0.00  0.00    +0.004 C 
ATOM      6  C   UNL     1       5.260   5.521  -0.475  0.00  0.00    -0.003 C 
ATOM      7  C   UNL     1       5.929   6.959  -0.513  0.00  0.00    +0.008 C 
ATOM      8  C   UNL     1       3.875   5.985  -0.012  0.00  0.00    +0.029 C 
ATOM      9  C   UNL     1       2.709   5.069  -0.101  0.00  0.00    -0.022 A 
ATOM     10  C   UNL     1       2.782   3.709  -0.156  0.00  0.00    +0.020 A 
ATOM     11  C   UNL     1       1.606   2.956  -0.271  0.00  0.00    +0.064 A 
ATOM     12  C   UNL     1       0.370   3.609  -0.317  0.00  0.00    +0.017 A 
ATOM     13  C   UNL     1       0.302   4.971  -0.251  0.00  0.00    +0.024 A 
ATOM     14  C   UNL     1       1.462   5.730  -0.136  0.00  0.00    +0.031 A 
ATOM     15  N   UNL     1       1.397   7.117  -0.039  0.00  0.00    -0.336 N 
ATOM     16  H   UNL     1       0.606   7.525   0.346  0.00  0.00    +0.147 HD
ENDROOT
BRANCH   1  21
ATOM     17  C   UNL     1       0.829  10.910  -2.242  0.00  0.00    +0.162 A 
ATOM     18  C   UNL     1       1.087  10.618  -3.571  0.00  0.00    +0.049 A 
ATOM     19  C   UNL     1       1.799   9.481  -3.904  0.00  0.00    +0.004 A 
ATOM     20  C   UNL     1       2.260   8.636  -2.912  0.00  0.00    +0.009 A 
ATOM     21  C   UNL     1       2.001   8.918  -1.584  0.00  0.00    +0.018 A 
ATOM     22  C   UNL     1       1.288  10.056  -1.244  0.00  0.00    +0.166 A 
BRANCH  17  24
ATOM     23  C   UNL     1      -0.311  12.858  -2.990  0.00  0.00    +0.277 C 
ATOM     24  O   UNL     1       0.128  12.028  -1.913  0.00  0.00    -0.491 OA
ENDBRANCH  17  24
BRANCH  22  25
ATOM     25  O   UNL     1       1.038  10.338   0.063  0.00  0.00    -0.491 OA
ATOM     26  C   UNL     1       1.944  11.227   0.720  0.00  0.00    +0.277 C 
ENDBRANCH  22  25
ENDBRANCH   1  21
BRANCH  11  27
ATOM     27  C   UNL     1       1.671   1.485  -0.336  0.00  0.00    +0.387 C 
ATOM     28  O   UNL     1       2.746   0.921  -0.296  0.00  0.00    -0.241 OA
ATOM     29  O   UNL     1       0.536   0.764  -0.441  0.00  0.00    -0.241 OA
ENDBRANCH  11  27
TORSDOF 4
