REMARK  Name = ZINC39659553
REMARK  8 active torsions:
REMARK  status: ('A' for Active; 'I' for Inactive)
REMARK    1  A    between atoms: C_1  and  C_2
REMARK    2  A    between atoms: C_2  and  C_38
REMARK    3  A    between atoms: C_5  and  C_8
REMARK    4  A    between atoms: C_8  and  N_9
REMARK    5  A    between atoms: C_10  and  C_12
REMARK    6  A    between atoms: C_23  and  C_25
REMARK    7  A    between atoms: C_30  and  S_31
REMARK    8  A    between atoms: S_31  and  C_32
REMARK                            x       y       z     vdW  Elec       q    Type
REMARK                         _______ _______ _______ _____ _____    ______ ____
ROOT
ATOM      1  C   UNL     1       3.017  -2.664   5.318  0.00  0.00    +0.100 C 
ATOM      2  C   UNL     1       2.233  -1.937   6.434  0.00  0.00    +0.121 C 
ATOM      3  N   UNL     1       1.908  -2.998   7.415  0.00  0.00    -0.296 N 
ATOM      4  C   UNL     1       3.125  -3.844   7.461  0.00  0.00    +0.115 C 
ATOM      5  C   UNL     1       3.604  -3.913   5.997  0.00  0.00    -0.004 C 
ATOM      6  C   UNL     1       5.128  -3.880   5.938  0.00  0.00    -0.010 C 
ATOM      7  C   UNL     1       5.687  -5.159   6.567  0.00  0.00    -0.082 C 
ATOM      8  N   UNL     1       5.174  -6.328   5.842  0.00  0.00    +0.379 N 
ATOM      9  C   UNL     1       3.715  -6.404   5.982  0.00  0.00    -0.082 C 
ATOM     10  C   UNL     1       3.073  -5.177   5.328  0.00  0.00    -0.010 C 
ATOM     11  C   UNL     1       0.765  -3.158   8.110  0.00  0.00    +0.249 C 
ATOM     12  O   UNL     1      -0.187  -2.433   7.892  0.00  0.00    -0.270 OA
ATOM     13  H   UNL     1       5.413  -6.247   4.865  0.00  0.00    -0.086 HD
ATOM     14  H   UNL     1       5.591  -7.165   6.219  0.00  0.00    -0.086 HD
ENDROOT
BRANCH  11  15
ATOM     15  C   UNL     1       0.667  -4.213   9.136  0.00  0.00    +0.069 A 
ATOM     16  C   UNL     1       1.776  -4.550   9.919  0.00  0.00    +0.017 A 
ATOM     17  C   UNL     1       1.633  -5.547  10.868  0.00  0.00    +0.020 A 
ATOM     18  C   UNL     1       0.409  -6.177  11.015  0.00  0.00    +0.112 A 
ATOM     19  N   UNL     1      -0.625  -5.845  10.268  0.00  0.00    -0.248 NA
ATOM     20  C   UNL     1      -0.544  -4.894   9.348  0.00  0.00    +0.114 A 
BRANCH  20  21
ATOM     21  S   UNL     1      -1.960  -4.488   8.382  0.00  0.00    -0.069 S 
BRANCH  21  22
ATOM     22  C   UNL     1      -3.170  -5.669   8.879  0.00  0.00    +0.014 A 
ATOM     23  C   UNL     1      -4.093  -5.346   9.866  0.00  0.00    +0.015 A 
ATOM     24  C   UNL     1      -5.040  -6.274  10.253  0.00  0.00    +0.001 A 
ATOM     25  C   UNL     1      -5.069  -7.523   9.660  0.00  0.00    +0.000 A 
ATOM     26  C   UNL     1      -4.151  -7.848   8.678  0.00  0.00    +0.001 A 
ATOM     27  C   UNL     1      -3.205  -6.923   8.282  0.00  0.00    +0.015 A 
ENDBRANCH  21  22
ENDBRANCH  20  21
ENDBRANCH  11  15
BRANCH   1  29
ATOM     28  N   UNL     1       2.549  -3.130   2.934  0.00  0.00    -0.312 N 
ATOM     29  C   UNL     1       2.089  -3.062   4.199  0.00  0.00    +0.218 C 
ATOM     30  O   UNL     1       0.929  -3.322   4.437  0.00  0.00    -0.275 OA
ATOM     31  H   UNL     1       3.478  -2.922   2.744  0.00  0.00    +0.149 HD
BRANCH  28  32
ATOM     32  C   UNL     1       1.648  -3.517   1.846  0.00  0.00    +0.138 C 
BRANCH  32  37
ATOM     33  C   UNL     1       4.687  -5.055  -1.502  0.00  0.00    +0.074 C 
ATOM     34  C   UNL     1       3.298  -5.143  -0.868  0.00  0.00    +0.165 C 
ATOM     35  O   UNL     1       2.365  -4.368  -1.640  0.00  0.00    -0.347 OA
ATOM     36  C   UNL     1       1.460  -3.798  -0.664  0.00  0.00    +0.196 C 
ATOM     37  C   UNL     1       2.415  -3.515   0.523  0.00  0.00    +0.164 C 
ATOM     38  O   UNL     1       3.342  -4.617   0.465  0.00  0.00    -0.342 OA
ATOM     39  C   UNL     1       2.841  -6.603  -0.829  0.00  0.00    +0.074 C 
ENDBRANCH  32  37
ENDBRANCH  28  32
ENDBRANCH   1  29
TORSDOF 6
