REMARK  Name = ZINC39637290
REMARK  7 active torsions:
REMARK  status: ('A' for Active; 'I' for Inactive)
REMARK    1  A    between atoms: C_1  and  C_2
REMARK    2  A    between atoms: C_3  and  C_15
REMARK    3  A    between atoms: C_4  and  C_7
REMARK    4  A    between atoms: C_19  and  C_28
REMARK    5  A    between atoms: N_30  and  C_31
REMARK    6  A    between atoms: C_36  and  C_41
REMARK    7  A    between atoms: C_38  and  C_40
REMARK                            x       y       z     vdW  Elec       q    Type
REMARK                         _______ _______ _______ _____ _____    ______ ____
ROOT
ATOM      1  C   UNL     1      -2.534  -0.359   0.205  0.00  0.00    +0.252 C 
ATOM      2  O   UNL     1      -3.252  -0.261  -0.772  0.00  0.00    -0.270 OA
ATOM      3  N   UNL     1      -3.022  -0.083   1.431  0.00  0.00    -0.296 N 
ATOM      4  C   UNL     1      -2.340  -0.241   2.737  0.00  0.00    +0.121 C 
ATOM      5  C   UNL     1      -2.772   0.997   3.554  0.00  0.00    +0.100 C 
ATOM      6  C   UNL     1      -4.100   1.442   2.921  0.00  0.00    -0.004 C 
ATOM      7  C   UNL     1      -4.361   0.452   1.776  0.00  0.00    +0.115 C 
ATOM      8  C   UNL     1      -3.974   2.858   2.367  0.00  0.00    -0.010 C 
ATOM      9  C   UNL     1      -5.323   3.299   1.793  0.00  0.00    -0.082 C 
ATOM     10  N   UNL     1      -6.343   3.254   2.848  0.00  0.00    +0.379 N 
ATOM     11  C   UNL     1      -6.525   1.873   3.310  0.00  0.00    -0.082 C 
ATOM     12  C   UNL     1      -5.226   1.371   3.948  0.00  0.00    -0.010 C 
ATOM     13  H   UNL     1      -6.051   3.831   3.622  0.00  0.00    -0.086 HD
ATOM     14  H   UNL     1      -7.217   3.603   2.483  0.00  0.00    -0.086 HD
ENDROOT
BRANCH   1  17
ATOM     15  C   UNL     1      -0.143   1.493  -0.583  0.00  0.00    +0.090 C 
ATOM     16  C   UNL     1      -0.077   0.015  -0.294  0.00  0.00    +0.147 A 
ATOM     17  C   UNL     1      -1.131  -0.779   0.049  0.00  0.00    +0.106 A 
ATOM     18  C   UNL     1      -0.596  -2.137   0.233  0.00  0.00    +0.130 A 
ATOM     19  N   UNL     1       0.691  -2.074  -0.001  0.00  0.00    -0.077 NA
ATOM     20  O   UNL     1       1.023  -0.741  -0.335  0.00  0.00    -0.359 OA
BRANCH  18  21
ATOM     21  C   UNL     1      -1.366  -3.346   0.612  0.00  0.00    +0.058 A 
ATOM     22  C   UNL     1      -2.530  -3.682  -0.082  0.00  0.00    +0.134 A 
ATOM     23  C   UNL     1      -3.243  -4.810   0.277  0.00  0.00    +0.039 A 
ATOM     24  C   UNL     1      -2.806  -5.605   1.320  0.00  0.00    +0.004 A 
ATOM     25  C   UNL     1      -1.654  -5.277   2.012  0.00  0.00    +0.021 A 
ATOM     26  C   UNL     1      -0.928  -4.155   1.660  0.00  0.00    +0.053 A 
ATOM     27 CL   UNL     1       0.521  -3.751   2.525  0.00  0.00    -0.083 Cl
ATOM     28  F   UNL     1      -2.958  -2.905  -1.102  0.00  0.00    -0.205 F 
ENDBRANCH  18  21
ENDBRANCH   1  17
BRANCH   5  29
ATOM     29  C   UNL     1      -1.740   2.090   3.437  0.00  0.00    +0.218 C 
ATOM     30  O   UNL     1      -1.134   2.242   2.397  0.00  0.00    -0.275 OA
ATOM     31  N   UNL     1      -1.491   2.897   4.487  0.00  0.00    -0.312 N 
ATOM     32  H   UNL     1      -1.921   2.730   5.340  0.00  0.00    +0.149 HD
BRANCH  31  33
ATOM     33  C   UNL     1      -0.569   4.026   4.340  0.00  0.00    +0.076 C 
ATOM     34  C   UNL     1       0.873   3.525   4.451  0.00  0.00    +0.022 C 
ATOM     35  C   UNL     1       1.835   4.704   4.298  0.00  0.00    +0.002 C 
ATOM     36  C   UNL     1       1.566   5.730   5.401  0.00  0.00    +0.003 C 
ATOM     37  C   UNL     1       0.124   6.230   5.290  0.00  0.00    -0.009 C 
ATOM     38  C   UNL     1      -0.839   5.051   5.444  0.00  0.00    +0.009 C 
ATOM     39  C   UNL     1      -0.630   4.396   6.811  0.00  0.00    +0.009 C 
ATOM     40  C   UNL     1      -0.146   7.256   6.393  0.00  0.00    +0.008 C 
ENDBRANCH  31  33
ENDBRANCH   5  29
TORSDOF 4
