REMARK  Name = ZINC19911906
REMARK  5 active torsions:
REMARK  status: ('A' for Active; 'I' for Inactive)
REMARK    1  A    between atoms: C_7  and  C_18
REMARK    2  A    between atoms: C_9  and  C_11
REMARK    3  A    between atoms: N_20  and  N_21
REMARK    4  A    between atoms: C_22  and  C_23
REMARK    5  A    between atoms: C_27  and  N_29
REMARK                            x       y       z     vdW  Elec       q    Type
REMARK                         _______ _______ _______ _____ _____    ______ ____
ROOT
ATOM      1  C   UNL     1      -6.053  10.313  -0.203  0.00  0.00    +0.001 A 
ATOM      2  C   UNL     1      -6.013  11.705  -0.191  0.00  0.00    +0.002 A 
ATOM      3  C   UNL     1      -4.832  12.374  -0.095  0.00  0.00    +0.028 A 
ATOM      4  C   UNL     1      -3.627  11.652  -0.006  0.00  0.00    +0.072 A 
ATOM      5  C   UNL     1      -3.674  10.235  -0.023  0.00  0.00    +0.013 A 
ATOM      6  C   UNL     1      -4.907   9.580  -0.118  0.00  0.00    +0.011 A 
ATOM      7  C   UNL     1      -2.418   9.490   0.076  0.00  0.00    +0.050 A 
ATOM      8  C   UNL     1      -1.246  10.228   0.172  0.00  0.00    +0.042 A 
ATOM      9  C   UNL     1      -1.312  11.629   0.175  0.00  0.00    +0.072 A 
ATOM     10  N   UNL     1      -2.454  12.279   0.090  0.00  0.00    -0.247 NA
ENDROOT
BRANCH   9  11
ATOM     11  C   UNL     1      -0.053  12.404   0.278  0.00  0.00    +0.000 A 
ATOM     12  C   UNL     1       1.170  11.742   0.376  0.00  0.00    +0.011 A 
ATOM     13  C   UNL     1       2.340  12.469   0.466  0.00  0.00    +0.020 A 
ATOM     14  C   UNL     1       2.299  13.853   0.471  0.00  0.00    +0.041 A 
ATOM     15  C   UNL     1       1.086  14.515   0.380  0.00  0.00    +0.020 A 
ATOM     16  C   UNL     1      -0.088  13.798   0.284  0.00  0.00    +0.011 A 
ATOM     17 CL   UNL     1       3.773  14.761   0.593  0.00  0.00    -0.084 Cl
ENDBRANCH   9  11
BRANCH   7  18
ATOM     18  C   UNL     1      -2.398   8.012   0.068  0.00  0.00    +0.264 C 
ATOM     19  O   UNL     1      -3.442   7.390   0.087  0.00  0.00    -0.268 OA
ATOM     20  N   UNL     1      -1.222   7.354   0.038  0.00  0.00    -0.203 N 
ATOM     21  H   UNL     1      -0.277   7.917   0.021  0.00  0.00    +0.178 HD
BRANCH  20  22
ATOM     22  N   UNL     1      -1.203   5.953   0.031  0.00  0.00    -0.187 NA
ATOM     23  C   UNL     1      -0.071   5.320   0.003  0.00  0.00    +0.138 C 
BRANCH  23  24
ATOM     24  C   UNL     1      -0.051   3.845  -0.005  0.00  0.00    -0.003 A 
ATOM     25  C   UNL     1      -1.249   3.127   0.018  0.00  0.00    +0.009 A 
ATOM     26  C   UNL     1      -1.222   1.748   0.004  0.00  0.00    +0.003 A 
ATOM     27  C   UNL     1      -0.013   1.076  -0.020  0.00  0.00    +0.033 A 
ATOM     28  C   UNL     1       1.177   1.781  -0.042  0.00  0.00    +0.127 A 
ATOM     29  C   UNL     1       1.166   3.160  -0.035  0.00  0.00    +0.042 A 
BRANCH  28  30
ATOM     30  N   UNL     1       2.466   1.053  -0.074  0.00  0.00    +0.056 N 
ATOM     31  O   UNL     1       2.477  -0.165  -0.081  0.00  0.00    -0.126 OA
ATOM     32  O   UNL     1       3.515   1.672  -0.094  0.00  0.00    -0.126 OA
ENDBRANCH  28  30
ENDBRANCH  23  24
ENDBRANCH  20  22
ENDBRANCH   7  18
TORSDOF 5
