REMARK  Name = ZINC27360825
REMARK  8 active torsions:
REMARK  status: ('A' for Active; 'I' for Inactive)
REMARK    1  A    between atoms: C_1  and  C_2
REMARK    2  A    between atoms: C_2  and  C_4
REMARK    3  A    between atoms: C_2  and  N_14
REMARK    4  A    between atoms: N_10  and  C_11
REMARK    5  A    between atoms: N_10  and  C_12
REMARK    6  A    between atoms: N_17  and  C_20
REMARK    7  A    between atoms: C_20  and  C_21
REMARK    8  A    between atoms: C_25  and  C_27
REMARK                            x       y       z     vdW  Elec       q    Type
REMARK                         _______ _______ _______ _____ _____    ______ ____
ROOT
ATOM      1  N   UNL     1       2.534   6.281   5.063  0.00  0.00    +0.388 N 
ATOM      2  C   UNL     1       1.556   6.040   6.133  0.00  0.00    -0.062 C 
ATOM      3  C   UNL     1       1.158   4.562   6.133  0.00  0.00    +0.066 C 
ATOM      4  N   UNL     1       0.598   4.208   4.822  0.00  0.00    -0.302 NA
ATOM      5  C   UNL     1       1.576   4.449   3.752  0.00  0.00    +0.066 C 
ATOM      6  C   UNL     1       1.974   5.927   3.752  0.00  0.00    -0.062 C 
ATOM      7  H   UNL     1       3.405   5.634   5.247  0.00  0.00    -0.081 HD
ENDROOT
BRANCH   1   9
ATOM      8  C   UNL     1       3.659   7.977   6.425  0.00  0.00    -0.005 C 
ATOM      9  C   UNL     1       2.998   7.675   5.079  0.00  0.00    -0.002 C 
BRANCH   9  10
ATOM     10  C   UNL     1       3.998   7.884   3.971  0.00  0.00    +0.123 A 
ATOM     11  N   UNL     1       4.957   6.997   3.773  0.00  0.00    -0.201 NA
ATOM     12  C   UNL     1       5.839   7.175   2.792  0.00  0.00    +0.217 A 
ATOM     13  N   UNL     1       5.760   8.252   2.018  0.00  0.00    -0.181 NA
ATOM     14  C   UNL     1       4.797   9.144   2.223  0.00  0.00    +0.222 A 
ATOM     15  N   UNL     1       3.916   8.956   3.203  0.00  0.00    -0.201 NA
ATOM     16  N   UNL     1       4.711  10.264   1.421  0.00  0.00    -0.306 N 
ATOM     17  C   UNL     1       3.648  11.247   1.648  0.00  0.00    +0.132 C 
ATOM     18  C   UNL     1       5.681  10.470   0.343  0.00  0.00    +0.132 C 
ATOM     19  N   UNL     1       6.838   6.246   2.583  0.00  0.00    -0.327 N 
ATOM     20  H   UNL     1       7.566   6.394   1.772  0.00  0.00    +0.145 HD
ATOM     21  H   UNL     1       6.905   5.356   3.227  0.00  0.00    +0.145 HD
ENDBRANCH   9  10
ENDBRANCH   1   9
BRANCH   4  22
ATOM     22  C   UNL     1       0.133   2.815   4.806  0.00  0.00    +0.119 C 
BRANCH  22  23
ATOM     23  C   UNL     1      -0.650   2.560   3.544  0.00  0.00    -0.033 A 
ATOM     24  C   UNL     1      -2.016   2.773   3.524  0.00  0.00    +0.005 A 
ATOM     25  C   UNL     1      -2.735   2.540   2.366  0.00  0.00    +0.001 A 
ATOM     26  C   UNL     1      -2.087   2.098   1.228  0.00  0.00    +0.012 A 
ATOM     27  C   UNL     1      -0.722   1.881   1.250  0.00  0.00    +0.055 A 
ATOM     28  C   UNL     1      -0.003   2.115   2.407  0.00  0.00    +0.017 A 
BRANCH  27  29
ATOM     29  C   UNL     1      -0.017   1.395   0.010  0.00  0.00    +0.417 C 
ATOM     30  F   UNL     1       0.002  -0.004   0.002  0.00  0.00    -0.166 F 
ATOM     31  F   UNL     1       1.296   1.879  -0.000  0.00  0.00    -0.166 F 
ATOM     32  F   UNL     1      -0.694   1.858  -1.124  0.00  0.00    -0.166 F 
ENDBRANCH  27  29
ENDBRANCH  22  23
ENDBRANCH   4  22
TORSDOF 5
