REMARK  Name = ZINC50136607
REMARK  6 active torsions:
REMARK  status: ('A' for Active; 'I' for Inactive)
REMARK    1  A    between atoms: C_2  and  C_3
REMARK    2  A    between atoms: C_3  and  N_4
REMARK    3  A    between atoms: C_5  and  C_7
REMARK    4  A    between atoms: C_7  and  C_8
REMARK    5  A    between atoms: C_8  and  N_9
REMARK    6  A    between atoms: N_12  and  N_13
REMARK                            x       y       z     vdW  Elec       q    Type
REMARK                         _______ _______ _______ _____ _____    ______ ____
ROOT
ATOM      1  N   UNL     1       4.352   5.862  -0.008  0.00  0.00    -0.298 N 
ATOM      2  C   UNL     1       4.580   7.190  -0.003  0.00  0.00    +0.316 C 
ATOM      3  O   UNL     1       3.646   7.967   0.010  0.00  0.00    -0.251 OA
ATOM      4  N   UNL     1       5.845   7.657  -0.013  0.00  0.00    -0.219 N 
ATOM      5  H   UNL     1       5.098   5.241  -0.018  0.00  0.00    +0.150 HD
ATOM      6  H   UNL     1       6.009   8.612  -0.009  0.00  0.00    +0.174 HD
ENDROOT
BRANCH   4   7
ATOM      7  N   UNL     1       6.922   6.761  -0.028  0.00  0.00    -0.246 N 
ATOM      8  C   UNL     1       8.227   7.242  -0.038  0.00  0.00    +0.155 A 
ATOM      9  C   UNL     1       9.292   6.346  -0.058  0.00  0.00    +0.083 A 
ATOM     10  C   UNL     1      10.586   6.838  -0.069  0.00  0.00    +0.046 A 
ATOM     11  C   UNL     1      10.772   8.215  -0.057  0.00  0.00    +0.079 A 
ATOM     12  C   UNL     1       9.667   9.047  -0.037  0.00  0.00    +0.150 A 
ATOM     13  N   UNL     1       8.444   8.548  -0.033  0.00  0.00    -0.216 NA
ATOM     14 CL   UNL     1       9.891  10.768  -0.022  0.00  0.00    -0.060 Cl
ATOM     15 CL   UNL     1      12.374   8.884  -0.069  0.00  0.00    -0.080 Cl
ATOM     16 CL   UNL     1       9.002   4.635  -0.071  0.00  0.00    -0.080 Cl
ATOM     17  H   UNL     1       6.758   5.805  -0.031  0.00  0.00    +0.172 HD
ENDBRANCH   4   7
BRANCH   1  18
ATOM     18  C   UNL     1       2.978   5.355   0.002  0.00  0.00    +0.115 C 
BRANCH  18  19
ATOM     19  C   UNL     1       2.999   3.825  -0.006  0.00  0.00    +0.114 C 
BRANCH  19  21
ATOM     20  N   UNL     1       1.357   1.975  -0.000  0.00  0.00    -0.304 N 
ATOM     21  C   UNL     1       1.585   3.303   0.005  0.00  0.00    +0.215 C 
ATOM     22  O   UNL     1       0.652   4.079   0.018  0.00  0.00    -0.276 OA
ATOM     23  H   UNL     1       2.102   1.355  -0.011  0.00  0.00    +0.150 HD
BRANCH  20  24
ATOM     24  C   UNL     1      -0.018   1.468   0.010  0.00  0.00    +0.193 C 
BRANCH  24  26
ATOM     25  C   UNL     1       0.018  -1.178  -0.004  0.00  0.00    +0.005 C 
ATOM     26  C   UNL     1       0.002  -0.004   0.002  0.00  0.00    -0.087 C 
ENDBRANCH  24  26
ENDBRANCH  20  24
ENDBRANCH  19  21
ENDBRANCH  18  19
ENDBRANCH   1  18
TORSDOF 6
