REMARK  Name = ZINC64773932
REMARK  12 active torsions:
REMARK  status: ('A' for Active; 'I' for Inactive)
REMARK    1  A    between atoms: C_1  and  C_2
REMARK    2  A    between atoms: C_5  and  C_8
REMARK    3  A    between atoms: C_8  and  S_9
REMARK    4  A    between atoms: S_9  and  C_10
REMARK    5  A    between atoms: C_16  and  C_24
REMARK    6  A    between atoms: C_27  and  O_32
REMARK    7  A    between atoms: C_28  and  O_30
REMARK    8  A    between atoms: O_30  and  C_31
REMARK    9  A    between atoms: O_32  and  C_33
REMARK   10  A    between atoms: C_33  and  C_34
REMARK   11  A    between atoms: C_34  and  C_35
REMARK   12  A    between atoms: C_34  and  C_36
REMARK                            x       y       z     vdW  Elec       q    Type
REMARK                         _______ _______ _______ _____ _____    ______ ____
ROOT
ATOM      1  C   UNL     1       2.243  -6.715  -0.018  0.00  0.00    +0.182 C 
ATOM      2  N   UNL     1       0.966  -7.045   0.070  0.00  0.00    -0.154 NA
ATOM      3  C   UNL     1       0.564  -8.317   0.129  0.00  0.00    +0.249 C 
ATOM      4  O   UNL     1      -0.615  -8.611   0.183  0.00  0.00    -0.273 OA
ATOM      5  C   UNL     1       1.648  -9.374   0.126  0.00  0.00    +0.148 C 
ATOM      6  C   UNL     1       1.365 -10.346  -1.022  0.00  0.00    +0.047 C 
ATOM      7  C   UNL     1       2.353 -11.512  -0.929  0.00  0.00    +0.105 C 
ATOM      8  C   UNL     1       3.760 -11.014  -0.764  0.00  0.00    +0.219 C 
ATOM      9  O   UNL     1       4.674 -11.767  -1.022  0.00  0.00    -0.275 OA
ATOM     10  N   UNL     1       4.050  -9.772  -0.344  0.00  0.00    -0.273 N 
ATOM     11  C   UNL     1       3.064  -8.870  -0.085  0.00  0.00    +0.117 C 
ATOM     12  N   UNL     1       3.257  -7.582  -0.127  0.00  0.00    -0.212 NA
ATOM     13  H   UNL     1       4.976  -9.515  -0.209  0.00  0.00    +0.156 HD
ENDROOT
BRANCH   6  14
ATOM     14  C   UNL     1       1.538  -9.636  -2.340  0.00  0.00    -0.039 A 
ATOM     15  C   UNL     1       2.807  -9.368  -2.818  0.00  0.00    +0.008 A 
ATOM     16  C   UNL     1       2.970  -8.717  -4.027  0.00  0.00    +0.050 A 
ATOM     17  C   UNL     1       1.861  -8.332  -4.762  0.00  0.00    +0.162 A 
ATOM     18  C   UNL     1       0.583  -8.602  -4.280  0.00  0.00    +0.162 A 
ATOM     19  C   UNL     1       0.426  -9.259  -3.071  0.00  0.00    +0.053 A 
BRANCH  18  20
ATOM     20  O   UNL     1      -0.509  -8.226  -4.998  0.00  0.00    -0.491 OA
ATOM     21  C   UNL     1      -1.789  -8.535  -4.442  0.00  0.00    +0.277 C 
ENDBRANCH  18  20
BRANCH  17  22
ATOM     22  O   UNL     1       2.019  -7.691  -5.951  0.00  0.00    -0.488 OA
BRANCH  22  23
ATOM     23  C   UNL     1       3.360  -7.447  -6.382  0.00  0.00    +0.232 C 
BRANCH  23  24
ATOM     24  C   UNL     1       3.338  -6.722  -7.729  0.00  0.00    +0.020 C 
ATOM     25  C   UNL     1       2.711  -5.338  -7.554  0.00  0.00    +0.010 C 
ATOM     26  C   UNL     1       4.769  -6.572  -8.251  0.00  0.00    +0.010 C 
ENDBRANCH  23  24
ENDBRANCH  22  23
ENDBRANCH  17  22
ENDBRANCH   6  14
BRANCH   1  27
ATOM     27  S   UNL     1       2.641  -4.999   0.003  0.00  0.00    -0.084 S 
BRANCH  27  28
ATOM     28  C   UNL     1       1.032  -4.177   0.159  0.00  0.00    +0.112 C 
BRANCH  28  33
ATOM     29  C   UNL     1       1.794   1.550   0.273  0.00  0.00    +0.044 C 
ATOM     30  C   UNL     1       1.595   0.056   0.243  0.00  0.00    -0.050 A 
ATOM     31  C   UNL     1       1.408  -0.592  -0.964  0.00  0.00    +0.003 A 
ATOM     32  C   UNL     1       1.226  -1.962  -0.991  0.00  0.00    +0.005 A 
ATOM     33  C   UNL     1       1.231  -2.684   0.188  0.00  0.00    -0.037 A 
ATOM     34  C   UNL     1       1.419  -2.035   1.395  0.00  0.00    +0.005 A 
ATOM     35  C   UNL     1       1.606  -0.666   1.421  0.00  0.00    +0.003 A 
ENDBRANCH  28  33
ENDBRANCH  27  28
ENDBRANCH   1  27
TORSDOF 8
