REMARK  Name = ZINC59351815
REMARK  14 active torsions:
REMARK  status: ('A' for Active; 'I' for Inactive)
REMARK    1  A    between atoms: C_1  and  C_2
REMARK    2  A    between atoms: C_2  and  C_3
REMARK    3  A    between atoms: C_3  and  C_5
REMARK    4  A    between atoms: C_3  and  N_12
REMARK    5  A    between atoms: C_8  and  C_11
REMARK    6  A    between atoms: C_13  and  C_15
REMARK    7  A    between atoms: C_15  and  C_17
REMARK    8  A    between atoms: C_15  and  O_19
REMARK    9  A    between atoms: C_17  and  C_18
REMARK   10  A    between atoms: O_19  and  C_20
REMARK   11  A    between atoms: C_23  and  C_26
REMARK   12  A    between atoms: C_26  and  C_27
REMARK   13  A    between atoms: C_26  and  C_28
REMARK   14  A    between atoms: C_26  and  C_29
REMARK                            x       y       z     vdW  Elec       q    Type
REMARK                         _______ _______ _______ _____ _____    ______ ____
ROOT
ATOM      1  N   UNL     1      -0.118  -0.087   2.357  0.00  0.00    -0.305 N 
ATOM      2  C   UNL     1       0.077   1.119   2.926  0.00  0.00    +0.254 C 
ATOM      3  O   UNL     1       0.806   1.930   2.394  0.00  0.00    -0.272 OA
ATOM      4  H   UNL     1      -0.701  -0.735   2.783  0.00  0.00    +0.149 HD
ENDROOT
BRANCH   1   5
ATOM      5  C   UNL     1       0.551  -0.420   1.097  0.00  0.00    +0.103 C 
BRANCH   5   6
ATOM      6  C   UNL     1       0.694  -1.916   0.984  0.00  0.00    -0.027 A 
ATOM      7  C   UNL     1      -0.339  -2.741   1.387  0.00  0.00    +0.006 A 
ATOM      8  C   UNL     1      -0.208  -4.113   1.283  0.00  0.00    +0.004 A 
ATOM      9  C   UNL     1       0.956  -4.660   0.776  0.00  0.00    -0.050 A 
ATOM     10  C   UNL     1       1.989  -3.835   0.372  0.00  0.00    +0.004 A 
ATOM     11  C   UNL     1       1.856  -2.462   0.472  0.00  0.00    +0.006 A 
ATOM     12  C   UNL     1       1.099  -6.156   0.664  0.00  0.00    +0.044 C 
ENDBRANCH   5   6
BRANCH   5  14
ATOM     13  C   UNL     1      -0.322   1.632  -0.030  0.00  0.00    +0.006 C 
ATOM     14  C   UNL     1      -0.281   0.103  -0.075  0.00  0.00    +0.024 C 
ENDBRANCH   5  14
ENDBRANCH   1   5
BRANCH   2  15
ATOM     15  C   UNL     1      -0.612   1.462   4.222  0.00  0.00    +0.258 C 
BRANCH  15  16
ATOM     16  C   UNL     1      -0.089   0.549   5.333  0.00  0.00    +0.051 C 
ATOM     17  C   UNL     1      -0.874   0.811   6.620  0.00  0.00    +0.008 C 
ENDBRANCH  15  16
BRANCH  15  18
ATOM     18  O   UNL     1      -0.343   2.824   4.559  0.00  0.00    -0.480 OA
BRANCH  18  19
ATOM     19  C   UNL     1      -1.368   3.543   5.087  0.00  0.00    +0.122 A 
ATOM     20  C   UNL     1      -1.215   4.901   5.323  0.00  0.00    +0.046 A 
ATOM     21  C   UNL     1      -2.259   5.630   5.860  0.00  0.00    +0.008 A 
ATOM     22  C   UNL     1      -3.455   5.006   6.163  0.00  0.00    -0.042 A 
ATOM     23  C   UNL     1      -3.610   3.652   5.928  0.00  0.00    +0.008 A 
ATOM     24  C   UNL     1      -2.571   2.920   5.386  0.00  0.00    +0.046 A 
BRANCH  22  25
ATOM     25  C   UNL     1      -4.592   5.803   6.749  0.00  0.00    -0.013 C 
ATOM     26  C   UNL     1      -4.990   6.915   5.776  0.00  0.00    +0.015 C 
ATOM     27  C   UNL     1      -5.790   4.882   6.988  0.00  0.00    +0.015 C 
ATOM     28  C   UNL     1      -4.151   6.420   8.077  0.00  0.00    +0.015 C 
ENDBRANCH  22  25
ENDBRANCH  18  19
ENDBRANCH  15  18
ENDBRANCH   2  15
TORSDOF 8
