REMARK  Name = ZINC32986718
REMARK  10 active torsions:
REMARK  status: ('A' for Active; 'I' for Inactive)
REMARK    1  A    between atoms: C_1  and  C_2
REMARK    2  A    between atoms: C_2  and  O_3
REMARK    3  A    between atoms: O_3  and  C_4
REMARK    4  A    between atoms: C_6  and  C_26
REMARK    5  A    between atoms: C_11  and  C_14
REMARK    6  A    between atoms: N_16  and  C_17
REMARK    7  A    between atoms: C_17  and  C_18
REMARK    8  A    between atoms: C_18  and  C_19
REMARK    9  A    between atoms: C_19  and  N_20
REMARK   10  A    between atoms: C_29  and  C_32
REMARK                            x       y       z     vdW  Elec       q    Type
REMARK                         _______ _______ _______ _____ _____    ______ ____
ROOT
ATOM      1  C   UNL     1       1.183   3.532   0.010  0.00  0.00    +0.132 A 
ATOM      2  C   UNL     1      -0.047   4.160   0.025  0.00  0.00    +0.074 A 
ATOM      3  C   UNL     1      -1.216   3.390   0.032  0.00  0.00    +0.075 A 
ATOM      4  N   UNL     1      -1.175   2.069   0.019  0.00  0.00    -0.246 NA
ATOM      5  C   UNL     1      -0.017   1.404   0.010  0.00  0.00    +0.075 A 
ATOM      6  C   UNL     1       1.209   2.116   0.002  0.00  0.00    +0.043 A 
ATOM      7  C   UNL     1       2.420   1.417  -0.013  0.00  0.00    +0.026 A 
ATOM      8  C   UNL     1       2.405   0.029  -0.021  0.00  0.00    +0.037 A 
ATOM      9  C   UNL     1       1.185  -0.669  -0.013  0.00  0.00    +0.015 A 
ATOM     10  C   UNL     1       0.002  -0.004   0.002  0.00  0.00    +0.029 A 
ENDROOT
BRANCH   3  11
ATOM     11  C   UNL     1      -2.532   4.072   0.048  0.00  0.00    +0.000 A 
ATOM     12  C   UNL     1      -2.598   5.465   0.061  0.00  0.00    +0.010 A 
ATOM     13  C   UNL     1      -3.825   6.095   0.070  0.00  0.00    +0.004 A 
ATOM     14  C   UNL     1      -4.989   5.347   0.077  0.00  0.00    -0.050 A 
ATOM     15  C   UNL     1      -4.930   3.965   0.070  0.00  0.00    +0.004 A 
ATOM     16  C   UNL     1      -3.708   3.324   0.055  0.00  0.00    +0.010 A 
ATOM     17  C   UNL     1      -6.327   6.041   0.094  0.00  0.00    +0.044 C 
ENDBRANCH   3  11
BRANCH   8  18
ATOM     18  C   UNL     1       3.679  -0.718  -0.038  0.00  0.00    +0.244 C 
ATOM     19  O   UNL     1       4.736  -0.117  -0.045  0.00  0.00    -0.270 OA
ATOM     20  N   UNL     1       3.669  -2.066  -0.045  0.00  0.00    -0.311 N 
ATOM     21  H   UNL     1       2.713  -2.609  -0.038  0.00  0.00    +0.149 HD
BRANCH  20  22
ATOM     22  C   UNL     1       4.933  -2.807  -0.061  0.00  0.00    +0.106 C 
BRANCH  22  23
ATOM     23  C   UNL     1       4.643  -4.309  -0.066  0.00  0.00    +0.038 C 
BRANCH  23  24
ATOM     24  C   UNL     1       5.962  -5.083  -0.084  0.00  0.00    +0.109 C 
BRANCH  24  25
ATOM     25  N   UNL     1       5.684  -6.522  -0.088  0.00  0.00    -0.301 N 
ATOM     26  C   UNL     1       5.545  -7.343   1.120  0.00  0.00    +0.108 C 
ATOM     27  C   UNL     1       4.840  -8.639   0.657  0.00  0.00    +0.028 C 
ATOM     28  C   UNL     1       5.245  -8.700  -0.834  0.00  0.00    +0.097 C 
ATOM     29  C   UNL     1       5.530  -7.261  -1.201  0.00  0.00    +0.216 C 
ATOM     30  O   UNL     1       5.608  -6.835  -2.334  0.00  0.00    -0.276 OA
ENDBRANCH  24  25
ENDBRANCH  23  24
ENDBRANCH  22  23
ENDBRANCH  20  22
ENDBRANCH   8  18
BRANCH   1  31
ATOM     31  O   UNL     1       2.332   4.251   0.003  0.00  0.00    -0.492 OA
BRANCH  31  33
ATOM     32  C   UNL     1       3.600   6.309   0.002  0.00  0.00    +0.048 C 
ATOM     33  C   UNL     1       2.207   5.674   0.012  0.00  0.00    +0.226 C 
ENDBRANCH  31  33
ENDBRANCH   1  31
TORSDOF 8
