REMARK  Name = ZINC67383604
REMARK  10 active torsions:
REMARK  status: ('A' for Active; 'I' for Inactive)
REMARK    1  A    between atoms: C_1  and  C_2
REMARK    2  A    between atoms: C_2  and  C_3
REMARK    3  A    between atoms: C_2  and  C_4
REMARK    4  A    between atoms: N_6  and  C_7
REMARK    5  A    between atoms: C_7  and  C_8
REMARK    6  A    between atoms: C_8  and  N_9
REMARK    7  A    between atoms: N_12  and  C_13
REMARK    8  A    between atoms: C_13  and  C_14
REMARK    9  A    between atoms: C_13  and  C_15
REMARK   10  A    between atoms: C_13  and  C_16
REMARK                            x       y       z     vdW  Elec       q    Type
REMARK                         _______ _______ _______ _____ _____    ______ ____
ROOT
ATOM      1  N   UNL     1       1.017  -0.614   6.086  0.00  0.00    -0.298 N 
ATOM      2  C   UNL     1       0.568  -0.297   7.317  0.00  0.00    +0.300 C 
ATOM      3  O   UNL     1      -0.384   0.449   7.442  0.00  0.00    -0.253 OA
ATOM      4  N   UNL     1       1.174  -0.806   8.408  0.00  0.00    -0.290 N 
ATOM      5  H   UNL     1       1.777  -1.209   5.986  0.00  0.00    +0.150 HD
ATOM      6  H   UNL     1       1.933  -1.401   8.307  0.00  0.00    +0.151 HD
ENDROOT
BRANCH   4   7
ATOM      7  C   UNL     1       0.685  -0.462   9.745  0.00  0.00    +0.056 C 
ATOM      8  C   UNL     1       0.800   1.049   9.956  0.00  0.00    +0.036 C 
ATOM      9  C   UNL     1      -0.779  -0.885   9.878  0.00  0.00    +0.036 C 
BRANCH   7  10
ATOM     10  C   UNL     1       1.511  -1.178  10.782  0.00  0.00    -0.025 A 
ATOM     11  C   UNL     1       1.607  -0.667  12.063  0.00  0.00    +0.007 A 
ATOM     12  C   UNL     1       2.364  -1.324  13.014  0.00  0.00    +0.020 A 
ATOM     13  C   UNL     1       3.027  -2.493  12.684  0.00  0.00    +0.041 A 
ATOM     14  C   UNL     1       2.931  -3.003  11.402  0.00  0.00    +0.020 A 
ATOM     15  C   UNL     1       2.169  -2.349  10.453  0.00  0.00    +0.007 A 
ATOM     16 CL   UNL     1       3.979  -3.318  13.878  0.00  0.00    -0.084 Cl
ENDBRANCH   7  10
ENDBRANCH   4   7
BRANCH   1  17
ATOM     17  C   UNL     1       0.358  -0.061   4.901  0.00  0.00    +0.124 C 
BRANCH  17  18
ATOM     18  C   UNL     1       1.059  -0.575   3.641  0.00  0.00    +0.123 C 
BRANCH  18  21
ATOM     19  C   UNL     1       0.850  -0.338   1.225  0.00  0.00    +0.216 C 
ATOM     20  O   UNL     1       1.800  -1.082   1.100  0.00  0.00    -0.276 OA
ATOM     21  N   UNL     1       0.401  -0.021   2.456  0.00  0.00    -0.314 N 
ATOM     22  H   UNL     1      -0.359   0.574   2.556  0.00  0.00    +0.149 HD
BRANCH  19  24
ATOM     23  C   UNL     1       0.251   1.759   0.045  0.00  0.00    +0.017 C 
ATOM     24  C   UNL     1       0.173   0.231   0.005  0.00  0.00    +0.069 C 
ATOM     25  C   UNL     1       0.873  -0.283  -1.254  0.00  0.00    +0.017 C 
ENDBRANCH  19  24
ENDBRANCH  18  21
ENDBRANCH  17  18
ENDBRANCH   1  17
TORSDOF 6
