REMARK  Name = ZINC01108722
REMARK  8 active torsions:
REMARK  status: ('A' for Active; 'I' for Inactive)
REMARK    1  A    between atoms: C_1  and  C_2
REMARK    2  A    between atoms: C_5  and  C_33
REMARK    3  A    between atoms: C_6  and  C_8
REMARK    4  A    between atoms: C_10  and  C_31
REMARK    5  A    between atoms: C_11  and  N_30
REMARK    6  A    between atoms: N_12  and  C_20
REMARK    7  A    between atoms: C_22  and  N_27
REMARK    8  A    between atoms: C_25  and  C_26
REMARK                            x       y       z     vdW  Elec       q    Type
REMARK                         _______ _______ _______ _____ _____    ______ ____
ROOT
ATOM      1  C   UNL     1       0.006  -3.065  -1.984  0.00  0.00    +0.098 C 
ATOM      2  C   UNL     1       0.855  -2.983  -3.219  0.00  0.00    +0.077 C 
ATOM      3  C   UNL     1       0.489  -2.205  -4.271  0.00  0.00    +0.107 C 
ATOM      4  N   UNL     1      -0.680  -1.481  -4.221  0.00  0.00    -0.260 N 
ATOM      5  C   UNL     1      -1.669  -1.815  -3.333  0.00  0.00    +0.024 C 
ATOM      6  C   UNL     1      -1.395  -2.577  -2.253  0.00  0.00    +0.025 C 
ATOM      7  C   UNL     1      -2.406  -2.939  -1.346  0.00  0.00    +0.162 C 
ATOM      8  O   UNL     1      -2.125  -3.620  -0.379  0.00  0.00    -0.292 OA
ATOM      9  C   UNL     1      -3.831  -2.501  -1.549  0.00  0.00    +0.080 C 
ATOM     10  C   UNL     1      -4.086  -2.313  -3.048  0.00  0.00    +0.014 C 
ATOM     11  C   UNL     1      -3.066  -1.308  -3.591  0.00  0.00    +0.052 C 
ENDROOT
BRANCH   1  17
ATOM     12  C   UNL     1       1.823   1.329  -0.425  0.00  0.00    +0.044 C 
ATOM     13  C   UNL     1       1.494  -0.117  -0.156  0.00  0.00    -0.050 A 
ATOM     14  C   UNL     1       1.762  -0.667   1.084  0.00  0.00    +0.003 A 
ATOM     15  C   UNL     1       1.460  -1.993   1.331  0.00  0.00    +0.004 A 
ATOM     16  C   UNL     1       0.892  -2.769   0.338  0.00  0.00    -0.046 A 
ATOM     17  C   UNL     1       0.625  -2.219  -0.902  0.00  0.00    -0.032 A 
ATOM     18  C   UNL     1       0.921  -0.891  -1.147  0.00  0.00    +0.008 A 
ATOM     19  C   UNL     1       0.563  -4.215   0.607  0.00  0.00    +0.044 C 
ENDBRANCH   1  17
BRANCH   4  20
ATOM     20  C   UNL     1      -0.861  -0.393  -5.083  0.00  0.00    +0.045 A 
ATOM     21  C   UNL     1      -1.234  -0.607  -6.404  0.00  0.00    +0.056 A 
ATOM     22  C   UNL     1      -1.412   0.468  -7.253  0.00  0.00    +0.128 A 
ATOM     23  C   UNL     1      -1.218   1.756  -6.788  0.00  0.00    +0.033 A 
ATOM     24  C   UNL     1      -0.846   1.972  -5.474  0.00  0.00    +0.007 A 
ATOM     25  C   UNL     1      -0.672   0.902  -4.619  0.00  0.00    -0.029 A 
ATOM     26  C   UNL     1      -0.273   1.139  -3.186  0.00  0.00    +0.045 C 
BRANCH  22  27
ATOM     27  N   UNL     1      -1.810   0.241  -8.660  0.00  0.00    +0.056 N 
ATOM     28  O   UNL     1      -1.981  -0.893  -9.069  0.00  0.00    -0.126 OA
ATOM     29  O   UNL     1      -1.966   1.189  -9.409  0.00  0.00    -0.126 OA
ENDBRANCH  22  27
ENDBRANCH   4  20
BRANCH   3  30
ATOM     30  N   UNL     1       1.289  -2.141  -5.387  0.00  0.00    -0.345 N 
ATOM     31  H   UNL     1       2.113  -2.651  -5.423  0.00  0.00    +0.144 HD
ATOM     32  H   UNL     1       1.028  -1.586  -6.139  0.00  0.00    +0.144 HD
ENDBRANCH   3  30
BRANCH   2  33
ATOM     33  C   UNL     1       2.071  -3.736  -3.289  0.00  0.00    +0.099 C 
ATOM     34  N   UNL     1       3.035  -4.334  -3.345  0.00  0.00    -0.191 NA
ENDBRANCH   2  33
TORSDOF 5
