REMARK  Name = ZINC64820789
REMARK  10 active torsions:
REMARK  status: ('A' for Active; 'I' for Inactive)
REMARK    1  A    between atoms: C_1  and  C_2
REMARK    2  A    between atoms: N_6  and  C_8
REMARK    3  A    between atoms: C_8  and  C_9
REMARK    4  A    between atoms: C_8  and  C_10
REMARK    5  A    between atoms: C_8  and  C_11
REMARK    6  A    between atoms: C_11  and  N_12
REMARK    7  A    between atoms: C_13  and  C_15
REMARK    8  A    between atoms: C_15  and  N_16
REMARK    9  A    between atoms: N_19  and  C_20
REMARK   10  A    between atoms: C_20  and  C_21
REMARK                            x       y       z     vdW  Elec       q    Type
REMARK                         _______ _______ _______ _____ _____    ______ ____
ROOT
ATOM      1  N   UNL     1       2.189  -4.461   1.137  0.00  0.00    -0.315 N 
ATOM      2  C   UNL     1       2.323  -5.782   0.909  0.00  0.00    +0.230 C 
ATOM      3  O   UNL     1       1.929  -6.582   1.731  0.00  0.00    -0.274 OA
ATOM      4  H   UNL     1       2.503  -3.821   0.480  0.00  0.00    +0.149 HD
ENDROOT
BRANCH   1   5
ATOM      5  C   UNL     1       1.568  -3.991   2.378  0.00  0.00    +0.092 C 
BRANCH   5   6
ATOM      6  C   UNL     1       1.539  -2.461   2.387  0.00  0.00    -0.055 C 
ATOM      7  C   UNL     1       2.969  -1.923   2.296  0.00  0.00    -0.008 C 
ATOM      8  C   UNL     1       0.891  -1.970   3.683  0.00  0.00    -0.008 C 
BRANCH   6  14
ATOM      9  C   UNL     1      -0.019   1.526   0.010  0.00  0.00    +0.005 C 
ATOM     10  C   UNL     1       0.002  -0.004   0.002  0.00  0.00    -0.031 C 
ATOM     11  C   UNL     1      -1.434  -0.535   0.018  0.00  0.00    -0.001 C 
ATOM     12  C   UNL     1      -1.402  -2.064   0.089  0.00  0.00    -0.018 C 
ATOM     13  C   UNL     1      -0.610  -2.496   1.325  0.00  0.00    -0.078 C 
ATOM     14  N   UNL     1       0.761  -1.980   1.237  0.00  0.00    +0.384 N 
ATOM     15  C   UNL     1       0.742  -0.512   1.241  0.00  0.00    -0.075 C 
ATOM     16  H   UNL     1       1.189  -2.307   0.384  0.00  0.00    -0.081 HD
ENDBRANCH   6  14
ENDBRANCH   5   6
ENDBRANCH   1   5
BRANCH   2  17
ATOM     17  C   UNL     1       2.961  -6.266  -0.367  0.00  0.00    +0.201 C 
BRANCH  17  18
ATOM     18  N   UNL     1       2.989  -7.730  -0.375  0.00  0.00    -0.291 N 
ATOM     19  C   UNL     1       3.518  -8.389  -1.425  0.00  0.00    +0.300 C 
ATOM     20  O   UNL     1       3.973  -7.767  -2.366  0.00  0.00    -0.253 OA
ATOM     21  N   UNL     1       3.544  -9.736  -1.433  0.00  0.00    -0.295 N 
ATOM     22  H   UNL     1       2.626  -8.226   0.375  0.00  0.00    +0.151 HD
ATOM     23  H   UNL     1       3.181 -10.232  -0.682  0.00  0.00    +0.151 HD
BRANCH  21  24
ATOM     24  C   UNL     1       4.120 -10.452  -2.574  0.00  0.00    +0.141 C 
BRANCH  24  25
ATOM     25  C   UNL     1       4.025 -11.937  -2.335  0.00  0.00    -0.030 A 
ATOM     26  C   UNL     1       5.053 -12.599  -1.690  0.00  0.00    +0.008 A 
ATOM     27  C   UNL     1       4.968 -13.961  -1.470  0.00  0.00    +0.038 A 
ATOM     28  C   UNL     1       3.852 -14.662  -1.896  0.00  0.00    +0.123 A 
ATOM     29  C   UNL     1       2.824 -13.997  -2.542  0.00  0.00    +0.038 A 
ATOM     30  C   UNL     1       2.909 -12.635  -2.756  0.00  0.00    +0.008 A 
ATOM     31  F   UNL     1       3.768 -15.993  -1.682  0.00  0.00    -0.205 F 
ENDBRANCH  24  25
ENDBRANCH  21  24
ENDBRANCH  17  18
ENDBRANCH   2  17
TORSDOF 7
