REMARK  Name = ZINC65219015
REMARK  7 active torsions:
REMARK  status: ('A' for Active; 'I' for Inactive)
REMARK    1  A    between atoms: C_1  and  C_2
REMARK    2  A    between atoms: C_2  and  C_4
REMARK    3  A    between atoms: C_2  and  N_24
REMARK    4  A    between atoms: N_6  and  C_7
REMARK    5  A    between atoms: C_11  and  C_12
REMARK    6  A    between atoms: C_14  and  C_17
REMARK    7  A    between atoms: C_25  and  C_27
REMARK                            x       y       z     vdW  Elec       q    Type
REMARK                         _______ _______ _______ _____ _____    ______ ____
ROOT
ATOM      1  C   UNL     1      -3.577  -0.613   0.993  0.00  0.00    +0.053 A 
ATOM      2  C   UNL     1      -4.080  -1.412  -0.017  0.00  0.00    +0.031 A 
ATOM      3  C   UNL     1      -5.388  -1.756   0.008  0.00  0.00    +0.048 A 
ATOM      4  S   UNL     1      -5.988  -1.015   1.391  0.00  0.00    -0.090 S 
ATOM      5  C   UNL     1      -4.493  -0.233   1.969  0.00  0.00    +0.098 A 
ENDROOT
BRANCH   5   6
ATOM      6  C   UNL     1      -4.285   0.594   3.158  0.00  0.00    +0.267 A 
ATOM      7  N   UNL     1      -5.203   0.912   4.050  0.00  0.00    -0.187 NA
ATOM      8  C   UNL     1      -4.662   1.682   5.006  0.00  0.00    +0.202 A 
ATOM      9  N   UNL     1      -3.392   1.865   4.736  0.00  0.00    -0.056 NA
ATOM     10  O   UNL     1      -3.122   1.158   3.535  0.00  0.00    -0.332 OA
BRANCH   8  11
ATOM     11  C   UNL     1      -5.384   2.236   6.178  0.00  0.00    +0.023 A 
ATOM     12  C   UNL     1      -6.739   1.963   6.357  0.00  0.00    +0.014 A 
ATOM     13  C   UNL     1      -7.406   2.480   7.449  0.00  0.00    +0.039 A 
ATOM     14  C   UNL     1      -6.731   3.269   8.366  0.00  0.00    +0.123 A 
ATOM     15  C   UNL     1      -5.384   3.544   8.191  0.00  0.00    +0.039 A 
ATOM     16  C   UNL     1      -4.707   3.026   7.106  0.00  0.00    +0.014 A 
ATOM     17  F   UNL     1      -7.388   3.774   9.433  0.00  0.00    -0.205 F 
ENDBRANCH   8  11
ENDBRANCH   5   6
BRANCH   1  20
ATOM     18  C   UNL     1      -1.424  -0.481  -0.009  0.00  0.00    +0.237 C 
ATOM     19  O   UNL     1      -1.829  -1.144  -0.941  0.00  0.00    -0.273 OA
ATOM     20  N   UNL     1      -2.236  -0.217   1.033  0.00  0.00    -0.283 N 
ATOM     21  H   UNL     1      -1.891   0.248   1.811  0.00  0.00    +0.155 HD
BRANCH  18  23
ATOM     22  C   UNL     1      -0.038   1.574   0.053  0.00  0.00    +0.038 C 
ATOM     23  C   UNL     1      -0.012   0.046  -0.017  0.00  0.00    +0.156 C 
BRANCH  23  24
ATOM     24  N   UNL     1       0.660  -0.375  -1.248  0.00  0.00    -0.298 N 
ATOM     25  C   UNL     1       2.003  -0.480  -1.281  0.00  0.00    +0.280 C 
ATOM     26  O   UNL     1       2.658  -0.224  -0.288  0.00  0.00    -0.267 OA
ATOM     27  H   UNL     1       0.138  -0.579  -2.040  0.00  0.00    +0.150 HD
BRANCH  25  28
ATOM     28  C   UNL     1       2.676  -0.901  -2.514  0.00  0.00    +0.189 A 
ATOM     29  C   UNL     1       4.023  -1.053  -2.682  0.00  0.00    +0.054 A 
ATOM     30  C   UNL     1       4.220  -1.468  -4.009  0.00  0.00    +0.042 A 
ATOM     31  C   UNL     1       3.000  -1.550  -4.585  0.00  0.00    +0.196 A 
ATOM     32  O   UNL     1       2.072  -1.213  -3.680  0.00  0.00    -0.458 OA
ENDBRANCH  25  28
ENDBRANCH  23  24
ENDBRANCH  18  23
ENDBRANCH   1  20
TORSDOF 6
