REMARK  Name = ZINC11950117
REMARK  7 active torsions:
REMARK  status: ('A' for Active; 'I' for Inactive)
REMARK    1  A    between atoms: C_1  and  C_2
REMARK    2  A    between atoms: C_5  and  N_9
REMARK    3  A    between atoms: C_7  and  C_8
REMARK    4  A    between atoms: C_14  and  N_59
REMARK    5  A    between atoms: C_19  and  C_20
REMARK    6  A    between atoms: C_19  and  N_59
REMARK    7  A    between atoms: C_23  and  N_26
REMARK                            x       y       z     vdW  Elec       q    Type
REMARK                         _______ _______ _______ _____ _____    ______ ____
ROOT
ATOM      1  N   UNL     1      -1.298  -1.946  -3.979  0.00  0.00    -0.237 N 
ATOM      2  C   UNL     1      -0.902  -0.660  -4.032  0.00  0.00    +0.047 A 
ATOM      3  C   UNL     1      -0.566  -0.277  -2.773  0.00  0.00    -0.020 A 
ATOM      4  C   UNL     1      -0.762  -1.365  -1.925  0.00  0.00    +0.137 A 
ATOM      5  N   UNL     1      -1.202  -2.369  -2.645  0.00  0.00    -0.174 NA
ATOM      6  C   UNL     1      -0.073   1.102  -2.413  0.00  0.00    -0.037 C 
ATOM      7  C   UNL     1      -0.414   2.054  -3.565  0.00  0.00    -0.011 C 
ATOM      8  C   UNL     1       0.057   1.445  -4.888  0.00  0.00    +0.005 C 
ATOM      9  C   UNL     1      -0.824   0.240  -5.239  0.00  0.00    +0.056 C 
ENDROOT
BRANCH   1  14
ATOM     10  C   UNL     1      -3.048  -5.089  -8.368  0.00  0.00    +0.044 C 
ATOM     11  C   UNL     1      -2.584  -4.254  -7.203  0.00  0.00    -0.047 A 
ATOM     12  C   UNL     1      -2.881  -2.904  -7.158  0.00  0.00    +0.006 A 
ATOM     13  C   UNL     1      -2.461  -2.138  -6.089  0.00  0.00    +0.028 A 
ATOM     14  C   UNL     1      -1.730  -2.722  -5.063  0.00  0.00    +0.066 A 
ATOM     15  C   UNL     1      -1.433  -4.077  -5.110  0.00  0.00    +0.031 A 
ATOM     16  C   UNL     1      -1.861  -4.840  -6.180  0.00  0.00    -0.046 A 
ATOM     17  C   UNL     1      -1.538  -6.311  -6.232  0.00  0.00    +0.044 C 
ENDBRANCH   1  14
BRANCH   6  18
ATOM     18  N   UNL     1      -0.742   1.564  -1.182  0.00  0.00    +0.386 N 
ATOM     19  H   UNL     1      -1.701   1.198  -1.160  0.00  0.00    -0.085 HD
ATOM     20  H   UNL     1      -0.767   2.590  -1.174  0.00  0.00    -0.085 HD
BRANCH  18  21
ATOM     21  C   UNL     1      -0.013   1.086   0.008  0.00  0.00    -0.046 C 
BRANCH  21  22
ATOM     22  C   UNL     1      -0.718   1.572   1.248  0.00  0.00    -0.064 A 
ATOM     23  C   UNL     1      -0.369   2.787   1.809  0.00  0.00    +0.003 A 
ATOM     24  C   UNL     1      -1.017   3.237   2.942  0.00  0.00    +0.024 A 
ATOM     25  C   UNL     1      -2.013   2.464   3.525  0.00  0.00    +0.038 A 
ATOM     26  C   UNL     1      -2.357   1.242   2.962  0.00  0.00    +0.024 A 
ATOM     27  C   UNL     1      -1.709   0.799   1.825  0.00  0.00    +0.003 A 
BRANCH  25  28
ATOM     28  N   UNL     1      -2.667   2.915   4.677  0.00  0.00    -0.254 N 
ATOM     29  C   UNL     1      -2.314   4.121   5.440  0.00  0.00    +0.134 C 
ATOM     30  C   UNL     1      -3.341   4.145   6.589  0.00  0.00    +0.125 C 
ATOM     31  N   UNL     1      -4.158   2.944   6.356  0.00  0.00    -0.297 N 
ATOM     32  C   UNL     1      -3.710   2.312   5.263  0.00  0.00    +0.307 C 
ATOM     33  O   UNL     1      -4.206   1.286   4.840  0.00  0.00    -0.252 OA
ATOM     34  H   UNL     1      -4.902   2.655   6.907  0.00  0.00    +0.150 HD
ENDBRANCH  25  28
ENDBRANCH  21  22
ENDBRANCH  18  21
ENDBRANCH   6  18
TORSDOF 5
