REMARK  Name = ZINC36728772
REMARK  6 active torsions:
REMARK  status: ('A' for Active; 'I' for Inactive)
REMARK    1  A    between atoms: C_1  and  C_2
REMARK    2  A    between atoms: C_7  and  O_8
REMARK    3  A    between atoms: O_8  and  C_9
REMARK    4  A    between atoms: C_9  and  C_11
REMARK    5  A    between atoms: C_9  and  C_12
REMARK    6  A    between atoms: N_14  and  C_15
REMARK                            x       y       z     vdW  Elec       q    Type
REMARK                         _______ _______ _______ _____ _____    ______ ____
ROOT
ATOM      1  C   UNL     1      -0.862  -0.065   4.608  0.00  0.00    +0.258 C 
ATOM      2  O   UNL     1      -1.320   1.027   4.347  0.00  0.00    -0.271 OA
ATOM      3  N   UNL     1      -1.085  -0.619   5.817  0.00  0.00    -0.281 N 
ATOM      4  H   UNL     1      -0.668  -1.463   6.048  0.00  0.00    +0.155 HD
ENDROOT
BRANCH   3   5
ATOM      5  C   UNL     1      -1.919   0.027   6.739  0.00  0.00    +0.051 A 
ATOM      6  C   UNL     1      -1.946   1.413   6.801  0.00  0.00    +0.073 A 
ATOM      7  C   UNL     1      -2.772   2.051   7.713  0.00  0.00    +0.164 A 
ATOM      8  C   UNL     1      -3.574   1.301   8.565  0.00  0.00    +0.163 A 
ATOM      9  C   UNL     1      -3.545  -0.084   8.502  0.00  0.00    +0.066 A 
ATOM     10  C   UNL     1      -2.725  -0.721   7.589  0.00  0.00    +0.043 A 
ATOM     11 BR   UNL     1      -2.694  -2.609   7.502  0.00  0.00    -0.048 Br
ATOM     12  O   UNL     1      -4.398   1.910   9.462  0.00  0.00    -0.485 OA
ATOM     13  C   UNL     1      -4.127   3.286   9.753  0.00  0.00    +0.270 C 
ATOM     14  C   UNL     1      -3.896   4.021   8.426  0.00  0.00    +0.270 C 
ATOM     15  O   UNL     1      -2.783   3.412   7.764  0.00  0.00    -0.485 OA
ENDBRANCH   3   5
BRANCH   1  16
ATOM     16  C   UNL     1      -0.044  -0.805   3.580  0.00  0.00    +0.256 C 
ATOM     17  C   UNL     1       1.359  -1.061   4.134  0.00  0.00    +0.062 C 
BRANCH  16  18
ATOM     18  O   UNL     1       0.049  -0.018   2.391  0.00  0.00    -0.480 OA
BRANCH  18  25
ATOM     19  C   UNL     1      -0.047   1.515   0.021  0.00  0.00    +0.047 C 
ATOM     20  C   UNL     1       0.042   0.010   0.012  0.00  0.00    -0.007 A 
ATOM     21  C   UNL     1       0.086  -0.673  -1.188  0.00  0.00    +0.027 A 
ATOM     22  C   UNL     1       0.168  -2.054  -1.196  0.00  0.00    +0.041 A 
ATOM     23  C   UNL     1       0.206  -2.754  -0.003  0.00  0.00    +0.023 A 
ATOM     24  C   UNL     1       0.162  -2.074   1.199  0.00  0.00    +0.047 A 
ATOM     25  C   UNL     1       0.086  -0.689   1.209  0.00  0.00    +0.125 A 
ATOM     26 CL   UNL     1       0.222  -2.910  -2.705  0.00  0.00    -0.084 Cl
ENDBRANCH  18  25
ENDBRANCH  16  18
ENDBRANCH   1  16
TORSDOF 4
