REMARK  Name = ZINC40825002
REMARK  5 active torsions:
REMARK  status: ('A' for Active; 'I' for Inactive)
REMARK    1  A    between atoms: C_1  and  C_2
REMARK    2  A    between atoms: C_6  and  C_7
REMARK    3  A    between atoms: C_7  and  O_9
REMARK    4  A    between atoms: O_9  and  C_10
REMARK    5  A    between atoms: N_25  and  N_26
REMARK                            x       y       z     vdW  Elec       q    Type
REMARK                         _______ _______ _______ _____ _____    ______ ____
ROOT
ATOM      1  C   UNL     1      -0.303   1.509   0.033  0.00  0.00    +0.048 C 
ATOM      2  C   UNL     1      -0.175   0.007   0.014  0.00  0.00    +0.011 A 
ATOM      3  C   UNL     1      -0.135  -0.818  -1.116  0.00  0.00    +0.043 A 
ATOM      4  C   UNL     1      -0.014  -2.115  -0.676  0.00  0.00    +0.115 A 
ATOM      5  O   UNL     1       0.024  -2.097   0.654  0.00  0.00    -0.452 OA
ATOM      6  C   UNL     1      -0.068  -0.822   1.097  0.00  0.00    +0.215 A 
ATOM      7  C   UNL     1       0.055  -3.295  -1.612  0.00  0.00    +0.075 C 
ATOM      8  C   UNL     1      -0.531  -2.902  -2.971  0.00  0.00    +0.014 C 
ATOM      9  C   UNL     1       0.139  -1.630  -3.500  0.00  0.00    +0.058 C 
ATOM     10  C   UNL     1      -0.201  -0.485  -2.557  0.00  0.00    +0.072 C 
ATOM     11  N   UNL     1      -0.523   0.696  -2.985  0.00  0.00    -0.175 NA
ENDROOT
BRANCH  11  12
ATOM     12  N   UNL     1      -0.569   0.955  -4.361  0.00  0.00    -0.248 N 
ATOM     13  C   UNL     1      -0.910   2.202  -4.812  0.00  0.00    +0.187 C 
ATOM     14  N   UNL     1      -0.954   2.448  -6.121  0.00  0.00    -0.370 N 
ATOM     15  N   UNL     1      -1.199   3.169  -3.942  0.00  0.00    -0.370 N 
ATOM     16  H   UNL     1      -0.359   0.251  -4.994  0.00  0.00    +0.192 HD
ATOM     17  H   UNL     1      -1.195   3.331  -6.441  0.00  0.00    +0.159 HD
ATOM     18  H   UNL     1      -1.167   2.990  -2.989  0.00  0.00    +0.159 HD
ATOM     19  H   UNL     1      -1.440   4.053  -4.261  0.00  0.00    +0.159 HD
ATOM     20  H   UNL     1      -0.744   1.744  -6.754  0.00  0.00    +0.159 HD
ENDBRANCH  11  12
BRANCH   6  21
ATOM     21  C   UNL     1      -0.057  -0.400   2.500  0.00  0.00    +0.380 C 
ATOM     22  O   UNL     1      -0.148   0.780   2.781  0.00  0.00    -0.241 OA
BRANCH  21  23
ATOM     23  O   UNL     1       0.055  -1.320   3.480  0.00  0.00    -0.418 OA
BRANCH  23  24
ATOM     24  C   UNL     1       0.166  -0.878   4.760  0.00  0.00    +0.158 A 
ATOM     25  C   UNL     1       1.408  -0.713   5.330  0.00  0.00    +0.050 A 
ATOM     26  C   UNL     1       1.537  -0.261   6.640  0.00  0.00    +0.019 A 
ATOM     27  C   UNL     1       0.439   0.030   7.393  0.00  0.00    +0.027 A 
ATOM     28  C   UNL     1      -0.845  -0.126   6.845  0.00  0.00    +0.018 A 
ATOM     29  C   UNL     1      -0.990  -0.580   5.511  0.00  0.00    +0.114 A 
ATOM     30  N   UNL     1      -2.209  -0.726   4.986  0.00  0.00    -0.251 NA
ATOM     31  C   UNL     1      -3.287  -0.451   5.679  0.00  0.00    +0.111 A 
ATOM     32  C   UNL     1      -3.216   0.005   6.994  0.00  0.00    +0.020 A 
ATOM     33  C   UNL     1      -2.000   0.165   7.595  0.00  0.00    +0.013 A 
ATOM     34 BR   UNL     1       0.644   0.641   9.170  0.00  0.00    -0.050 Br
ENDBRANCH  23  24
ENDBRANCH  21  23
ENDBRANCH   6  21
TORSDOF 4
