REMARK  Name = ZINC36945999
REMARK  3 active torsions:
REMARK  status: ('A' for Active; 'I' for Inactive)
REMARK    1  A    between atoms: C_3  and  C_8
REMARK    2  A    between atoms: C_8  and  C_10
REMARK    3  A    between atoms: C_17  and  N_20
REMARK                            x       y       z     vdW  Elec       q    Type
REMARK                         _______ _______ _______ _____ _____    ______ ____
ROOT
ATOM      1  C   UNL     1       4.935   1.447   0.073  0.00  0.00    +0.047 A 
ATOM      2  C   UNL     1       5.116   0.093   0.073  0.00  0.00    +0.095 A 
ATOM      3  N   UNL     1       6.436  -0.192   0.175  0.00  0.00    -0.360 N 
ATOM      4  H   UNL     1       6.808  -1.087   0.194  0.00  0.00    +0.165 HD
ATOM      5  C   UNL     1       7.176   0.970   0.246  0.00  0.00    +0.047 A 
ATOM      6  C   UNL     1       6.277   2.047   0.181  0.00  0.00    +0.013 A 
ATOM      7  C   UNL     1       6.751   3.356   0.226  0.00  0.00    +0.043 A 
ATOM      8  C   UNL     1       8.105   3.588   0.333  0.00  0.00    +0.127 A 
ATOM      9  C   UNL     1       8.995   2.525   0.394  0.00  0.00    +0.035 A 
ATOM     10  C   UNL     1       8.539   1.225   0.358  0.00  0.00    +0.028 A 
ENDROOT
BRANCH   8  11
ATOM     11  N   UNL     1       8.613   4.977   0.381  0.00  0.00    +0.056 N 
ATOM     12  O   UNL     1       7.840   5.906   0.328  0.00  0.00    -0.126 OA
ATOM     13  O   UNL     1       9.801   5.184   0.474  0.00  0.00    -0.126 OA
ENDBRANCH   8  11
BRANCH   1  14
ATOM     14  C   UNL     1       3.657   2.162  -0.022  0.00  0.00    +0.195 C 
ATOM     15  O   UNL     1       3.645   3.375  -0.122  0.00  0.00    -0.287 OA
BRANCH  14  18
ATOM     16  C   UNL     1       1.110  -0.498   0.718  0.00  0.00    +0.002 A 
ATOM     17  C   UNL     1       2.300   0.200   0.696  0.00  0.00    +0.012 A 
ATOM     18  C   UNL     1       2.384   1.410   0.005  0.00  0.00    +0.024 A 
ATOM     19  C   UNL     1       1.262   1.907  -0.660  0.00  0.00    +0.031 A 
ATOM     20  C   UNL     1       0.077   1.199  -0.630  0.00  0.00    +0.042 A 
ATOM     21  C   UNL     1       0.001  -0.001   0.057  0.00  0.00    +0.020 A 
ATOM     22 CL   UNL     1      -1.321   1.815  -1.456  0.00  0.00    -0.084 Cl
ENDBRANCH  14  18
ENDBRANCH   1  14
TORSDOF 3
