REMARK  Name = ZINC57256227
REMARK  12 active torsions:
REMARK  status: ('A' for Active; 'I' for Inactive)
REMARK    1  A    between atoms: C_1  and  C_2
REMARK    2  A    between atoms: C_5  and  S_8
REMARK    3  A    between atoms: S_8  and  N_11
REMARK    4  A    between atoms: N_11  and  C_12
REMARK    5  A    between atoms: C_12  and  C_13
REMARK    6  A    between atoms: C_13  and  C_14
REMARK    7  A    between atoms: C_14  and  N_15
REMARK    8  A    between atoms: C_16  and  C_28
REMARK    9  A    between atoms: N_17  and  S_18
REMARK   10  A    between atoms: S_18  and  C_21
REMARK   11  A    between atoms: C_24  and  C_27
REMARK   12  A    between atoms: C_28  and  N_29
REMARK                            x       y       z     vdW  Elec       q    Type
REMARK                         _______ _______ _______ _____ _____    ______ ____
ROOT
ATOM      1  N   UNL     1       6.430  -5.886   1.885  0.00  0.00    -0.330 N 
ATOM      2  C   UNL     1       7.077  -5.891   3.093  0.00  0.00    +0.131 C 
ATOM      3  N   UNL     1       6.835  -4.962   3.960  0.00  0.00    -0.117 NA
ATOM      4  H   UNL     1       6.608  -6.585   1.237  0.00  0.00    +0.147 HD
ENDROOT
BRANCH   3   5
ATOM      5  S   UNL     1       7.708  -4.894   5.365  0.00  0.00    +0.100 S 
ATOM      6  O   UNL     1       7.385  -6.066   6.101  0.00  0.00    -0.146 OA
ATOM      7  O   UNL     1       9.041  -4.567   5.000  0.00  0.00    -0.146 OA
BRANCH   5   8
ATOM      8  C   UNL     1       7.092  -3.530   6.296  0.00  0.00    +0.113 A 
ATOM      9  C   UNL     1       7.643  -2.273   6.127  0.00  0.00    +0.029 A 
ATOM     10  C   UNL     1       7.159  -1.204   6.857  0.00  0.00    +0.005 A 
ATOM     11  C   UNL     1       6.125  -1.390   7.755  0.00  0.00    -0.050 A 
ATOM     12  C   UNL     1       5.573  -2.647   7.923  0.00  0.00    +0.005 A 
ATOM     13  C   UNL     1       6.054  -3.716   7.190  0.00  0.00    +0.029 A 
ATOM     14  C   UNL     1       5.599  -0.224   8.551  0.00  0.00    +0.044 C 
ENDBRANCH   5   8
ENDBRANCH   3   5
BRANCH   1  15
ATOM     15  C   UNL     1       5.470  -4.824   1.573  0.00  0.00    +0.104 C 
BRANCH  15  16
ATOM     16  C   UNL     1       4.895  -5.052   0.173  0.00  0.00    +0.035 C 
BRANCH  16  17
ATOM     17  C   UNL     1       3.892  -3.943  -0.153  0.00  0.00    +0.107 C 
BRANCH  17  18
ATOM     18  N   UNL     1       3.342  -4.161  -1.493  0.00  0.00    -0.190 NA
ATOM     19  H   UNL     1       3.776  -4.780  -2.101  0.00  0.00    +0.148 HD
BRANCH  18  20
ATOM     20  S   UNL     1       1.978  -3.351  -1.970  0.00  0.00    +0.058 S 
ATOM     21  O   UNL     1       1.026  -3.510  -0.927  0.00  0.00    -0.153 OA
ATOM     22  O   UNL     1       1.716  -3.751  -3.308  0.00  0.00    -0.153 OA
BRANCH  20  27
ATOM     23  C   UNL     1       3.362   2.518  -2.164  0.00  0.00    +0.044 C 
ATOM     24  C   UNL     1       3.017   1.052  -2.115  0.00  0.00    -0.050 A 
ATOM     25  C   UNL     1       3.191   0.264  -3.237  0.00  0.00    +0.005 A 
ATOM     26  C   UNL     1       2.874  -1.081  -3.193  0.00  0.00    +0.029 A 
ATOM     27  C   UNL     1       2.383  -1.637  -2.026  0.00  0.00    +0.105 A 
ATOM     28  C   UNL     1       2.210  -0.849  -0.904  0.00  0.00    +0.029 A 
ATOM     29  C   UNL     1       2.531   0.495  -0.947  0.00  0.00    +0.005 A 
ENDBRANCH  20  27
ENDBRANCH  18  20
ENDBRANCH  17  18
ENDBRANCH  16  17
ENDBRANCH  15  16
ENDBRANCH   1  15
BRANCH   2  30
ATOM     30  C   UNL     1       8.070  -6.978   3.411  0.00  0.00    +0.157 C 
BRANCH  30  31
ATOM     31  N   UNL     1       8.080  -7.966   2.323  0.00  0.00    -0.295 NA
ATOM     32  C   UNL     1       6.858  -8.779   2.339  0.00  0.00    +0.085 C 
ATOM     33  C   UNL     1       6.836  -9.693   1.112  0.00  0.00    +0.015 C 
ATOM     34  C   UNL     1       8.072 -10.596   1.132  0.00  0.00    +0.002 C 
ATOM     35  C   UNL     1       9.331  -9.725   1.164  0.00  0.00    +0.015 C 
ATOM     36  C   UNL     1       9.280  -8.809   2.390  0.00  0.00    +0.085 C 
ENDBRANCH  30  31
ENDBRANCH   2  30
TORSDOF 10
