REMARK  Name = ZINC01754989
REMARK  5 active torsions:
REMARK  status: ('A' for Active; 'I' for Inactive)
REMARK    1  A    between atoms: C_1  and  C_2
REMARK    2  A    between atoms: C_5  and  N_8
REMARK    3  A    between atoms: C_14  and  C_21
REMARK    4  A    between atoms: C_17  and  C_19
REMARK    5  A    between atoms: C_17  and  C_20
REMARK                            x       y       z     vdW  Elec       q    Type
REMARK                         _______ _______ _______ _____ _____    ______ ____
ROOT
ATOM      1  N   UNL     1       0.059  -4.166  -0.021  0.00  0.00    -0.212 N 
ATOM      2  C   UNL     1      -0.008  -4.949  -1.133  0.00  0.00    +0.161 C 
ATOM      3  N   UNL     1      -0.134  -6.265  -0.788  0.00  0.00    -0.347 N 
ATOM      4  C   UNL     1      -0.281  -6.291   0.681  0.00  0.00    +0.108 C 
ATOM      5  N   UNL     1       0.174  -4.952   1.097  0.00  0.00    -0.209 NA
ATOM      6  C   UNL     1      -1.754  -6.486   1.023  0.00  0.00    +0.049 C 
ATOM      7  C   UNL     1      -1.923  -6.572   2.541  0.00  0.00    -0.010 C 
ATOM      8  C   UNL     1      -1.144  -7.779   3.058  0.00  0.00    +0.010 C 
ATOM      9  C   UNL     1       0.343  -7.643   2.747  0.00  0.00    -0.031 C 
ATOM     10  C   UNL     1       0.592  -7.384   1.267  0.00  0.00    +0.052 C 
ATOM     11  C   UNL     1       1.035  -8.967   3.128  0.00  0.00    +0.011 C 
ATOM     12  C   UNL     1       0.957  -6.532   3.602  0.00  0.00    +0.011 C 
ATOM     13  C   UNL     1      -3.409  -6.747   2.874  0.00  0.00    +0.007 C 
ATOM     14  S   UNL     1       0.053  -4.381  -2.691  0.00  0.00    -0.014 SA
ATOM     15  H   UNL     1       1.149  -4.983   1.378  0.00  0.00    +0.147 HD
ATOM     16  H   UNL     1      -0.130  -7.030  -1.380  0.00  0.00    +0.163 HD
ENDROOT
BRANCH   1  21
ATOM     17  C   UNL     1      -0.017   1.503   0.010  0.00  0.00    +0.044 C 
ATOM     18  C   UNL     1       0.004  -0.004   0.001  0.00  0.00    -0.050 A 
ATOM     19  C   UNL     1       0.967  -0.685   0.722  0.00  0.00    +0.005 A 
ATOM     20  C   UNL     1       0.989  -2.066   0.717  0.00  0.00    +0.025 A 
ATOM     21  C   UNL     1       0.041  -2.771  -0.013  0.00  0.00    +0.052 A 
ATOM     22  C   UNL     1      -0.926  -2.084  -0.736  0.00  0.00    +0.025 A 
ATOM     23  C   UNL     1      -0.945  -0.703  -0.723  0.00  0.00    +0.005 A 
ENDBRANCH   1  21
TORSDOF 1
