REMARK  Name = ZINC39605739
REMARK  8 active torsions:
REMARK  status: ('A' for Active; 'I' for Inactive)
REMARK    1  A    between atoms: C_1  and  C_2
REMARK    2  A    between atoms: C_2  and  C_3
REMARK    3  A    between atoms: C_3  and  C_5
REMARK    4  A    between atoms: C_3  and  C_6
REMARK    5  A    between atoms: C_6  and  N_7
REMARK    6  A    between atoms: C_8  and  C_10
REMARK    7  A    between atoms: C_21  and  C_23
REMARK    8  A    between atoms: C_29  and  C_31
REMARK                            x       y       z     vdW  Elec       q    Type
REMARK                         _______ _______ _______ _____ _____    ______ ____
ROOT
ATOM      1  C   UNL     1       1.919  -4.326   4.096  0.00  0.00    +0.100 C 
ATOM      2  C   UNL     1       3.444  -4.079   4.083  0.00  0.00    +0.121 C 
ATOM      3  N   UNL     1       4.021  -5.266   4.758  0.00  0.00    -0.299 N 
ATOM      4  C   UNL     1       3.205  -6.402   4.265  0.00  0.00    +0.115 C 
ATOM      5  C   UNL     1       1.766  -5.851   4.215  0.00  0.00    -0.004 C 
ATOM      6  C   UNL     1       1.019  -6.209   5.496  0.00  0.00    -0.010 C 
ATOM      7  C   UNL     1       0.830  -7.728   5.564  0.00  0.00    -0.082 C 
ATOM      8  N   UNL     1       0.075  -8.181   4.389  0.00  0.00    +0.379 N 
ATOM      9  C   UNL     1       0.843  -7.916   3.167  0.00  0.00    -0.082 C 
ATOM     10  C   UNL     1       1.032  -6.406   2.998  0.00  0.00    -0.010 C 
ATOM     11  C   UNL     1       5.053  -5.303   5.623  0.00  0.00    +0.236 C 
ATOM     12  O   UNL     1       5.412  -6.362   6.093  0.00  0.00    -0.274 OA
ATOM     13  H   UNL     1      -0.101  -9.172   4.466  0.00  0.00    -0.086 HD
ATOM     14  H   UNL     1      -0.804  -7.689   4.346  0.00  0.00    -0.086 HD
ENDROOT
BRANCH  11  15
ATOM     15  C   UNL     1       5.763  -4.030   6.005  0.00  0.00    +0.162 C 
ATOM     16  C   UNL     1       6.768  -3.638   4.902  0.00  0.00    +0.033 C 
ATOM     17  C   UNL     1       7.976  -3.095   5.710  0.00  0.00    +0.021 C 
ATOM     18  C   UNL     1       7.960  -4.019   6.953  0.00  0.00    +0.109 C 
ATOM     19  N   UNL     1       6.528  -4.237   7.244  0.00  0.00    -0.283 N 
ATOM     20  C   UNL     1       6.008  -4.569   8.442  0.00  0.00    +0.320 C 
ATOM     21  O   UNL     1       4.810  -4.722   8.562  0.00  0.00    -0.266 OA
BRANCH  20  22
ATOM     22  C   UNL     1       6.913  -4.750   9.633  0.00  0.00    +0.470 C 
ATOM     23  F   UNL     1       6.148  -5.090  10.754  0.00  0.00    -0.162 F 
ATOM     24  F   UNL     1       7.833  -5.771   9.369  0.00  0.00    -0.162 F 
ATOM     25  F   UNL     1       7.600  -3.556   9.882  0.00  0.00    -0.162 F 
ENDBRANCH  20  22
ENDBRANCH  11  15
BRANCH   1  27
ATOM     26  N   UNL     1       0.017  -3.413   2.803  0.00  0.00    -0.315 N 
ATOM     27  C   UNL     1       1.297  -3.835   2.813  0.00  0.00    +0.218 C 
ATOM     28  O   UNL     1       1.949  -3.819   1.791  0.00  0.00    -0.275 OA
ATOM     29  H   UNL     1      -0.504  -3.425   3.621  0.00  0.00    +0.149 HD
BRANCH  26  30
ATOM     30  C   UNL     1      -0.587  -2.936   1.557  0.00  0.00    +0.107 C 
BRANCH  30  31
ATOM     31  C   UNL     1      -2.036  -2.520   1.819  0.00  0.00    +0.003 C 
ATOM     32  C   UNL     1      -2.058  -1.318   2.765  0.00  0.00    +0.009 C 
BRANCH  31  34
ATOM     33  C   UNL     1      -4.186  -1.844   0.740  0.00  0.00    +0.004 C 
ATOM     34  C   UNL     1      -2.704  -2.140   0.496  0.00  0.00    +0.001 C 
ENDBRANCH  31  34
ENDBRANCH  30  31
ENDBRANCH  26  30
ENDBRANCH   1  27
TORSDOF 6
