REMARK  Name = ZINC12533019
REMARK  13 active torsions:
REMARK  status: ('A' for Active; 'I' for Inactive)
REMARK    1  A    between atoms: C_1  and  C_2
REMARK    2  A    between atoms: C_3  and  C_34
REMARK    3  A    between atoms: C_4  and  C_33
REMARK    4  A    between atoms: C_7  and  C_8
REMARK    5  A    between atoms: C_8  and  C_10
REMARK    6  A    between atoms: C_10  and  C_12
REMARK    7  A    between atoms: C_10  and  S_13
REMARK    8  A    between atoms: S_13  and  C_14
REMARK    9  A    between atoms: C_17  and  C_27
REMARK   10  A    between atoms: N_18  and  C_19
REMARK   11  A    between atoms: C_22  and  O_25
REMARK   12  A    between atoms: O_25  and  C_26
REMARK   13  A    between atoms: C_34  and  C_36
REMARK                            x       y       z     vdW  Elec       q    Type
REMARK                         _______ _______ _______ _____ _____    ______ ____
ROOT
ATOM      1  C   UNL     1       2.243   0.960  -1.519  0.00  0.00    +0.197 A 
ATOM      2  N   UNL     1       1.609   0.116  -2.304  0.00  0.00    -0.122 NA
ATOM      3  N   UNL     1       2.429  -0.410  -3.142  0.00  0.00    -0.128 NA
ATOM      4  C   UNL     1       3.639   0.058  -2.939  0.00  0.00    +0.169 A 
ATOM      5  N   UNL     1       3.557   0.951  -1.893  0.00  0.00    -0.270 N 
ENDROOT
BRANCH   5   6
ATOM      6  C   UNL     1       4.605   1.695  -1.329  0.00  0.00    +0.051 A 
ATOM      7  C   UNL     1       5.215   2.702  -2.065  0.00  0.00    +0.030 A 
ATOM      8  C   UNL     1       6.242   3.438  -1.507  0.00  0.00    +0.047 A 
ATOM      9  C   UNL     1       6.671   3.164  -0.217  0.00  0.00    +0.120 A 
ATOM     10  C   UNL     1       6.065   2.154   0.516  0.00  0.00    +0.047 A 
ATOM     11  C   UNL     1       5.035   1.421  -0.038  0.00  0.00    +0.030 A 
BRANCH   9  12
ATOM     12  O   UNL     1       7.687   3.885   0.329  0.00  0.00    -0.495 OA
ATOM     13  C   UNL     1       8.265   4.909  -0.482  0.00  0.00    +0.277 C 
ENDBRANCH   9  12
ENDBRANCH   5   6
BRANCH   4  14
ATOM     14  C   UNL     1       4.858  -0.304  -3.692  0.00  0.00    +0.022 A 
ATOM     15  C   UNL     1       4.773  -0.933  -4.940  0.00  0.00    +0.031 A 
ATOM     16  C   UNL     1       5.936  -1.248  -5.610  0.00  0.00    +0.111 A 
ATOM     17  N   UNL     1       7.116  -0.975  -5.085  0.00  0.00    -0.263 NA
ATOM     18  C   UNL     1       7.241  -0.389  -3.909  0.00  0.00    +0.111 A 
ATOM     19  C   UNL     1       6.131  -0.033  -3.174  0.00  0.00    +0.031 A 
ENDBRANCH   4  14
BRANCH   1  20
ATOM     20  S   UNL     1       1.532   1.919  -0.223  0.00  0.00    -0.074 S 
BRANCH  20  21
ATOM     21  C   UNL     1      -0.195   1.390  -0.352  0.00  0.00    +0.124 C 
ATOM     22  C   UNL     1      -0.767   1.842  -1.697  0.00  0.00    +0.028 C 
BRANCH  21  23
ATOM     23  C   UNL     1      -0.994   2.006   0.767  0.00  0.00    +0.192 C 
ATOM     24  O   UNL     1      -0.619   3.039   1.284  0.00  0.00    -0.289 OA
BRANCH  23  31
ATOM     25  C   UNL     1      -2.807   3.079   3.051  0.00  0.00    +0.047 C 
ATOM     26  C   UNL     1      -3.003   1.834   2.225  0.00  0.00    -0.012 A 
ATOM     27  C   UNL     1      -4.064   0.907   2.337  0.00  0.00    +0.041 A 
ATOM     28  C   UNL     1      -3.845  -0.080   1.386  0.00  0.00    +0.024 A 
ATOM     29  N   UNL     1      -2.722   0.213   0.716  0.00  0.00    -0.355 N 
ATOM     30  H   UNL     1      -2.346  -0.315  -0.006  0.00  0.00    +0.166 HD
ATOM     31  C   UNL     1      -2.182   1.380   1.217  0.00  0.00    +0.087 A 
ATOM     32  C   UNL     1      -4.728  -1.276   1.142  0.00  0.00    +0.064 C 
BRANCH  27  33
ATOM     33  C   UNL     1      -5.185   0.975   3.279  0.00  0.00    +0.162 C 
ATOM     34  O   UNL     1      -5.063   0.530   4.401  0.00  0.00    -0.292 OA
ATOM     35  C   UNL     1      -6.490   1.598   2.854  0.00  0.00    +0.091 C 
ENDBRANCH  27  33
ENDBRANCH  23  31
ENDBRANCH  21  23
ENDBRANCH  20  21
ENDBRANCH   1  20
TORSDOF 8
