REMARK  Name = ZINC00657452
REMARK  7 active torsions:
REMARK  status: ('A' for Active; 'I' for Inactive)
REMARK    1  A    between atoms: C_1  and  C_2
REMARK    2  A    between atoms: C_4  and  O_10
REMARK    3  A    between atoms: C_6  and  C_9
REMARK    4  A    between atoms: O_10  and  C_11
REMARK    5  A    between atoms: C_11  and  C_12
REMARK    6  A    between atoms: N_14  and  C_15
REMARK    7  A    between atoms: C_16  and  C_26
REMARK                            x       y       z     vdW  Elec       q    Type
REMARK                         _______ _______ _______ _____ _____    ______ ____
ROOT
ATOM      1  C   UNL     1       0.067  -6.606  -5.178  0.00  0.00    +0.084 A 
ATOM      2  C   UNL     1       0.078  -7.934  -5.554  0.00  0.00    +0.068 A 
ATOM      3  C   UNL     1       0.081  -8.244  -6.989  0.00  0.00    -0.023 A 
ATOM      4  C   UNL     1       0.100  -7.143  -7.760  0.00  0.00    -0.004 A 
ATOM      5  S   UNL     1       0.048  -5.774  -6.634  0.00  0.00    -0.077 S 
ATOM      6  C   UNL     1       0.202  -7.056  -9.257  0.00  0.00    +0.043 C 
ATOM      7  C   UNL     1       1.680  -7.283  -9.626  0.00  0.00    +0.005 C 
ATOM      8  C   UNL     1       2.134  -8.602  -8.991  0.00  0.00    +0.000 C 
ATOM      9  C   UNL     1       1.269  -9.676  -9.617  0.00  0.00    +0.000 C 
ATOM     10  C   UNL     1      -0.087  -9.836  -8.952  0.00  0.00    +0.005 C 
ATOM     11  C   UNL     1      -0.002  -9.700  -7.437  0.00  0.00    +0.037 C 
ENDROOT
BRANCH   2  12
ATOM     12  C   UNL     1       0.087  -9.002  -4.551  0.00  0.00    +0.244 C 
ATOM     13  O   UNL     1      -0.963  -9.455  -4.134  0.00  0.00    -0.270 OA
ATOM     14  N   UNL     1       1.259  -9.484  -4.089  0.00  0.00    -0.325 N 
ATOM     15  H   UNL     1       2.096  -9.123  -4.421  0.00  0.00    +0.145 HD
ATOM     16  H   UNL     1       1.265 -10.191  -3.425  0.00  0.00    +0.145 HD
ENDBRANCH   2  12
BRANCH   1  19
ATOM     17  C   UNL     1       0.049  -4.746  -3.712  0.00  0.00    +0.255 C 
ATOM     18  O   UNL     1       0.034  -4.004  -4.671  0.00  0.00    -0.272 OA
ATOM     19  N   UNL     1       0.067  -6.082  -3.895  0.00  0.00    -0.277 N 
ATOM     20  H   UNL     1       0.079  -6.676  -3.128  0.00  0.00    +0.155 HD
BRANCH  17  21
ATOM     21  C   UNL     1       0.049  -4.176  -2.317  0.00  0.00    +0.324 C 
BRANCH  21  22
ATOM     22  O   UNL     1       0.028  -2.749  -2.386  0.00  0.00    -0.483 OA
BRANCH  22  26
ATOM     23  C   UNL     1      -0.018   1.503   0.010  0.00  0.00    +0.045 C 
ATOM     24  C   UNL     1       0.002  -0.004   0.002  0.00  0.00    -0.028 A 
ATOM     25  C   UNL     1       0.006  -0.688  -1.198  0.00  0.00    +0.050 A 
ATOM     26  C   UNL     1       0.025  -2.075  -1.206  0.00  0.00    +0.122 A 
ATOM     27  C   UNL     1       0.041  -2.773  -0.007  0.00  0.00    +0.050 A 
ATOM     28  C   UNL     1       0.037  -2.085   1.192  0.00  0.00    -0.028 A 
ATOM     29  C   UNL     1       0.023  -0.702   1.197  0.00  0.00    +0.047 A 
ATOM     30 CL   UNL     1       0.025   0.160   2.704  0.00  0.00    -0.083 Cl
ATOM     31  C   UNL     1       0.054  -2.843   2.494  0.00  0.00    +0.045 C 
ENDBRANCH  22  26
ENDBRANCH  21  22
ENDBRANCH  17  21
ENDBRANCH   1  19
TORSDOF 5
