REMARK  Name = ZINC16625409
REMARK  10 active torsions:
REMARK  status: ('A' for Active; 'I' for Inactive)
REMARK    1  A    between atoms: C_1  and  C_2
REMARK    2  A    between atoms: C_5  and  C_12
REMARK    3  A    between atoms: C_7  and  N_8
REMARK    4  A    between atoms: C_9  and  C_11
REMARK    5  A    between atoms: N_17  and  C_19
REMARK    6  A    between atoms: C_19  and  C_21
REMARK    7  A    between atoms: C_19  and  C_22
REMARK    8  A    between atoms: N_24  and  C_25
REMARK    9  A    between atoms: C_27  and  C_32
REMARK   10  A    between atoms: C_29  and  C_31
REMARK                            x       y       z     vdW  Elec       q    Type
REMARK                         _______ _______ _______ _____ _____    ______ ____
ROOT
ATOM      1  C   UNL     1      -0.781   2.134   4.083  0.00  0.00    +0.092 A 
ATOM      2  C   UNL     1      -1.942   2.938   4.013  0.00  0.00    +0.035 A 
ATOM      3  C   UNL     1      -2.377   3.338   2.784  0.00  0.00    +0.074 A 
ATOM      4  C   UNL     1      -1.636   2.927   1.654  0.00  0.00    +0.268 A 
ATOM      5  O   UNL     1      -1.985   3.264   0.534  0.00  0.00    -0.266 OA
ATOM      6  N   UNL     1      -0.544   2.157   1.822  0.00  0.00    -0.217 N 
ATOM      7  N   UNL     1      -0.148   1.789   2.986  0.00  0.00    -0.168 NA
ENDROOT
BRANCH   1  12
ATOM      8  C   UNL     1       1.194   0.359   9.199  0.00  0.00    +0.045 C 
ATOM      9  C   UNL     1       0.676   0.824   7.862  0.00  0.00    -0.029 A 
ATOM     10  C   UNL     1       1.339   0.464   6.703  0.00  0.00    +0.006 A 
ATOM     11  C   UNL     1       0.870   0.886   5.476  0.00  0.00    +0.010 A 
ATOM     12  C   UNL     1      -0.275   1.679   5.402  0.00  0.00    +0.004 A 
ATOM     13  C   UNL     1      -0.940   2.046   6.569  0.00  0.00    +0.033 A 
ATOM     14  C   UNL     1      -0.465   1.614   7.798  0.00  0.00    +0.037 A 
BRANCH  14  15
ATOM     15  N   UNL     1      -1.132   1.976   8.973  0.00  0.00    -0.285 N 
ATOM     16  C   UNL     1      -2.475   2.093   8.977  0.00  0.00    +0.214 C 
ATOM     17  O   UNL     1      -3.098   1.967   7.944  0.00  0.00    -0.276 OA
ATOM     18  C   UNL     1      -3.203   2.381  10.265  0.00  0.00    +0.109 C 
ATOM     19  H   UNL     1      -0.628   2.143   9.785  0.00  0.00    +0.155 HD
ENDBRANCH  14  15
ENDBRANCH   1  12
BRANCH   6  20
ATOM     20  C   UNL     1       0.216   1.732   0.643  0.00  0.00    +0.194 C 
ATOM     21  C   UNL     1       0.238   0.204   0.575  0.00  0.00    +0.043 C 
BRANCH  20  22
ATOM     22  C   UNL     1       1.627   2.251   0.742  0.00  0.00    +0.242 C 
ATOM     23  O   UNL     1       1.965   2.911   1.702  0.00  0.00    -0.273 OA
ATOM     24  N   UNL     1       2.514   1.982  -0.236  0.00  0.00    -0.284 N 
ATOM     25  H   UNL     1       2.270   1.386  -0.961  0.00  0.00    +0.155 HD
BRANCH  24  26
ATOM     26  C   UNL     1       3.786   2.564  -0.207  0.00  0.00    +0.034 A 
ATOM     27  C   UNL     1       4.855   1.932  -0.829  0.00  0.00    +0.026 A 
ATOM     28  C   UNL     1       6.108   2.511  -0.802  0.00  0.00    -0.048 A 
ATOM     29  C   UNL     1       6.302   3.713  -0.148  0.00  0.00    +0.006 A 
ATOM     30  C   UNL     1       5.242   4.342   0.478  0.00  0.00    -0.048 A 
ATOM     31  C   UNL     1       3.984   3.771   0.450  0.00  0.00    +0.026 A 
ATOM     32  C   UNL     1       5.457   5.652   1.191  0.00  0.00    +0.044 C 
ATOM     33  C   UNL     1       7.267   1.829  -1.483  0.00  0.00    +0.044 C 
ENDBRANCH  24  26
ENDBRANCH  20  22
ENDBRANCH   6  20
TORSDOF 5
