REMARK  Name = ZINC24139577
REMARK  10 active torsions:
REMARK  status: ('A' for Active; 'I' for Inactive)
REMARK    1  A    between atoms: C_1  and  C_2
REMARK    2  A    between atoms: C_2  and  C_3
REMARK    3  A    between atoms: C_3  and  C_29
REMARK    4  A    between atoms: N_6  and  N_10
REMARK    5  A    between atoms: C_11  and  C_13
REMARK    6  A    between atoms: C_13  and  S_14
REMARK    7  A    between atoms: S_14  and  C_15
REMARK    8  A    between atoms: C_18  and  C_22
REMARK    9  A    between atoms: N_19  and  C_20
REMARK   10  A    between atoms: C_20  and  C_21
REMARK                            x       y       z     vdW  Elec       q    Type
REMARK                         _______ _______ _______ _____ _____    ______ ____
ROOT
ATOM      1  N   UNL     1      -0.238   6.674   0.144  0.00  0.00    -0.223 N 
ATOM      2  C   UNL     1       0.760   5.769   0.102  0.00  0.00    +0.240 C 
ATOM      3  O   UNL     1       1.914   6.140   0.083  0.00  0.00    -0.273 OA
ATOM      4  H   UNL     1      -1.285   6.338   0.162  0.00  0.00    +0.174 HD
ENDROOT
BRANCH   1   8
ATOM      5  C   UNL     1       0.348  10.235  -0.412  0.00  0.00    +0.139 C 
ATOM      6  C   UNL     1      -0.088   8.866  -0.894  0.00  0.00    +0.268 C 
ATOM      7  O   UNL     1      -0.485   8.571  -2.001  0.00  0.00    -0.271 OA
ATOM      8  N   UNL     1       0.059   8.043   0.164  0.00  0.00    -0.137 N 
ATOM      9  C   UNL     1       0.517   8.697   1.237  0.00  0.00    +0.327 C 
ATOM     10  O   UNL     1       0.726   8.169   2.312  0.00  0.00    -0.251 OA
ATOM     11  N   UNL     1       0.725  10.004   0.993  0.00  0.00    -0.280 N 
ATOM     12  H   UNL     1       1.093  10.838   1.609  0.00  0.00    +0.152 HD
BRANCH   5  13
ATOM     13  C   UNL     1      -0.791  11.217  -0.504  0.00  0.00    -0.015 A 
ATOM     14  C   UNL     1      -0.967  11.967  -1.651  0.00  0.00    +0.006 A 
ATOM     15  C   UNL     1      -2.015  12.864  -1.738  0.00  0.00    +0.000 A 
ATOM     16  C   UNL     1      -2.882  13.019  -0.672  0.00  0.00    +0.000 A 
ATOM     17  C   UNL     1      -2.703  12.273   0.478  0.00  0.00    +0.000 A 
ATOM     18  C   UNL     1      -1.658  11.372   0.562  0.00  0.00    +0.006 A 
ENDBRANCH   5  13
BRANCH   5  20
ATOM     19  C   UNL     1       2.709   9.744  -1.065  0.00  0.00    +0.007 C 
ATOM     20  C   UNL     1       1.550  10.732  -1.217  0.00  0.00    +0.037 C 
ENDBRANCH   5  20
ENDBRANCH   1   8
BRANCH   2  21
ATOM     21  C   UNL     1       0.441   4.296   0.081  0.00  0.00    +0.174 C 
BRANCH  21  22
ATOM     22  S   UNL     1       1.980   3.346   0.026  0.00  0.00    -0.077 S 
BRANCH  22  23
ATOM     23  C   UNL     1       1.329   1.709   0.009  0.00  0.00    +0.192 A 
ATOM     24  N   UNL     1       0.058   1.376   0.031  0.00  0.00    -0.122 NA
ATOM     25  N   UNL     1      -0.064   0.096   0.008  0.00  0.00    -0.128 NA
ATOM     26  C   UNL     1       1.122  -0.465  -0.031  0.00  0.00    +0.165 A 
ATOM     27  N   UNL     1       2.050   0.550  -0.032  0.00  0.00    -0.302 N 
BRANCH  26  28
ATOM     28  C   UNL     1       1.407  -1.915  -0.068  0.00  0.00    +0.019 A 
ATOM     29  C   UNL     1       2.649  -2.375  -0.508  0.00  0.00    +0.013 A 
ATOM     30  C   UNL     1       2.910  -3.729  -0.536  0.00  0.00    +0.021 A 
ATOM     31  C   UNL     1       1.939  -4.633  -0.138  0.00  0.00    +0.041 A 
ATOM     32  C   UNL     1       0.703  -4.183   0.295  0.00  0.00    +0.021 A 
ATOM     33  C   UNL     1       0.432  -2.831   0.332  0.00  0.00    +0.013 A 
ATOM     34 CL   UNL     1       2.273  -6.336  -0.182  0.00  0.00    -0.084 Cl
ENDBRANCH  26  28
BRANCH  27  35
ATOM     35  C   UNL     1       3.509   0.417  -0.068  0.00  0.00    +0.122 C 
ATOM     36  C   UNL     1       3.994   0.512  -1.516  0.00  0.00    +0.027 C 
ENDBRANCH  27  35
ENDBRANCH  22  23
ENDBRANCH  21  22
ENDBRANCH   2  21
TORSDOF 8
