REMARK  Name = ZINC20453278
REMARK  7 active torsions:
REMARK  status: ('A' for Active; 'I' for Inactive)
REMARK    1  A    between atoms: C_4  and  C_7
REMARK    2  A    between atoms: C_7  and  C_8
REMARK    3  A    between atoms: C_8  and  C_9
REMARK    4  A    between atoms: C_9  and  N_10
REMARK    5  A    between atoms: C_13  and  C_15
REMARK    6  A    between atoms: N_25  and  C_28
REMARK    7  A    between atoms: C_28  and  C_29
REMARK                            x       y       z     vdW  Elec       q    Type
REMARK                         _______ _______ _______ _____ _____    ______ ____
ROOT
ATOM      1  N   UNL     1      -2.063   1.972   2.522  0.00  0.00    -0.267 N 
ATOM      2  C   UNL     1      -1.487   2.199   1.333  0.00  0.00    +0.040 A 
ATOM      3  C   UNL     1      -0.546   1.236   1.150  0.00  0.00    -0.011 A 
ATOM      4  C   UNL     1      -0.592   0.429   2.297  0.00  0.00    +0.149 A 
ATOM      5  N   UNL     1      -1.531   0.936   3.079  0.00  0.00    -0.166 NA
ATOM      6  C   UNL     1       0.323   1.135  -0.072  0.00  0.00    -0.039 C 
ATOM      7  N   UNL     1      -0.276   1.965  -1.133  0.00  0.00    +0.383 N 
ATOM      8  C   UNL     1      -0.571   3.322  -0.653  0.00  0.00    -0.072 C 
ATOM      9  C   UNL     1      -1.757   3.283   0.321  0.00  0.00    +0.037 C 
ATOM     10  H   UNL     1      -1.231   1.502  -1.421  0.00  0.00    -0.081 HD
ENDROOT
BRANCH   4  11
ATOM     11  C   UNL     1       0.244  -0.756   2.577  0.00  0.00    +0.267 C 
ATOM     12  O   UNL     1       0.997  -1.184   1.723  0.00  0.00    -0.268 OA
ATOM     13  N   UNL     1       0.173  -1.362   3.778  0.00  0.00    -0.286 N 
ATOM     14  C   UNL     1       0.890  -2.621   4.045  0.00  0.00    +0.127 C 
ATOM     15  C   UNL     1       1.893  -2.363   5.178  0.00  0.00    +0.123 C 
ATOM     16  N   UNL     1       1.259  -1.642   6.273  0.00  0.00    -0.313 N 
ATOM     17  C   UNL     1       0.156  -0.902   6.154  0.00  0.00    +0.230 C 
ATOM     18  O   UNL     1      -0.233  -0.283   7.123  0.00  0.00    -0.274 OA
ATOM     19  C   UNL     1      -0.628  -0.797   4.875  0.00  0.00    +0.203 C 
ATOM     20  H   UNL     1       1.691  -1.687   7.284  0.00  0.00    +0.149 HD
ENDBRANCH   4  11
BRANCH   1  21
ATOM     21  C   UNL     1      -3.136   2.782   3.104  0.00  0.00    +0.144 C 
BRANCH  21  22
ATOM     22  C   UNL     1      -4.492   2.221   2.671  0.00  0.00    +0.028 C 
BRANCH  22  23
ATOM     23  C   UNL     1      -5.612   3.067   3.279  0.00  0.00    +0.037 C 
BRANCH  23  27
ATOM     24  C   UNL     1      -9.397   1.500   2.068  0.00  0.00    +0.000 A 
ATOM     25  C   UNL     1      -8.798   1.043   3.228  0.00  0.00    +0.000 A 
ATOM     26  C   UNL     1      -7.573   1.550   3.619  0.00  0.00    +0.003 A 
ATOM     27  C   UNL     1      -6.947   2.514   2.852  0.00  0.00    -0.047 A 
ATOM     28  C   UNL     1      -7.548   2.975   1.695  0.00  0.00    +0.003 A 
ATOM     29  C   UNL     1      -8.771   2.464   1.301  0.00  0.00    +0.000 A 
ENDBRANCH  23  27
ENDBRANCH  22  23
ENDBRANCH  21  22
ENDBRANCH   1  21
BRANCH   7  30
ATOM     30  C   UNL     1       0.586   2.002  -2.322  0.00  0.00    -0.075 C 
BRANCH  30  31
ATOM     31  C   UNL     1       1.861   2.786  -2.003  0.00  0.00    -0.028 C 
ATOM     32  C   UNL     1       2.128   4.059  -2.809  0.00  0.00    +0.002 C 
ATOM     33  C   UNL     1       2.964   2.803  -3.063  0.00  0.00    +0.002 C 
ENDBRANCH  30  31
ENDBRANCH   7  30
TORSDOF 7
