REMARK  Name = ZINC27457042
REMARK  21 active torsions:
REMARK  status: ('A' for Active; 'I' for Inactive)
REMARK    1  A    between atoms: C_1  and  C_2
REMARK    2  A    between atoms: C_2  and  C_3
REMARK    3  A    between atoms: C_3  and  N_4
REMARK    4  A    between atoms: C_8  and  S_27
REMARK    5  A    between atoms: C_12  and  C_13
REMARK    6  A    between atoms: C_13  and  C_14
REMARK    7  A    between atoms: C_14  and  C_15
REMARK    8  A    between atoms: N_17  and  C_18
REMARK    9  A    between atoms: C_18  and  C_19
REMARK   10  A    between atoms: C_19  and  N_20
REMARK   11  A    between atoms: N_20  and  C_21
REMARK   12  A    between atoms: N_20  and  C_24
REMARK   13  A    between atoms: C_21  and  C_22
REMARK   14  A    between atoms: C_21  and  C_23
REMARK   15  A    between atoms: C_24  and  C_25
REMARK   16  A    between atoms: C_24  and  C_26
REMARK   17  A    between atoms: S_27  and  N_30
REMARK   18  A    between atoms: N_30  and  C_31
REMARK   19  A    between atoms: N_30  and  C_33
REMARK   20  A    between atoms: C_31  and  C_32
REMARK   21  A    between atoms: C_33  and  C_34
REMARK                            x       y       z     vdW  Elec       q    Type
REMARK                         _______ _______ _______ _____ _____    ______ ____
ROOT
ATOM      1  N   UNL     1       1.535  -0.287  -0.841  0.00  0.00    -0.328 N 
ATOM      2  C   UNL     1       2.378   0.799  -0.968  0.00  0.00    +0.069 A 
ATOM      3  C   UNL     1       3.756   0.951  -1.034  0.00  0.00    +0.030 A 
ATOM      4  C   UNL     1       4.298   2.212  -1.166  0.00  0.00    +0.030 A 
ATOM      5  C   UNL     1       3.476   3.328  -1.233  0.00  0.00    +0.108 A 
ATOM      6  C   UNL     1       2.118   3.197  -1.169  0.00  0.00    +0.058 A 
ATOM      7  C   UNL     1       1.546   1.929  -1.035  0.00  0.00    +0.091 A 
ATOM      8  N   UNL     1       0.266   1.484  -0.948  0.00  0.00    -0.232 NA
ATOM      9  C   UNL     1       0.261   0.188  -0.834  0.00  0.00    +0.111 A 
ENDROOT
BRANCH   5  10
ATOM     10  S   UNL     1       4.192   4.929  -1.401  0.00  0.00    +0.061 S 
ATOM     11  O   UNL     1       3.241   5.854  -0.893  0.00  0.00    -0.153 OA
ATOM     12  O   UNL     1       5.515   4.839  -0.891  0.00  0.00    -0.153 OA
BRANCH  10  13
ATOM     13  N   UNL     1       4.330   5.235  -3.023  0.00  0.00    -0.177 NA
BRANCH  13  14
ATOM     14  C   UNL     1       3.232   5.888  -3.741  0.00  0.00    +0.106 C 
ATOM     15  C   UNL     1       3.490   7.395  -3.806  0.00  0.00    +0.022 C 
ENDBRANCH  13  14
BRANCH  13  16
ATOM     16  C   UNL     1       5.549   4.853  -3.740  0.00  0.00    +0.106 C 
ATOM     17  C   UNL     1       5.351   3.481  -4.387  0.00  0.00    +0.022 C 
ENDBRANCH  13  16
ENDBRANCH  10  13
ENDBRANCH   5  10
BRANCH   1  18
ATOM     18  C   UNL     1       1.939  -1.691  -0.733  0.00  0.00    +0.123 C 
BRANCH  18  20
ATOM     19  C   UNL     1       2.446  -3.772  -2.018  0.00  0.00    +0.005 C 
ATOM     20  C   UNL     1       2.025  -2.306  -2.131  0.00  0.00    +0.018 C 
ENDBRANCH  18  20
ENDBRANCH   1  18
BRANCH   9  21
ATOM     21  C   UNL     1      -0.977  -0.663  -0.712  0.00  0.00    +0.083 C 
BRANCH  21  22
ATOM     22  C   UNL     1      -1.451  -1.077  -2.106  0.00  0.00    +0.103 C 
BRANCH  22  23
ATOM     23  C   UNL     1      -2.689  -1.928  -1.984  0.00  0.00    +0.213 C 
ATOM     24  O   UNL     1      -3.147  -2.178  -0.890  0.00  0.00    -0.276 OA
ATOM     25  N   UNL     1      -3.286  -2.410  -3.092  0.00  0.00    -0.317 N 
ATOM     26  H   UNL     1      -2.870  -2.183  -4.085  0.00  0.00    +0.149 HD
BRANCH  25  27
ATOM     27  C   UNL     1      -4.490  -3.238  -2.973  0.00  0.00    +0.085 C 
BRANCH  27  28
ATOM     28  C   UNL     1      -4.963  -3.652  -4.368  0.00  0.00    -0.059 C 
BRANCH  28  29
ATOM     29  N   UNL     1      -6.087  -4.590  -4.245  0.00  0.00    +0.384 N 
ATOM     30  H   UNL     1      -5.816  -5.346  -3.493  0.00  0.00    -0.081 HD
BRANCH  29  31
ATOM     31  C   UNL     1      -7.298  -3.902  -3.777  0.00  0.00    -0.074 C 
ATOM     32  C   UNL     1      -7.345  -3.937  -2.248  0.00  0.00    -0.014 C 
ATOM     33  C   UNL     1      -7.275  -2.449  -4.254  0.00  0.00    -0.014 C 
ENDBRANCH  29  31
BRANCH  29  34
ATOM     34  C   UNL     1      -6.334  -5.285  -5.515  0.00  0.00    -0.074 C 
ATOM     35  C   UNL     1      -7.317  -6.435  -5.285  0.00  0.00    -0.014 C 
ATOM     36  C   UNL     1      -6.927  -4.302  -6.527  0.00  0.00    -0.014 C 
ENDBRANCH  29  34
ENDBRANCH  28  29
ENDBRANCH  27  28
ENDBRANCH  25  27
ENDBRANCH  22  23
ENDBRANCH  21  22
ENDBRANCH   9  21
TORSDOF 14
