REMARK  Name = ZINC38703089
REMARK  10 active torsions:
REMARK  status: ('A' for Active; 'I' for Inactive)
REMARK    1  A    between atoms: C_1  and  C_2
REMARK    2  A    between atoms: C_2  and  C_3
REMARK    3  A    between atoms: C_3  and  O_4
REMARK    4  A    between atoms: O_4  and  C_5
REMARK    5  A    between atoms: C_8  and  C_14
REMARK    6  A    between atoms: C_10  and  O_11
REMARK    7  A    between atoms: O_11  and  C_12
REMARK    8  A    between atoms: C_12  and  C_13
REMARK    9  A    between atoms: C_21  and  C_31
REMARK   10  A    between atoms: C_22  and  C_30
REMARK                            x       y       z     vdW  Elec       q    Type
REMARK                         _______ _______ _______ _____ _____    ______ ____
ROOT
ATOM      1  C   UNL     1       3.349  -4.483   5.547  0.00  0.00    +0.142 C 
ATOM      2  C   UNL     1       4.829  -4.449   5.352  0.00  0.00    +0.072 A 
ATOM      3  C   UNL     1       5.678  -5.015   4.298  0.00  0.00    +0.199 A 
ATOM      4  O   UNL     1       5.235  -5.492   3.268  0.00  0.00    -0.287 OA
ATOM      5  C   UNL     1       7.129  -4.949   4.605  0.00  0.00    +0.065 A 
ATOM      6  C   UNL     1       8.052  -5.619   3.801  0.00  0.00    +0.019 A 
ATOM      7  C   UNL     1       9.385  -5.553   4.100  0.00  0.00    -0.047 A 
ATOM      8  C   UNL     1       9.819  -4.824   5.199  0.00  0.00    -0.044 A 
ATOM      9  C   UNL     1       8.922  -4.155   6.001  0.00  0.00    +0.050 A 
ATOM     10  C   UNL     1       7.558  -4.205   5.716  0.00  0.00    +0.140 A 
ATOM     11  O   UNL     1       6.695  -3.533   6.512  0.00  0.00    -0.450 OA
ATOM     12  C   UNL     1       5.371  -3.751   6.394  0.00  0.00    +0.199 A 
ATOM     13  C   UNL     1       4.276  -3.326   7.283  0.00  0.00    +0.281 C 
ATOM     14  O   UNL     1       4.420  -2.687   8.307  0.00  0.00    -0.267 OA
ATOM     15  N   UNL     1       3.090  -3.749   6.796  0.00  0.00    -0.298 N 
ATOM     16  C   UNL     1      11.291  -4.763   5.516  0.00  0.00    +0.044 C 
ATOM     17  C   UNL     1      10.385  -6.275   3.235  0.00  0.00    +0.044 C 
ATOM     18  H   UNL     1       2.220  -3.596   7.198  0.00  0.00    +0.150 HD
ENDROOT
BRANCH   1  22
ATOM     19  C   UNL     1       1.386  -2.554   2.274  0.00  0.00    +0.162 A 
ATOM     20  C   UNL     1       1.962  -1.799   3.283  0.00  0.00    +0.050 A 
ATOM     21  C   UNL     1       2.595  -2.425   4.340  0.00  0.00    +0.009 A 
ATOM     22  C   UNL     1       2.656  -3.805   4.393  0.00  0.00    -0.019 A 
ATOM     23  C   UNL     1       2.084  -4.565   3.389  0.00  0.00    +0.055 A 
ATOM     24  C   UNL     1       1.442  -3.944   2.330  0.00  0.00    +0.162 A 
BRANCH  19  25
ATOM     25  O   UNL     1       0.761  -1.940   1.234  0.00  0.00    -0.488 OA
BRANCH  25  26
ATOM     26  C   UNL     1       0.742  -0.511   1.242  0.00  0.00    +0.229 C 
BRANCH  26  28
ATOM     27  C   UNL     1      -0.019   1.526   0.010  0.00  0.00    +0.007 C 
ATOM     28  C   UNL     1       0.002  -0.004   0.002  0.00  0.00    +0.038 C 
ENDBRANCH  26  28
ENDBRANCH  25  26
ENDBRANCH  19  25
BRANCH  24  29
ATOM     29  O   UNL     1       0.874  -4.690   1.346  0.00  0.00    -0.489 OA
BRANCH  29  30
ATOM     30  C   UNL     1       0.971  -6.110   1.470  0.00  0.00    +0.226 C 
ATOM     31  C   UNL     1       0.279  -6.774   0.278  0.00  0.00    +0.048 C 
ENDBRANCH  29  30
ENDBRANCH  24  29
ENDBRANCH   1  22
TORSDOF 6
