REMARK  Name = ZINC21981449
REMARK  10 active torsions:
REMARK  status: ('A' for Active; 'I' for Inactive)
REMARK    1  A    between atoms: C_1  and  C_2
REMARK    2  A    between atoms: C_18  and  C_36
REMARK    3  A    between atoms: C_20  and  O_34
REMARK    4  A    between atoms: C_23  and  C_33
REMARK    5  A    between atoms: C_24  and  C_25
REMARK    6  A    between atoms: C_24  and  O_29
REMARK    7  A    between atoms: C_25  and  C_27
REMARK    8  A    between atoms: C_27  and  O_28
REMARK    9  A    between atoms: O_29  and  C_30
REMARK   10  A    between atoms: C_30  and  C_32
REMARK                            x       y       z     vdW  Elec       q    Type
REMARK                         _______ _______ _______ _____ _____    ______ ____
ROOT
ATOM      1  C   UNL     1      -1.939   4.166   0.349  0.00  0.00    +0.012 C 
ATOM      2  C   UNL     1      -2.385   2.709   0.205  0.00  0.00    +0.038 C 
ATOM      3  C   UNL     1      -1.222   1.849  -0.361  0.00  0.00    +0.012 C 
ATOM      4  C   UNL     1      -1.508   1.827  -1.867  0.00  0.00    +0.006 C 
ATOM      5  C   UNL     1      -0.881   0.682  -2.641  0.00  0.00    +0.037 C 
ATOM      6  C   UNL     1       0.644   0.789  -2.583  0.00  0.00    +0.048 C 
ATOM      7  C   UNL     1       1.271  -0.393  -3.329  0.00  0.00    +0.194 C 
ATOM      8  C   UNL     1       0.708  -0.416  -4.737  0.00  0.00    -0.020 C 
ATOM      9  C   UNL     1       1.548  -0.460  -5.762  0.00  0.00    +0.054 C 
ATOM     10  C   UNL     1       1.043  -0.451  -7.144  0.00  0.00    +0.179 C 
ATOM     11  O   UNL     1       1.809  -0.527  -8.087  0.00  0.00    -0.288 OA
ATOM     12  C   UNL     1      -0.410  -0.347  -7.360  0.00  0.00    +0.047 C 
ATOM     13  C   UNL     1      -1.230  -0.310  -6.322  0.00  0.00    -0.009 C 
ATOM     14  C   UNL     1      -0.782  -0.375  -4.902  0.00  0.00    +0.047 C 
ATOM     15  C   UNL     1      -1.351   0.799  -4.100  0.00  0.00    +0.153 C 
ATOM     16  C   UNL     1      -2.873   0.791  -4.203  0.00  0.00    +0.154 C 
ATOM     17  C   UNL     1      -3.510   1.869  -3.312  0.00  0.00    +0.045 C 
ATOM     18  C   UNL     1      -3.048   1.631  -1.892  0.00  0.00    +0.021 C 
ATOM     19  C   UNL     1      -3.542   2.603  -0.826  0.00  0.00    +0.181 C 
ATOM     20  C   UNL     1      -3.395   0.195  -1.491  0.00  0.00    +0.016 C 
ATOM     21  F   UNL     1      -0.859   1.989  -4.648  0.00  0.00    -0.238 F 
ATOM     22  C   UNL     1      -1.337  -1.665  -4.295  0.00  0.00    +0.023 C 
ATOM     23  F   UNL     1       2.661  -0.237  -3.378  0.00  0.00    -0.241 F 
ENDROOT
BRANCH  19  24
ATOM     24  C   UNL     1      -4.784   2.065  -0.164  0.00  0.00    +0.202 C 
ATOM     25  O   UNL     1      -4.694   1.415   0.850  0.00  0.00    -0.291 OA
BRANCH  24  26
ATOM     26  C   UNL     1      -6.138   2.338  -0.765  0.00  0.00    +0.234 C 
BRANCH  26  27
ATOM     27  O   UNL     1      -7.138   1.628  -0.031  0.00  0.00    -0.387 OA
ATOM     28  H   UNL     1      -8.195   1.705  -0.325  0.00  0.00    +0.210 HD
ENDBRANCH  26  27
ENDBRANCH  24  26
ENDBRANCH  19  24
BRANCH  16  29
ATOM     29  O   UNL     1      -3.361  -0.491  -3.801  0.00  0.00    -0.389 OA
ATOM     30  H   UNL     1      -4.441  -0.695  -3.807  0.00  0.00    +0.210 HD
ENDBRANCH  16  29
BRANCH  19  31
ATOM     31  O   UNL     1      -3.811   3.902  -1.417  0.00  0.00    -0.450 OA
BRANCH  31  32
ATOM     32  C   UNL     1      -4.361   4.832  -0.620  0.00  0.00    +0.305 C 
ATOM     33  O   UNL     1      -4.655   4.555   0.519  0.00  0.00    -0.251 OA
ATOM     34  C   UNL     1      -4.613   6.222  -1.146  0.00  0.00    +0.136 C 
ENDBRANCH  31  32
ENDBRANCH  19  31
TORSDOF 6
