REMARK  Name = ZINC00931124
REMARK  10 active torsions:
REMARK  status: ('A' for Active; 'I' for Inactive)
REMARK    1  A    between atoms: C_1  and  O_2
REMARK    2  A    between atoms: O_2  and  C_3
REMARK    3  A    between atoms: C_3  and  C_5
REMARK    4  A    between atoms: C_8  and  C_11
REMARK    5  A    between atoms: C_11  and  C_13
REMARK    6  A    between atoms: C_11  and  N_22
REMARK    7  A    between atoms: N_15  and  C_16
REMARK    8  A    between atoms: N_22  and  C_23
REMARK    9  A    between atoms: C_23  and  C_24
REMARK   10  A    between atoms: C_29  and  C_31
REMARK                            x       y       z     vdW  Elec       q    Type
REMARK                         _______ _______ _______ _____ _____    ______ ____
ROOT
ATOM      1  C   UNL     1      -2.692   0.557  -1.021  0.00  0.00    +0.193 C 
ENDROOT
BRANCH   1   5
ATOM      2  C   UNL     1      -3.797  -1.859  -4.371  0.00  0.00    +0.059 A 
ATOM      3  C   UNL     1      -3.050  -2.408  -3.326  0.00  0.00    +0.015 A 
ATOM      4  C   UNL     1      -2.697  -1.623  -2.248  0.00  0.00    +0.007 A 
ATOM      5  C   UNL     1      -3.081  -0.294  -2.201  0.00  0.00    -0.018 A 
ATOM      6  C   UNL     1      -3.825   0.255  -3.231  0.00  0.00    +0.007 A 
ATOM      7  C   UNL     1      -4.180  -0.518  -4.317  0.00  0.00    +0.015 A 
BRANCH   2   8
ATOM      8  C   UNL     1      -4.178  -2.694  -5.529  0.00  0.00    +0.339 C 
ATOM      9  O   UNL     1      -3.843  -3.861  -5.573  0.00  0.00    -0.245 OA
BRANCH   8  11
ATOM     10  C   UNL     1      -5.237  -3.041  -7.640  0.00  0.00    +0.280 C 
ATOM     11  O   UNL     1      -4.898  -2.162  -6.535  0.00  0.00    -0.464 OA
ENDBRANCH   8  11
ENDBRANCH   2   8
ENDBRANCH   1   5
BRANCH   1  12
ATOM     12  C   UNL     1      -2.735   2.012  -1.414  0.00  0.00    +0.238 C 
ATOM     13  O   UNL     1      -3.475   2.776  -0.831  0.00  0.00    -0.273 OA
ATOM     14  N   UNL     1      -1.952   2.463  -2.413  0.00  0.00    -0.311 N 
ATOM     15  H   UNL     1      -1.360   1.852  -2.880  0.00  0.00    +0.149 HD
BRANCH  14  16
ATOM     16  C   UNL     1      -1.998   3.875  -2.800  0.00  0.00    +0.073 C 
ATOM     17  C   UNL     1      -3.145   4.096  -3.788  0.00  0.00    +0.022 C 
ATOM     18  C   UNL     1      -3.194   5.571  -4.192  0.00  0.00    +0.002 C 
ATOM     19  C   UNL     1      -1.870   5.964  -4.851  0.00  0.00    +0.000 C 
ATOM     20  C   UNL     1      -0.723   5.743  -3.862  0.00  0.00    +0.002 C 
ATOM     21  C   UNL     1      -0.674   4.268  -3.459  0.00  0.00    +0.022 C 
ENDBRANCH  14  16
ENDBRANCH   1  12
BRANCH   1  22
ATOM     22  N   UNL     1      -3.627   0.321   0.081  0.00  0.00    -0.275 N 
ATOM     23  C   UNL     1      -3.166  -0.074   1.284  0.00  0.00    +0.261 C 
ATOM     24  O   UNL     1      -1.994  -0.356   1.422  0.00  0.00    -0.271 OA
BRANCH  23  25
ATOM     25  C   UNL     1      -4.106  -0.167   2.458  0.00  0.00    +0.296 C 
ATOM     26  C   UNL     1      -4.425   1.241   2.979  0.00  0.00    +0.283 C 
ATOM     27  O   UNL     1      -5.307   1.116   4.099  0.00  0.00    -0.484 OA
ATOM     28  C   UNL     1      -4.979   0.183   5.035  0.00  0.00    +0.162 A 
ATOM     29  C   UNL     1      -5.562   0.245   6.292  0.00  0.00    +0.049 A 
ATOM     30  C   UNL     1      -5.243  -0.699   7.250  0.00  0.00    +0.004 A 
ATOM     31  C   UNL     1      -4.343  -1.707   6.958  0.00  0.00    +0.004 A 
ATOM     32  C   UNL     1      -3.758  -1.774   5.708  0.00  0.00    +0.049 A 
ATOM     33  C   UNL     1      -4.072  -0.829   4.742  0.00  0.00    +0.163 A 
ATOM     34  O   UNL     1      -3.486  -0.906   3.516  0.00  0.00    -0.473 OA
ENDBRANCH  23  25
BRANCH  22  35
ATOM     35  C   UNL     1      -5.065   0.515  -0.124  0.00  0.00    +0.183 C 
BRANCH  35  36
ATOM     36  C   UNL     1      -5.711  -0.810  -0.436  0.00  0.00    +0.122 A 
ATOM     37  C   UNL     1      -6.561  -1.478   0.363  0.00  0.00    +0.046 A 
ATOM     38  C   UNL     1      -6.921  -2.663  -0.320  0.00  0.00    +0.041 A 
ATOM     39  C   UNL     1      -6.262  -2.651  -1.493  0.00  0.00    +0.195 A 
ATOM     40  O   UNL     1      -5.531  -1.526  -1.558  0.00  0.00    -0.466 OA
ENDBRANCH  35  36
ENDBRANCH  22  35
ENDBRANCH   1  22
TORSDOF 9
