REMARK  Name = ZINC22218851
REMARK  4 active torsions:
REMARK  status: ('A' for Active; 'I' for Inactive)
REMARK    1  A    between atoms: C_1  and  C_2
REMARK    2  A    between atoms: C_9  and  C_13
REMARK    3  A    between atoms: C_13  and  S_14
REMARK    4  A    between atoms: S_14  and  C_15
REMARK                            x       y       z     vdW  Elec       q    Type
REMARK                         _______ _______ _______ _____ _____    ______ ____
ROOT
ATOM      1  C   UNL     1      -0.013   1.086   0.008  0.00  0.00    +0.044 C 
ATOM      2  C   UNL     1      -0.718   1.572   1.248  0.00  0.00    -0.046 A 
ATOM      3  C   UNL     1      -2.102   1.794   1.231  0.00  0.00    +0.021 A 
ATOM      4  C   UNL     1      -2.735   2.225   2.345  0.00  0.00    +0.096 A 
ATOM      5  N   UNL     1      -2.040   2.459   3.493  0.00  0.00    -0.268 N 
ATOM      6  C   UNL     1      -0.689   2.257   3.539  0.00  0.00    +0.141 A 
ATOM      7  C   UNL     1      -0.014   1.804   2.391  0.00  0.00    +0.050 A 
ATOM      8  N   UNL     1      -0.002   2.485   4.658  0.00  0.00    -0.233 NA
ATOM      9  C   UNL     1      -0.601   2.910   5.759  0.00  0.00    +0.059 A 
ATOM     10  C   UNL     1      -1.965   3.130   5.764  0.00  0.00    +0.094 A 
ATOM     11  C   UNL     1      -2.693   2.895   4.592  0.00  0.00    +0.259 A 
ATOM     12  O   UNL     1      -3.899   3.079   4.564  0.00  0.00    -0.267 OA
ENDROOT
BRANCH   9  13
ATOM     13  C   UNL     1       0.206   3.156   7.008  0.00  0.00    +0.134 C 
BRANCH  13  14
ATOM     14  S   UNL     1       0.646   1.571   7.763  0.00  0.00    -0.061 S 
BRANCH  14  15
ATOM     15  C   UNL     1       1.557   2.141   9.160  0.00  0.00    +0.258 A 
ATOM     16  N   UNL     1       1.782   3.398   9.447  0.00  0.00    -0.203 NA
ATOM     17  C   UNL     1       2.512   3.460  10.595  0.00  0.00    +0.110 A 
ATOM     18  C   UNL     1       3.028   4.512  11.353  0.00  0.00    +0.033 A 
ATOM     19  C   UNL     1       3.752   4.242  12.494  0.00  0.00    +0.022 A 
ATOM     20  C   UNL     1       3.970   2.931  12.892  0.00  0.00    +0.045 A 
ATOM     21  C   UNL     1       3.465   1.881  12.150  0.00  0.00    +0.068 A 
ATOM     22  C   UNL     1       2.736   2.136  11.001  0.00  0.00    +0.158 A 
ATOM     23  O   UNL     1       2.127   1.347  10.085  0.00  0.00    -0.431 OA
ATOM     24 CL   UNL     1       4.884   2.608  14.332  0.00  0.00    -0.083 Cl
ENDBRANCH  14  15
ENDBRANCH  13  14
ENDBRANCH   9  13
TORSDOF 3
