REMARK  Name = ZINC40361293
REMARK  11 active torsions:
REMARK  status: ('A' for Active; 'I' for Inactive)
REMARK    1  A    between atoms: C_1  and  C_2
REMARK    2  A    between atoms: C_2  and  C_3
REMARK    3  A    between atoms: C_3  and  C_5
REMARK    4  A    between atoms: C_3  and  C_6
REMARK    5  A    between atoms: C_6  and  C_8
REMARK    6  A    between atoms: C_6  and  N_24
REMARK    7  A    between atoms: C_16  and  C_18
REMARK    8  A    between atoms: N_27  and  C_28
REMARK    9  A    between atoms: C_28  and  C_29
REMARK   10  A    between atoms: C_28  and  C_30
REMARK   11  A    between atoms: C_28  and  C_31
REMARK                            x       y       z     vdW  Elec       q    Type
REMARK                         _______ _______ _______ _____ _____    ______ ____
ROOT
ATOM      1  C   UNL     1      -0.291  -0.935   3.682  0.00  0.00    +0.236 C 
ATOM      2  O   UNL     1      -0.042  -0.249   4.650  0.00  0.00    -0.274 OA
ATOM      3  N   UNL     1       0.095  -2.227   3.655  0.00  0.00    -0.297 N 
ATOM      4  C   UNL     1      -0.097  -3.039   2.445  0.00  0.00    +0.127 C 
ATOM      5  C   UNL     1       1.257  -3.631   2.033  0.00  0.00    +0.126 C 
ATOM      6  N   UNL     1       1.876  -4.252   3.213  0.00  0.00    -0.298 N 
ATOM      7  C   UNL     1       2.067  -3.439   4.422  0.00  0.00    +0.126 C 
ATOM      8  C   UNL     1       0.719  -2.846   4.832  0.00  0.00    +0.127 C 
ATOM      9  C   UNL     1       2.262  -5.543   3.185  0.00  0.00    +0.219 C 
ATOM     10  O   UNL     1       2.196  -6.174   2.152  0.00  0.00    -0.275 OA
ENDROOT
BRANCH   9  11
ATOM     11  C   UNL     1       2.774  -6.203   4.439  0.00  0.00    +0.075 C 
ATOM     12  C   UNL     1       4.117  -5.583   4.830  0.00  0.00    +0.013 C 
ATOM     13  C   UNL     1       4.637  -6.253   6.103  0.00  0.00    +0.001 C 
ATOM     14  C   UNL     1       4.821  -7.751   5.853  0.00  0.00    +0.000 C 
ATOM     15  C   UNL     1       3.478  -8.371   5.462  0.00  0.00    +0.001 C 
ATOM     16  C   UNL     1       2.958  -7.701   4.189  0.00  0.00    +0.013 C 
ENDBRANCH   9  11
BRANCH   1  17
ATOM     17  C   UNL     1      -1.031  -0.345   2.509  0.00  0.00    +0.163 C 
BRANCH  17  18
ATOM     18  N   UNL     1      -2.281   0.261   2.975  0.00  0.00    -0.288 N 
ATOM     19  C   UNL     1      -3.348   0.321   2.154  0.00  0.00    +0.301 C 
ATOM     20  O   UNL     1      -3.303  -0.208   1.060  0.00  0.00    -0.253 OA
ATOM     21  N   UNL     1      -4.464   0.966   2.546  0.00  0.00    -0.295 N 
ATOM     22  H   UNL     1      -2.340   0.618   3.875  0.00  0.00    +0.151 HD
ATOM     23  H   UNL     1      -4.499   1.388   3.419  0.00  0.00    +0.151 HD
BRANCH  21  24
ATOM     24  C   UNL     1      -5.624   1.032   1.653  0.00  0.00    +0.028 C 
ATOM     25  C   UNL     1      -6.107  -0.386   1.341  0.00  0.00    +0.031 C 
ATOM     26  C   UNL     1      -6.748   1.815   2.334  0.00  0.00    +0.031 C 
ATOM     27  C   UNL     1      -5.228   1.734   0.353  0.00  0.00    +0.031 C 
ENDBRANCH  21  24
ENDBRANCH  17  18
BRANCH  17  28
ATOM     28  C   UNL     1      -0.162   0.725   1.845  0.00  0.00    +0.015 C 
ATOM     29  C   UNL     1       0.222   1.785   2.879  0.00  0.00    +0.010 C 
BRANCH  28  31
ATOM     30  C   UNL     1       0.738  -0.823   0.102  0.00  0.00    +0.004 C 
ATOM     31  C   UNL     1       1.105   0.077   1.284  0.00  0.00    +0.002 C 
ENDBRANCH  28  31
ENDBRANCH  17  28
ENDBRANCH   1  17
TORSDOF 6
