REMARK  Name = ZINC63573260
REMARK  9 active torsions:
REMARK  status: ('A' for Active; 'I' for Inactive)
REMARK    1  A    between atoms: C_1  and  C_2
REMARK    2  A    between atoms: C_2  and  O_3
REMARK    3  A    between atoms: O_3  and  C_4
REMARK    4  A    between atoms: C_4  and  C_5
REMARK    5  A    between atoms: C_5  and  C_6
REMARK    6  A    between atoms: C_6  and  N_7
REMARK    7  A    between atoms: C_16  and  O_32
REMARK    8  A    between atoms: C_23  and  C_25
REMARK    9  A    between atoms: O_32  and  C_33
REMARK                            x       y       z     vdW  Elec       q    Type
REMARK                         _______ _______ _______ _____ _____    ______ ____
ROOT
ATOM      1  N   UNL     1       0.487  -4.678  -5.234  0.00  0.00    -0.299 N 
ATOM      2  C   UNL     1       1.273  -5.762  -5.074  0.00  0.00    +0.303 C 
ATOM      3  O   UNL     1       1.034  -6.562  -4.191  0.00  0.00    -0.253 OA
ATOM      4  N   UNL     1       2.324  -5.958  -5.895  0.00  0.00    -0.276 N 
ATOM      5  C   UNL     1       2.680  -4.929  -6.877  0.00  0.00    +0.114 C 
ATOM      6  C   UNL     1       4.136  -4.481  -6.645  0.00  0.00    +0.052 C 
ATOM      7  C   UNL     1       4.949  -5.738  -6.457  0.00  0.00    -0.035 C 
ATOM      8  C   UNL     1       6.061  -6.160  -7.046  0.00  0.00    +0.003 A 
ATOM      9  C   UNL     1       6.964  -5.519  -8.014  0.00  0.00    +0.055 A 
ATOM     10  C   UNL     1       8.027  -6.257  -8.439  0.00  0.00    +0.121 A 
ATOM     11  C   UNL     1       8.295  -7.565  -8.010  0.00  0.00    +0.047 A 
ATOM     12  C   UNL     1       7.533  -8.247  -7.116  0.00  0.00    +0.029 A 
ATOM     13  C   UNL     1       6.358  -7.549  -6.577  0.00  0.00    +0.043 A 
ATOM     14  N   UNL     1       5.476  -7.934  -5.705  0.00  0.00    -0.375 N 
ATOM     15  C   UNL     1       4.550  -6.825  -5.466  0.00  0.00    +0.131 C 
ATOM     16  C   UNL     1       3.106  -7.200  -5.792  0.00  0.00    +0.134 C 
ATOM     17  H   UNL     1       0.719  -4.003  -5.890  0.00  0.00    +0.150 HD
ATOM     18  H   UNL     1       5.436  -8.807  -5.285  0.00  0.00    +0.160 HD
ENDROOT
BRANCH  16  19
ATOM     19  C   UNL     1       2.546  -8.066  -4.692  0.00  0.00    -0.025 A 
ATOM     20  C   UNL     1       2.702  -7.691  -3.371  0.00  0.00    +0.008 A 
ATOM     21  C   UNL     1       2.189  -8.483  -2.361  0.00  0.00    +0.038 A 
ATOM     22  C   UNL     1       1.518  -9.653  -2.674  0.00  0.00    +0.123 A 
ATOM     23  C   UNL     1       1.363 -10.028  -3.998  0.00  0.00    +0.038 A 
ATOM     24  C   UNL     1       1.872  -9.231  -5.006  0.00  0.00    +0.008 A 
ATOM     25  F   UNL     1       1.017 -10.429  -1.688  0.00  0.00    -0.205 F 
ENDBRANCH  16  19
BRANCH  10  26
ATOM     26  O   UNL     1       8.880  -5.692  -9.334  0.00  0.00    -0.495 OA
ATOM     27  C   UNL     1       9.987  -6.485  -9.765  0.00  0.00    +0.277 C 
ENDBRANCH  10  26
BRANCH   1  28
ATOM     28  C   UNL     1      -0.717  -4.520  -4.415  0.00  0.00    +0.108 C 
BRANCH  28  29
ATOM     29  C   UNL     1      -1.423  -3.216  -4.792  0.00  0.00    +0.047 C 
BRANCH  29  30
ATOM     30  C   UNL     1      -2.681  -3.051  -3.936  0.00  0.00    +0.161 C 
BRANCH  30  31
ATOM     31  O   UNL     1      -3.340  -1.833  -4.288  0.00  0.00    -0.380 OA
BRANCH  31  33
ATOM     32  C   UNL     1      -5.151  -0.259  -4.002  0.00  0.00    +0.034 C 
ATOM     33  C   UNL     1      -4.533  -1.582  -3.544  0.00  0.00    +0.156 C 
ENDBRANCH  31  33
ENDBRANCH  30  31
ENDBRANCH  29  30
ENDBRANCH  28  29
ENDBRANCH   1  28
TORSDOF 7
