REMARK  Name = ZINC39942365
REMARK  9 active torsions:
REMARK  status: ('A' for Active; 'I' for Inactive)
REMARK    1  A    between atoms: C_1  and  C_2
REMARK    2  A    between atoms: C_2  and  C_4
REMARK    3  A    between atoms: C_2  and  S_16
REMARK    4  A    between atoms: C_4  and  C_6
REMARK    5  A    between atoms: C_9  and  N_12
REMARK    6  A    between atoms: C_13  and  C_15
REMARK    7  A    between atoms: S_16  and  C_17
REMARK    8  A    between atoms: C_21  and  C_26
REMARK    9  A    between atoms: N_22  and  C_23
REMARK                            x       y       z     vdW  Elec       q    Type
REMARK                         _______ _______ _______ _____ _____    ______ ____
ROOT
ATOM      1  C   UNL     1      -2.612  -0.469  -1.743  0.00  0.00    +0.237 C 
ATOM      2  N   UNL     1      -2.456   0.966  -2.032  0.00  0.00    -0.237 N 
ATOM      3  N   UNL     1      -1.669   1.056  -3.186  0.00  0.00    -0.169 NA
ATOM      4  C   UNL     1      -1.334  -0.128  -3.625  0.00  0.00    +0.147 C 
ATOM      5  N   UNL     1      -1.861  -1.142  -2.815  0.00  0.00    -0.282 N 
ATOM      6  H   UNL     1      -2.827   1.704  -1.524  0.00  0.00    +0.171 HD
ENDROOT
BRANCH   4   7
ATOM      7  C   UNL     1      -0.548  -0.356  -4.765  0.00  0.00    +0.022 C 
ATOM      8  C   UNL     1       0.091   0.601  -5.555  0.00  0.00    +0.006 A 
ATOM      9  C   UNL     1       0.158   2.009  -5.479  0.00  0.00    +0.010 A 
ATOM     10  C   UNL     1       0.871   2.700  -6.405  0.00  0.00    +0.001 A 
ATOM     11  C   UNL     1       1.547   2.051  -7.440  0.00  0.00    +0.002 A 
ATOM     12  C   UNL     1       1.526   0.702  -7.574  0.00  0.00    +0.026 A 
ATOM     13  C   UNL     1       0.802  -0.087  -6.644  0.00  0.00    +0.043 A 
ATOM     14  N   UNL     1       0.629  -1.392  -6.556  0.00  0.00    -0.380 N 
ATOM     15  C   UNL     1      -0.210  -1.691  -5.392  0.00  0.00    +0.152 C 
ATOM     16  H   UNL     1       1.002  -2.050  -7.163  0.00  0.00    +0.160 HD
ENDBRANCH   4   7
BRANCH   5  17
ATOM     17  C   UNL     1      -1.697  -2.586  -2.997  0.00  0.00    +0.078 C 
ATOM     18  C   UNL     1      -2.427  -3.508  -2.017  0.00  0.00    +0.024 C 
ATOM     19  C   UNL     1      -0.908  -3.347  -1.929  0.00  0.00    +0.024 C 
ENDBRANCH   5  17
BRANCH   1  20
ATOM     20  S   UNL     1      -1.903  -0.870  -0.123  0.00  0.00    -0.107 S 
BRANCH  20  22
ATOM     21  C   UNL     1      -0.147   1.207  -0.409  0.00  0.00    +0.027 C 
ATOM     22  C   UNL     1      -0.181  -0.314  -0.247  0.00  0.00    +0.118 C 
BRANCH  22  23
ATOM     23  C   UNL     1       0.565  -0.702   1.003  0.00  0.00    +0.176 C 
ATOM     24  O   UNL     1      -0.039  -0.869   2.042  0.00  0.00    -0.291 OA
BRANCH  23  25
ATOM     25  C   UNL     1       2.022  -0.880   0.964  0.00  0.00    +0.019 A 
ATOM     26  C   UNL     1       2.721  -0.683  -0.233  0.00  0.00    +0.013 A 
ATOM     27  C   UNL     1       4.082  -0.850  -0.265  0.00  0.00    +0.024 A 
ATOM     28  C   UNL     1       4.768  -1.214   0.891  0.00  0.00    +0.033 A 
ATOM     29  C   UNL     1       4.076  -1.411   2.083  0.00  0.00    +0.024 A 
ATOM     30  C   UNL     1       2.717  -1.241   2.125  0.00  0.00    +0.013 A 
BRANCH  28  31
ATOM     31  N   UNL     1       6.150  -1.382   0.854  0.00  0.00    -0.286 N 
ATOM     32  C   UNL     1       6.900  -0.617   0.036  0.00  0.00    +0.214 C 
ATOM     33  O   UNL     1       6.385   0.279  -0.598  0.00  0.00    -0.276 OA
ATOM     34  C   UNL     1       8.380  -0.876  -0.091  0.00  0.00    +0.109 C 
ATOM     35  H   UNL     1       6.573  -2.050   1.417  0.00  0.00    +0.155 HD
ENDBRANCH  28  31
ENDBRANCH  23  25
ENDBRANCH  22  23
ENDBRANCH  20  22
ENDBRANCH   1  20
TORSDOF 7
