REMARK  Name = ZINC39676563
REMARK  9 active torsions:
REMARK  status: ('A' for Active; 'I' for Inactive)
REMARK    1  A    between atoms: C_1  and  O_2
REMARK    2  A    between atoms: O_2  and  C_3
REMARK    3  A    between atoms: C_6  and  C_9
REMARK    4  A    between atoms: C_9  and  C_10
REMARK    5  A    between atoms: C_9  and  N_18
REMARK    6  A    between atoms: C_13  and  O_16
REMARK    7  A    between atoms: O_16  and  C_17
REMARK    8  A    between atoms: C_19  and  C_21
REMARK    9  A    between atoms: C_32  and  C_34
REMARK                            x       y       z     vdW  Elec       q    Type
REMARK                         _______ _______ _______ _____ _____    ______ ____
ROOT
ATOM      1  N   UNL     1      -6.666  -4.086   2.207  0.00  0.00    -0.304 N 
ATOM      2  C   UNL     1      -5.375  -4.296   2.534  0.00  0.00    +0.219 C 
ATOM      3  O   UNL     1      -4.524  -3.506   2.183  0.00  0.00    -0.275 OA
ATOM      4  H   UNL     1      -7.346  -4.717   2.488  0.00  0.00    +0.150 HD
ENDROOT
BRANCH   2   5
ATOM      5  C   UNL     1      -4.990  -5.512   3.337  0.00  0.00    +0.100 C 
ATOM      6  C   UNL     1      -3.506  -5.867   3.096  0.00  0.00    +0.121 C 
ATOM      7  N   UNL     1      -2.778  -5.211   4.208  0.00  0.00    -0.296 N 
ATOM      8  C   UNL     1      -3.656  -5.404   5.387  0.00  0.00    +0.115 C 
ATOM      9  C   UNL     1      -5.085  -5.213   4.842  0.00  0.00    -0.004 C 
ATOM     10  C   UNL     1      -6.043  -6.190   5.516  0.00  0.00    -0.010 C 
ATOM     11  C   UNL     1      -6.166  -5.836   7.001  0.00  0.00    -0.082 C 
ATOM     12  N   UNL     1      -6.662  -4.461   7.138  0.00  0.00    +0.379 N 
ATOM     13  C   UNL     1      -5.689  -3.519   6.570  0.00  0.00    -0.082 C 
ATOM     14  C   UNL     1      -5.546  -3.776   5.067  0.00  0.00    -0.010 C 
ATOM     15  C   UNL     1      -1.588  -4.581   4.158  0.00  0.00    +0.247 C 
ATOM     16  O   UNL     1      -1.044  -4.393   3.087  0.00  0.00    -0.270 OA
ATOM     17  H   UNL     1      -7.540  -4.371   6.650  0.00  0.00    -0.086 HD
ATOM     18  H   UNL     1      -6.800  -4.251   8.115  0.00  0.00    -0.086 HD
BRANCH  15  19
ATOM     19  C   UNL     1      -0.944  -4.118   5.406  0.00  0.00    +0.037 A 
ATOM     20  C   UNL     1      -1.304  -4.681   6.631  0.00  0.00    +0.013 A 
ATOM     21  C   UNL     1      -0.699  -4.245   7.792  0.00  0.00    +0.001 A 
ATOM     22  C   UNL     1       0.262  -3.251   7.743  0.00  0.00    +0.000 A 
ATOM     23  C   UNL     1       0.624  -2.688   6.532  0.00  0.00    +0.001 A 
ATOM     24  C   UNL     1       0.031  -3.120   5.363  0.00  0.00    +0.013 A 
ENDBRANCH  15  19
ENDBRANCH   2   5
BRANCH   1  25
ATOM     25  C   UNL     1      -7.040  -2.904   1.427  0.00  0.00    +0.134 C 
BRANCH  25  29
ATOM     26  C   UNL     1      -6.545  -3.729  -2.736  0.00  0.00    +0.120 A 
ATOM     27  C   UNL     1      -6.184  -2.490  -2.226  0.00  0.00    +0.046 A 
ATOM     28  C   UNL     1      -6.346  -2.226  -0.880  0.00  0.00    +0.009 A 
ATOM     29  C   UNL     1      -6.866  -3.195  -0.041  0.00  0.00    -0.023 A 
ATOM     30  C   UNL     1      -7.225  -4.430  -0.547  0.00  0.00    +0.009 A 
ATOM     31  C   UNL     1      -7.071  -4.697  -1.894  0.00  0.00    +0.046 A 
BRANCH  26  33
ATOM     32  C   UNL     1      -5.839  -2.947  -4.868  0.00  0.00    +0.277 C 
ATOM     33  O   UNL     1      -6.387  -3.991  -4.061  0.00  0.00    -0.495 OA
ENDBRANCH  26  33
ENDBRANCH  25  29
BRANCH  25  34
ATOM     34  C   UNL     1      -8.481  -2.556   1.702  0.00  0.00    -0.023 A 
ATOM     35  C   UNL     1      -9.421  -3.562   1.830  0.00  0.00    +0.009 A 
ATOM     36  C   UNL     1     -10.742  -3.246   2.082  0.00  0.00    +0.046 A 
ATOM     37  C   UNL     1     -11.125  -1.918   2.208  0.00  0.00    +0.120 A 
ATOM     38  C   UNL     1     -10.179  -0.911   2.079  0.00  0.00    +0.046 A 
ATOM     39  C   UNL     1      -8.858  -1.232   1.833  0.00  0.00    +0.009 A 
BRANCH  37  40
ATOM     40  O   UNL     1     -12.424  -1.604   2.455  0.00  0.00    -0.495 OA
ATOM     41  C   UNL     1     -12.745  -0.217   2.572  0.00  0.00    +0.277 C 
ENDBRANCH  37  40
ENDBRANCH  25  34
ENDBRANCH   1  25
TORSDOF 7
