REMARK  Name = ZINC09216830
REMARK  8 active torsions:
REMARK  status: ('A' for Active; 'I' for Inactive)
REMARK    1  A    between atoms: C_1  and  C_2
REMARK    2  A    between atoms: C_5  and  C_32
REMARK    3  A    between atoms: C_5  and  C_33
REMARK    4  A    between atoms: N_11  and  C_15
REMARK    5  A    between atoms: C_15  and  C_16
REMARK    6  A    between atoms: C_23  and  C_24
REMARK    7  A    between atoms: C_23  and  N_69
REMARK    8  A    between atoms: C_25  and  C_26
REMARK                            x       y       z     vdW  Elec       q    Type
REMARK                         _______ _______ _______ _____ _____    ______ ____
ROOT
ATOM      1  C   UNL     1      -0.287   1.919   0.471  0.00  0.00    +0.233 C 
ATOM      2  O   UNL     1      -0.782   1.257   1.358  0.00  0.00    -0.274 OA
ATOM      3  N   UNL     1      -0.334   3.264   0.527  0.00  0.00    -0.304 N 
ATOM      4  C   UNL     1       0.266   4.086  -0.535  0.00  0.00    +0.089 C 
ATOM      5  C   UNL     1      -0.785   5.102  -1.010  0.00  0.00    -0.059 C 
ATOM      6  C   UNL     1      -1.977   4.972   1.098  0.00  0.00    -0.059 C 
ATOM      7  C   UNL     1      -0.981   3.950   1.656  0.00  0.00    +0.089 C 
ATOM      8  N   UNL     1      -1.265   5.868   0.161  0.00  0.00    +0.384 N 
ATOM      9  H   UNL     1      -0.457   6.279   0.644  0.00  0.00    -0.081 HD
ENDROOT
BRANCH   1  10
ATOM     10  C   UNL     1       0.381   1.236  -0.695  0.00  0.00    +0.213 C 
BRANCH  10  20
ATOM     11  C   UNL     1       0.299  -5.587  -2.616  0.00  0.00    +0.007 C 
ATOM     12  C   UNL     1       0.162  -4.698  -1.378  0.00  0.00    -0.011 C 
ATOM     13  C   UNL     1      -0.931  -5.257  -0.466  0.00  0.00    +0.009 C 
ATOM     14  C   UNL     1      -1.061  -4.375   0.777  0.00  0.00    -0.032 C 
ATOM     15  C   UNL     1      -1.440  -2.953   0.355  0.00  0.00    +0.041 C 
ATOM     16  C   UNL     1      -0.370  -2.394  -0.577  0.00  0.00    +0.113 C 
ATOM     17  C   UNL     1      -0.212  -3.277  -1.809  0.00  0.00    +0.038 C 
ATOM     18  C   UNL     1      -0.713  -0.979  -0.983  0.00  0.00    +0.247 C 
ATOM     19  O   UNL     1      -1.692  -0.608  -1.594  0.00  0.00    -0.273 OA
ATOM     20  N   UNL     1       0.300  -0.216  -0.522  0.00  0.00    -0.215 N 
ATOM     21  C   UNL     1       1.224  -0.952   0.107  0.00  0.00    +0.310 C 
ATOM     22  O   UNL     1       2.233  -0.490   0.604  0.00  0.00    -0.252 OA
ATOM     23  N   UNL     1       0.910  -2.262   0.130  0.00  0.00    -0.285 N 
ATOM     24  C   UNL     1      -2.147  -4.941   1.694  0.00  0.00    +0.011 C 
ATOM     25  C   UNL     1       0.274  -4.346   1.524  0.00  0.00    +0.011 C 
ATOM     26  H   UNL     1       1.428  -2.976   0.532  0.00  0.00    +0.151 HD
ENDBRANCH  10  20
ENDBRANCH   1  10
BRANCH   8  27
ATOM     27  C   UNL     1      -2.164   6.954  -0.281  0.00  0.00    -0.051 C 
BRANCH  27  28
ATOM     28  C   UNL     1      -1.359   7.966  -1.053  0.00  0.00    -0.045 C 
ATOM     29  C   UNL     1      -1.733   8.318  -2.276  0.00  0.00    +0.002 C 
BRANCH  29  30
ATOM     30  C   UNL     1      -0.943   9.311  -3.033  0.00  0.00    -0.025 A 
ATOM     31  C   UNL     1       0.194   9.884  -2.463  0.00  0.00    +0.008 A 
ATOM     32  C   UNL     1       0.931  10.807  -3.178  0.00  0.00    +0.001 A 
ATOM     33  C   UNL     1       0.537  11.171  -4.453  0.00  0.00    +0.000 A 
ATOM     34  C   UNL     1      -0.592  10.610  -5.022  0.00  0.00    +0.001 A 
ATOM     35  C   UNL     1      -1.334   9.683  -4.320  0.00  0.00    +0.008 A 
ENDBRANCH  29  30
ENDBRANCH  27  28
ENDBRANCH   8  27
TORSDOF 5
