REMARK  Name = ZINC39737894
REMARK  13 active torsions:
REMARK  status: ('A' for Active; 'I' for Inactive)
REMARK    1  A    between atoms: C_1  and  C_2
REMARK    2  A    between atoms: C_2  and  O_3
REMARK    3  A    between atoms: O_3  and  C_4
REMARK    4  A    between atoms: C_4  and  C_6
REMARK    5  A    between atoms: C_7  and  C_35
REMARK    6  A    between atoms: C_8  and  C_32
REMARK    7  A    between atoms: C_9  and  N_11
REMARK    8  A    between atoms: C_12  and  C_14
REMARK    9  A    between atoms: C_17  and  S_20
REMARK   10  A    between atoms: S_20  and  N_23
REMARK   11  A    between atoms: N_23  and  C_24
REMARK   12  A    between atoms: N_23  and  C_25
REMARK   13  A    between atoms: C_25  and  C_26
REMARK                            x       y       z     vdW  Elec       q    Type
REMARK                         _______ _______ _______ _____ _____    ______ ____
ROOT
ATOM      1  N   UNL     1      -6.816  -2.919   0.046  0.00  0.00    -0.275 N 
ATOM      2  C   UNL     1      -7.500  -1.758   0.051  0.00  0.00    +0.249 C 
ATOM      3  O   UNL     1      -6.901  -0.700   0.048  0.00  0.00    -0.270 OA
ATOM      4  H   UNL     1      -7.294  -3.764   0.049  0.00  0.00    +0.156 HD
ENDROOT
BRANCH   1   8
ATOM      5  C   UNL     1      -2.841  -2.416   0.016  0.00  0.00    +0.102 A 
ATOM      6  C   UNL     1      -3.204  -3.737   0.018  0.00  0.00    -0.015 A 
ATOM      7  C   UNL     1      -4.566  -3.999   0.028  0.00  0.00    +0.069 A 
ATOM      8  C   UNL     1      -5.436  -2.908   0.035  0.00  0.00    +0.085 A 
ATOM      9  S   UNL     1      -4.412  -1.577   0.036  0.00  0.00    -0.066 S 
ATOM     10  C   UNL     1      -2.181  -4.843   0.009  0.00  0.00    +0.046 C 
BRANCH   7  11
ATOM     11  C   UNL     1      -5.075  -5.378   0.031  0.00  0.00    +0.244 C 
ATOM     12  O   UNL     1      -5.278  -5.949   1.085  0.00  0.00    -0.270 OA
ATOM     13  N   UNL     1      -5.317  -6.009  -1.135  0.00  0.00    -0.325 N 
ATOM     14  H   UNL     1      -5.156  -5.553  -1.976  0.00  0.00    +0.145 HD
ATOM     15  H   UNL     1      -5.653  -6.918  -1.134  0.00  0.00    +0.145 HD
ENDBRANCH   7  11
BRANCH   5  16
ATOM     16  C   UNL     1      -1.497  -1.839   0.006  0.00  0.00    +0.346 C 
ATOM     17  O   UNL     1      -0.522  -2.567  -0.007  0.00  0.00    -0.244 OA
BRANCH  16  18
ATOM     18  O   UNL     1      -1.339  -0.499   0.012  0.00  0.00    -0.461 OA
BRANCH  18  20
ATOM     19  C   UNL     1      -0.019   1.526   0.010  0.00  0.00    +0.048 C 
ATOM     20  C   UNL     1       0.002  -0.004   0.002  0.00  0.00    +0.229 C 
ENDBRANCH  18  20
ENDBRANCH  16  18
ENDBRANCH   5  16
ENDBRANCH   1   8
BRANCH   2  21
ATOM     21  C   UNL     1      -8.978  -1.770   0.062  0.00  0.00    +0.037 A 
ATOM     22  C   UNL     1      -9.669  -2.983   0.073  0.00  0.00    +0.015 A 
ATOM     23  C   UNL     1     -11.048  -2.988   0.083  0.00  0.00    +0.029 A 
ATOM     24  C   UNL     1     -11.747  -1.794   0.084  0.00  0.00    +0.106 A 
ATOM     25  C   UNL     1     -11.068  -0.588   0.073  0.00  0.00    +0.029 A 
ATOM     26  C   UNL     1      -9.689  -0.569   0.068  0.00  0.00    +0.015 A 
BRANCH  24  27
ATOM     27  S   UNL     1     -13.509  -1.809   0.097  0.00  0.00    +0.061 S 
ATOM     28  O   UNL     1     -13.930  -0.569  -0.456  0.00  0.00    -0.153 OA
ATOM     29  O   UNL     1     -13.908  -3.060  -0.446  0.00  0.00    -0.153 OA
BRANCH  27  30
ATOM     30  N   UNL     1     -13.987  -1.806   1.682  0.00  0.00    -0.177 NA
ATOM     31  C   UNL     1     -14.209  -0.536   2.378  0.00  0.00    +0.131 C 
BRANCH  30  32
ATOM     32  C   UNL     1     -14.187  -3.074   2.389  0.00  0.00    +0.140 C 
BRANCH  32  33
ATOM     33  C   UNL     1     -12.913  -3.438   3.154  0.00  0.00    +0.134 C 
ATOM     34  C   UNL     1     -13.072  -4.830   3.803  0.00  0.00    +0.035 C 
ATOM     35  C   UNL     1     -12.377  -4.634   5.177  0.00  0.00    +0.031 C 
ATOM     36  C   UNL     1     -12.733  -3.157   5.479  0.00  0.00    +0.160 C 
ATOM     37  O   UNL     1     -12.689  -2.492   4.205  0.00  0.00    -0.375 OA
ENDBRANCH  32  33
ENDBRANCH  30  32
ENDBRANCH  27  30
ENDBRANCH  24  27
ENDBRANCH   2  21
TORSDOF 10
