REMARK  Name = ZINC07676206
REMARK  4 active torsions:
REMARK  status: ('A' for Active; 'I' for Inactive)
REMARK    1  A    between atoms: C_1  and  C_2
REMARK    2  A    between atoms: C_9  and  S_11
REMARK    3  A    between atoms: S_11  and  C_12
REMARK    4  A    between atoms: C_12  and  C_13
REMARK                            x       y       z     vdW  Elec       q    Type
REMARK                         _______ _______ _______ _____ _____    ______ ____
ROOT
ATOM      1  C   UNL     1       0.105  -7.035   1.047  0.00  0.00    +0.153 C 
ENDROOT
BRANCH   1   2
ATOM      2  C   UNL     1       0.128  -8.426   1.625  0.00  0.00    +0.146 A 
ATOM      3  N   UNL     1       1.284  -9.016   1.876  0.00  0.00    -0.199 NA
ATOM      4  C   UNL     1       1.308 -10.245   2.387  0.00  0.00    +0.217 A 
ATOM      5  N   UNL     1       0.169 -10.879   2.644  0.00  0.00    -0.181 NA
ATOM      6  C   UNL     1      -0.991 -10.282   2.390  0.00  0.00    +0.217 A 
ATOM      7  N   UNL     1      -1.007  -9.051   1.884  0.00  0.00    -0.199 NA
ATOM      8  N   UNL     1      -2.177 -10.935   2.656  0.00  0.00    -0.327 N 
ATOM      9  N   UNL     1       2.515 -10.861   2.649  0.00  0.00    -0.327 N 
ATOM     10  H   UNL     1      -2.164 -11.831   3.029  0.00  0.00    +0.145 HD
ATOM     11  H   UNL     1      -3.023 -10.499   2.470  0.00  0.00    +0.145 HD
ATOM     12  H   UNL     1       3.347 -10.398   2.460  0.00  0.00    +0.145 HD
ATOM     13  H   UNL     1       2.532 -11.756   3.021  0.00  0.00    +0.145 HD
ENDBRANCH   1   2
BRANCH   1  14
ATOM     14  S   UNL     1       0.096  -5.820   2.394  0.00  0.00    -0.080 S 
BRANCH  14  23
ATOM     15  C   UNL     1      -0.018   1.503   0.010  0.00  0.00    +0.044 C 
ATOM     16  C   UNL     1       0.002  -0.004   0.002  0.00  0.00    -0.048 A 
ATOM     17  C   UNL     1       0.006  -0.686  -1.206  0.00  0.00    +0.005 A 
ATOM     18  C   UNL     1       0.024  -2.063  -1.230  0.00  0.00    +0.030 A 
ATOM     19  C   UNL     1       0.040  -2.778  -0.030  0.00  0.00    +0.090 A 
ATOM     20  C   UNL     1       0.037  -2.082   1.190  0.00  0.00    +0.067 A 
ATOM     21  C   UNL     1       0.023  -0.696   1.196  0.00  0.00    +0.031 A 
ATOM     22  N   UNL     1       0.055  -3.047   2.184  0.00  0.00    -0.333 N 
ATOM     23  C   UNL     1       0.069  -4.265   1.566  0.00  0.00    +0.168 A 
ATOM     24  N   UNL     1       0.060  -4.104   0.266  0.00  0.00    -0.222 NA
ATOM     25  H   UNL     1       0.058  -2.887   3.141  0.00  0.00    +0.168 HD
ENDBRANCH  14  23
ENDBRANCH   1  14
TORSDOF 3
