REMARK  Name = ZINC38668167
REMARK  8 active torsions:
REMARK  status: ('A' for Active; 'I' for Inactive)
REMARK    1  A    between atoms: C_1  and  C_2
REMARK    2  A    between atoms: C_4  and  N_28
REMARK    3  A    between atoms: C_7  and  N_8
REMARK    4  A    between atoms: C_9  and  C_11
REMARK    5  A    between atoms: N_13  and  C_14
REMARK    6  A    between atoms: C_14  and  C_15
REMARK    7  A    between atoms: C_15  and  C_16
REMARK    8  A    between atoms: C_19  and  C_21
REMARK                            x       y       z     vdW  Elec       q    Type
REMARK                         _______ _______ _______ _____ _____    ______ ____
ROOT
ATOM      1  C   UNL     1      -0.167   0.044   4.869  0.00  0.00    +0.299 C 
ATOM      2  O   UNL     1      -0.183   1.257   4.874  0.00  0.00    -0.265 OA
ATOM      3  N   UNL     1      -0.248  -0.636   6.030  0.00  0.00    -0.307 N 
ATOM      4  H   UNL     1      -0.235  -1.606   6.026  0.00  0.00    +0.149 HD
ENDROOT
BRANCH   1   6
ATOM      5  N   UNL     1       0.025  -0.016   2.416  0.00  0.00    -0.278 N 
ATOM      6  C   UNL     1      -0.056  -0.696   3.577  0.00  0.00    +0.303 C 
ATOM      7  O   UNL     1      -0.040  -1.910   3.572  0.00  0.00    -0.265 OA
ATOM      8  H   UNL     1       0.078   0.952   2.424  0.00  0.00    +0.155 HD
BRANCH   5  15
ATOM      9  C   UNL     1      -1.268   1.182   0.182  0.00  0.00    +0.046 C 
ATOM     10  C   UNL     1      -0.586  -0.159   0.085  0.00  0.00    -0.027 A 
ATOM     11  C   UNL     1      -0.571  -0.841  -1.116  0.00  0.00    +0.038 A 
ATOM     12  C   UNL     1       0.055  -2.071  -1.206  0.00  0.00    +0.127 A 
ATOM     13  C   UNL     1       0.667  -2.622  -0.095  0.00  0.00    +0.034 A 
ATOM     14  C   UNL     1       0.655  -1.946   1.108  0.00  0.00    +0.026 A 
ATOM     15  C   UNL     1       0.033  -0.706   1.201  0.00  0.00    +0.037 A 
BRANCH  12  16
ATOM     16  N   UNL     1       0.069  -2.799  -2.495  0.00  0.00    +0.056 N 
ATOM     17  O   UNL     1      -0.467  -2.319  -3.467  0.00  0.00    -0.126 OA
ATOM     18  O   UNL     1       0.615  -3.874  -2.575  0.00  0.00    -0.126 OA
ENDBRANCH  12  16
ENDBRANCH   5  15
ENDBRANCH   1   6
BRANCH   3  19
ATOM     19  C   UNL     1      -0.356   0.090   7.298  0.00  0.00    +0.111 C 
BRANCH  19  20
ATOM     20  C   UNL     1      -0.433  -0.910   8.453  0.00  0.00    +0.074 C 
BRANCH  20  21
ATOM     21  C   UNL     1      -0.544  -0.164   9.758  0.00  0.00    +0.051 A 
ATOM     22  C   UNL     1      -1.571  -0.429  10.609  0.00  0.00    +0.070 A 
ATOM     23  S   UNL     1      -1.202   0.711  11.936  0.00  0.00    -0.075 S 
ATOM     24  C   UNL     1       0.275   1.414  11.215  0.00  0.00    +0.109 A 
ATOM     25  N   UNL     1       0.352   0.739  10.077  0.00  0.00    -0.244 NA
BRANCH  24  26
ATOM     26  C   UNL     1       1.172   2.463  11.747  0.00  0.00    +0.010 A 
ATOM     27  C   UNL     1       2.283   2.875  11.009  0.00  0.00    +0.011 A 
ATOM     28  C   UNL     1       3.116   3.853  11.510  0.00  0.00    +0.003 A 
ATOM     29  C   UNL     1       2.854   4.427  12.742  0.00  0.00    +0.038 A 
ATOM     30  C   UNL     1       1.754   4.023  13.480  0.00  0.00    +0.124 A 
ATOM     31  C   UNL     1       0.908   3.047  12.986  0.00  0.00    +0.049 A 
ATOM     32  F   UNL     1       1.504   4.586  14.682  0.00  0.00    -0.205 F 
ENDBRANCH  24  26
ENDBRANCH  20  21
ENDBRANCH  19  20
ENDBRANCH   3  19
TORSDOF 7
