REMARK  Name = ZINC36158354
REMARK  10 active torsions:
REMARK  status: ('A' for Active; 'I' for Inactive)
REMARK    1  A    between atoms: C_1  and  N_2
REMARK    2  A    between atoms: N_2  and  C_3
REMARK    3  A    between atoms: N_2  and  C_4
REMARK    4  A    between atoms: C_4  and  C_5
REMARK    5  A    between atoms: C_5  and  N_6
REMARK    6  A    between atoms: C_7  and  C_9
REMARK    7  A    between atoms: C_9  and  C_11
REMARK    8  A    between atoms: C_9  and  N_26
REMARK    9  A    between atoms: C_17  and  C_19
REMARK   10  A    between atoms: C_27  and  C_29
REMARK                            x       y       z     vdW  Elec       q    Type
REMARK                         _______ _______ _______ _____ _____    ______ ____
ROOT
ATOM      1  C   UNL     1       1.116  -1.243   5.290  0.00  0.00    +0.162 C 
ENDROOT
BRANCH   1   2
ATOM      2  C   UNL     1       1.200  -2.758   5.485  0.00  0.00    +0.021 C 
ATOM      3  C   UNL     1      -0.209  -3.355   5.454  0.00  0.00    +0.025 C 
ATOM      4  C   UNL     1      -0.119  -4.876   5.614  0.00  0.00    +0.108 C 
ATOM      5  N   UNL     1       0.637  -5.178   6.837  0.00  0.00    -0.297 N 
ATOM      6  C   UNL     1       1.969  -4.581   7.009  0.00  0.00    +0.108 C 
ATOM      7  C   UNL     1       1.855  -3.064   6.833  0.00  0.00    +0.025 C 
ATOM      8  C   UNL     1       0.120  -5.988   7.782  0.00  0.00    +0.249 C 
ATOM      9  O   UNL     1       0.785  -6.291   8.753  0.00  0.00    -0.270 OA
BRANCH   8  10
ATOM     10  C   UNL     1      -1.256  -6.506   7.638  0.00  0.00    +0.072 A 
ATOM     11  C   UNL     1      -1.631  -7.187   6.478  0.00  0.00    +0.016 A 
ATOM     12  C   UNL     1      -2.916  -7.669   6.350  0.00  0.00    +0.001 A 
ATOM     13  C   UNL     1      -3.836  -7.480   7.367  0.00  0.00    +0.003 A 
ATOM     14  C   UNL     1      -3.474  -6.807   8.519  0.00  0.00    +0.039 A 
ATOM     15  C   UNL     1      -2.187  -6.323   8.665  0.00  0.00    +0.135 A 
ATOM     16  F   UNL     1      -1.832  -5.670   9.793  0.00  0.00    -0.205 F 
ENDBRANCH   8  10
ENDBRANCH   1   2
BRANCH   1  18
ATOM     17  N   UNL     1       1.036  -1.386   2.822  0.00  0.00    -0.316 N 
ATOM     18  C   UNL     1       0.470  -0.942   3.962  0.00  0.00    +0.234 C 
ATOM     19  O   UNL     1      -0.558  -0.300   3.920  0.00  0.00    -0.274 OA
ATOM     20  H   UNL     1       1.858  -1.899   2.856  0.00  0.00    +0.149 HD
BRANCH  17  21
ATOM     21  C   UNL     1       0.408  -1.093   1.531  0.00  0.00    +0.085 C 
BRANCH  21  22
ATOM     22  C   UNL     1       1.245  -1.706   0.406  0.00  0.00    -0.061 C 
BRANCH  22  24
ATOM     23  C   UNL     1       0.643   0.036  -1.129  0.00  0.00    -0.097 C 
ATOM     24  N   UNL     1       0.615  -1.413  -0.888  0.00  0.00    +0.377 N 
ATOM     25  C   UNL     1       1.351  -2.101  -1.957  0.00  0.00    -0.097 C 
ATOM     26  H   UNL     1      -0.341  -1.734  -0.877  0.00  0.00    -0.083 HD
ENDBRANCH  22  24
ENDBRANCH  21  22
ENDBRANCH  17  21
ENDBRANCH   1  18
BRANCH   1  27
ATOM     27  N   UNL     1       0.315  -0.656   6.367  0.00  0.00    -0.300 N 
ATOM     28  C   UNL     1       0.497   0.633   6.717  0.00  0.00    +0.245 C 
ATOM     29  O   UNL     1       1.326   1.308   6.139  0.00  0.00    -0.270 OA
ATOM     30  H   UNL     1      -0.347  -1.195   6.828  0.00  0.00    +0.150 HD
BRANCH  28  31
ATOM     31  C   UNL     1      -0.311   1.225   7.803  0.00  0.00    +0.037 A 
ATOM     32  C   UNL     1      -1.260   0.450   8.472  0.00  0.00    +0.016 A 
ATOM     33  C   UNL     1      -2.011   1.007   9.485  0.00  0.00    +0.039 A 
ATOM     34  C   UNL     1      -1.826   2.335   9.838  0.00  0.00    +0.123 A 
ATOM     35  C   UNL     1      -0.885   3.109   9.177  0.00  0.00    +0.039 A 
ATOM     36  C   UNL     1      -0.124   2.560   8.167  0.00  0.00    +0.016 A 
ATOM     37  F   UNL     1      -2.566   2.877  10.831  0.00  0.00    -0.205 F 
ENDBRANCH  28  31
ENDBRANCH   1  27
TORSDOF 8
