REMARK  Name = ZINC44917576
REMARK  7 active torsions:
REMARK  status: ('A' for Active; 'I' for Inactive)
REMARK    1  A    between atoms: C_1  and  C_2
REMARK    2  A    between atoms: C_6  and  C_7
REMARK    3  A    between atoms: N_9  and  C_10
REMARK    4  A    between atoms: C_10  and  C_12
REMARK    5  A    between atoms: C_10  and  C_13
REMARK    6  A    between atoms: C_20  and  C_24
REMARK    7  A    between atoms: C_20  and  C_25
REMARK                            x       y       z     vdW  Elec       q    Type
REMARK                         _______ _______ _______ _____ _____    ______ ____
ROOT
ATOM      1  C   UNL     1      -0.018   1.503   0.010  0.00  0.00    +0.048 C 
ATOM      2  C   UNL     1       0.002  -0.004   0.002  0.00  0.00    +0.011 A 
ATOM      3  C   UNL     1       0.009  -0.840  -1.125  0.00  0.00    +0.062 A 
ATOM      4  C   UNL     1       0.027  -2.151  -0.662  0.00  0.00    +0.117 A 
ATOM      5  O   UNL     1       0.036  -2.113   0.663  0.00  0.00    -0.454 OA
ATOM      6  C   UNL     1       0.024  -0.829   1.089  0.00  0.00    +0.193 A 
ATOM      7  C   UNL     1       0.032  -3.344  -1.585  0.00  0.00    +0.082 C 
ATOM      8  C   UNL     1      -0.489  -2.920  -2.961  0.00  0.00    -0.021 C 
ATOM      9  C   UNL     1       0.284  -1.704  -3.482  0.00  0.00    +0.086 C 
ATOM     10  C   UNL     1       0.001  -0.526  -2.562  0.00  0.00    +0.167 C 
ATOM     11  O   UNL     1      -0.215   0.592  -2.982  0.00  0.00    -0.292 OA
ATOM     12  C   UNL     1      -1.973  -2.564  -2.851  0.00  0.00    +0.012 C 
ATOM     13  C   UNL     1      -0.322  -4.082  -3.942  0.00  0.00    +0.012 C 
ENDROOT
BRANCH   6  14
ATOM     14  C   UNL     1       0.031  -0.394   2.491  0.00  0.00    +0.280 C 
ATOM     15  O   UNL     1       0.016   0.792   2.760  0.00  0.00    -0.267 OA
ATOM     16  N   UNL     1       0.053  -1.309   3.480  0.00  0.00    -0.302 N 
ATOM     17  H   UNL     1       0.065  -2.255   3.266  0.00  0.00    +0.150 HD
BRANCH  16  18
ATOM     18  C   UNL     1       0.060  -0.875   4.879  0.00  0.00    +0.102 C 
ATOM     19  C   UNL     1       1.497  -0.583   5.316  0.00  0.00    +0.033 C 
BRANCH  18  20
ATOM     20  C   UNL     1      -0.517  -1.964   5.746  0.00  0.00    -0.009 A 
ATOM     21  C   UNL     1      -1.364  -1.650   6.798  0.00  0.00    +0.008 A 
ATOM     22  C   UNL     1      -1.871  -2.685   7.569  0.00  0.00    +0.020 A 
ATOM     23  C   UNL     1      -1.518  -3.986   7.265  0.00  0.00    +0.111 A 
ATOM     24  N   UNL     1      -0.709  -4.248   6.257  0.00  0.00    -0.263 NA
ATOM     25  C   UNL     1      -0.213  -3.290   5.499  0.00  0.00    +0.116 A 
ENDBRANCH  18  20
ENDBRANCH  16  18
ENDBRANCH   6  14
TORSDOF 3
