REMARK  Name = ZINC13065014
REMARK  17 active torsions:
REMARK  status: ('A' for Active; 'I' for Inactive)
REMARK    1  A    between atoms: C_1  and  C_2
REMARK    2  A    between atoms: C_2  and  C_3
REMARK    3  A    between atoms: C_3  and  C_5
REMARK    4  A    between atoms: C_3  and  N_75
REMARK    5  A    between atoms: N_9  and  C_10
REMARK    6  A    between atoms: C_10  and  C_11
REMARK    7  A    between atoms: C_10  and  C_12
REMARK    8  A    between atoms: C_10  and  C_13
REMARK    9  A    between atoms: C_13  and  C_14
REMARK   10  A    between atoms: C_15  and  C_16
REMARK   11  A    between atoms: C_15  and  N_75
REMARK   12  A    between atoms: C_19  and  O_22
REMARK   13  A    between atoms: O_22  and  C_23
REMARK   14  A    between atoms: C_24  and  C_25
REMARK   15  A    between atoms: C_24  and  N_75
REMARK   16  A    between atoms: C_30  and  C_38
REMARK   17  A    between atoms: C_31  and  C_37
REMARK                            x       y       z     vdW  Elec       q    Type
REMARK                         _______ _______ _______ _____ _____    ______ ____
ROOT
ATOM      1  N   UNL     1      -0.001   0.016   0.016  0.00  0.00    +0.392 N 
ATOM      2  H   UNL     1       0.647   0.472  -0.637  0.00  0.00    -0.080 HD
ENDROOT
BRANCH   1   3
ATOM      3  C   UNL     1       0.666  -1.161   0.611  0.00  0.00    +0.003 C 
BRANCH   3   4
ATOM      4  C   UNL     1       2.150  -0.901   0.651  0.00  0.00    +0.139 A 
ATOM      5  N   UNL     1       2.738   0.236   0.933  0.00  0.00    -0.115 NA
ATOM      6  N   UNL     1       4.011   0.053   0.865  0.00  0.00    -0.023 NA
ATOM      7  N   UNL     1       4.251  -1.171   0.546  0.00  0.00    -0.043 NA
ATOM      8  N   UNL     1       3.129  -1.793   0.411  0.00  0.00    -0.225 N 
BRANCH   8   9
ATOM      9  C   UNL     1       2.953  -3.204   0.059  0.00  0.00    +0.061 C 
ATOM     10  C   UNL     1       2.059  -3.882   1.100  0.00  0.00    +0.036 C 
ATOM     11  C   UNL     1       2.300  -3.308  -1.320  0.00  0.00    +0.036 C 
BRANCH   9  12
ATOM     12  C   UNL     1       4.317  -3.897   0.031  0.00  0.00    +0.026 C 
ATOM     13  C   UNL     1       4.134  -5.370  -0.337  0.00  0.00    +0.006 C 
ENDBRANCH   9  12
ENDBRANCH   8   9
ENDBRANCH   3   4
BRANCH   3  15
ATOM     14  C   UNL     1      -1.351  -1.689   1.987  0.00  0.00    +0.002 C 
ATOM     15  C   UNL     1       0.151  -1.405   2.031  0.00  0.00    -0.011 C 
ENDBRANCH   3  15
ENDBRANCH   1   3
BRANCH   1  16
ATOM     16  C   UNL     1      -0.370   0.977   1.077  0.00  0.00    -0.042 C 
BRANCH  16  17
ATOM     17  C   UNL     1       0.871   1.708   1.519  0.00  0.00    -0.064 A 
ATOM     18  C   UNL     1       1.408   1.462   2.770  0.00  0.00    +0.005 A 
ATOM     19  C   UNL     1       2.549   2.126   3.176  0.00  0.00    +0.046 A 
ATOM     20  C   UNL     1       3.150   3.049   2.332  0.00  0.00    +0.120 A 
ATOM     21  C   UNL     1       2.607   3.298   1.080  0.00  0.00    +0.046 A 
ATOM     22  C   UNL     1       1.468   2.627   0.677  0.00  0.00    +0.005 A 
BRANCH  20  23
ATOM     23  O   UNL     1       4.270   3.708   2.731  0.00  0.00    -0.495 OA
ATOM     24  C   UNL     1       4.774   3.401   4.033  0.00  0.00    +0.277 C 
ENDBRANCH  20  23
ENDBRANCH  16  17
ENDBRANCH   1  16
BRANCH   1  25
ATOM     25  C   UNL     1      -1.209  -0.408  -0.724  0.00  0.00    -0.036 C 
BRANCH  25  26
ATOM     26  C   UNL     1      -0.782  -1.066  -2.011  0.00  0.00    +0.001 A 
ATOM     27  C   UNL     1      -0.733  -2.418  -2.095  0.00  0.00    +0.017 A 
ATOM     28  C   UNL     1      -0.318  -3.026  -3.360  0.00  0.00    -0.001 A 
ATOM     29  C   UNL     1      -0.254  -4.415  -3.509  0.00  0.00    +0.010 A 
ATOM     30  C   UNL     1       0.141  -4.951  -4.702  0.00  0.00    +0.004 A 
ATOM     31  C   UNL     1       0.480  -4.129  -5.768  0.00  0.00    -0.046 A 
ATOM     32  C   UNL     1       0.423  -2.757  -5.644  0.00  0.00    -0.024 A 
ATOM     33  C   UNL     1       0.024  -2.189  -4.439  0.00  0.00    +0.052 A 
ATOM     34  N   UNL     1      -0.042  -0.820  -4.288  0.00  0.00    -0.322 N 
ATOM     35  H   UNL     1       0.194  -0.245  -5.032  0.00  0.00    +0.169 HD
ATOM     36  C   UNL     1      -0.429  -0.271  -3.123  0.00  0.00    +0.251 A 
ATOM     37  O   UNL     1      -0.475   0.943  -3.025  0.00  0.00    -0.268 OA
ATOM     38  C   UNL     1       0.793  -1.877  -6.810  0.00  0.00    +0.046 C 
ATOM     39  C   UNL     1       0.913  -4.742  -7.074  0.00  0.00    +0.044 C 
ENDBRANCH  25  26
ENDBRANCH   1  25
TORSDOF 10
