REMARK  Name = ZINC48374940
REMARK  7 active torsions:
REMARK  status: ('A' for Active; 'I' for Inactive)
REMARK    1  A    between atoms: C_1  and  C_2
REMARK    2  A    between atoms: C_2  and  N_3
REMARK    3  A    between atoms: N_3  and  C_4
REMARK    4  A    between atoms: N_3  and  C_6
REMARK    5  A    between atoms: C_4  and  C_5
REMARK    6  A    between atoms: C_9  and  C_12
REMARK    7  A    between atoms: C_13  and  C_14
REMARK                            x       y       z     vdW  Elec       q    Type
REMARK                         _______ _______ _______ _____ _____    ______ ____
ROOT
ATOM      1  C   UNL     1      -1.264  -6.127   0.511  0.00  0.00    +0.031 C 
ATOM      2  C   UNL     1      -2.265  -6.770   1.139  0.00  0.00    +0.086 C 
ATOM      3 CL   UNL     1      -2.224  -8.498   1.295  0.00  0.00    -0.080 Cl
ENDROOT
BRANCH   2   4
ATOM      4  C   UNL     1      -3.397  -6.007   1.693  0.00  0.00    +0.175 A 
ATOM      5  N   UNL     1      -3.498  -4.708   1.402  0.00  0.00    -0.188 NA
ATOM      6  C   UNL     1      -4.491  -3.973   1.870  0.00  0.00    +0.281 A 
ATOM      7  O   UNL     1      -4.582  -2.658   1.567  0.00  0.00    -0.265 OA
ATOM      8  C   UNL     1      -5.458  -4.595   2.697  0.00  0.00    +0.067 A 
ATOM      9  C   UNL     1      -6.540  -3.888   3.233  0.00  0.00    +0.015 A 
ATOM     10  C   UNL     1      -7.442  -4.537   4.024  0.00  0.00    +0.001 A 
ATOM     11  C   UNL     1      -7.301  -5.894   4.305  0.00  0.00    +0.002 A 
ATOM     12  C   UNL     1      -6.259  -6.612   3.799  0.00  0.00    +0.028 A 
ATOM     13  C   UNL     1      -5.312  -5.976   2.982  0.00  0.00    +0.079 A 
ATOM     14  N   UNL     1      -4.274  -6.638   2.456  0.00  0.00    -0.226 NA
ENDBRANCH   2   4
BRANCH   1  18
ATOM     15  C   UNL     1      -0.835  -1.929   0.950  0.00  0.00    +0.013 A 
ATOM     16  C   UNL     1      -0.633  -2.516  -0.287  0.00  0.00    +0.022 A 
ATOM     17  C   UNL     1      -0.771  -3.880  -0.437  0.00  0.00    +0.010 A 
ATOM     18  C   UNL     1      -1.115  -4.670   0.663  0.00  0.00    -0.023 A 
ATOM     19  C   UNL     1      -1.317  -4.069   1.909  0.00  0.00    +0.010 A 
ATOM     20  C   UNL     1      -1.171  -2.705   2.045  0.00  0.00    +0.022 A 
BRANCH  15  21
ATOM     21  N   UNL     1      -0.695  -0.545   1.094  0.00  0.00    -0.394 NA
ATOM     22  H   UNL     1      -0.871  -0.288   2.053  0.00  0.00    +0.126 HD
BRANCH  21  24
ATOM     23  C   UNL     1       0.864   1.341   1.001  0.00  0.00    +0.022 C 
ATOM     24  C   UNL     1       0.672  -0.151   0.725  0.00  0.00    +0.081 C 
ENDBRANCH  21  24
BRANCH  21  25
ATOM     25  C   UNL     1      -1.655   0.139   0.218  0.00  0.00    +0.081 C 
ATOM     26  C   UNL     1      -3.080  -0.174   0.681  0.00  0.00    +0.022 C 
ENDBRANCH  21  25
ENDBRANCH  15  21
ENDBRANCH   1  18
TORSDOF 5
