REMARK  Name = ZINC36571284
REMARK  14 active torsions:
REMARK  status: ('A' for Active; 'I' for Inactive)
REMARK    1  A    between atoms: C_1  and  C_2
REMARK    2  A    between atoms: C_2  and  C_3
REMARK    3  A    between atoms: C_3  and  N_4
REMARK    4  A    between atoms: N_4  and  C_5
REMARK    5  A    between atoms: C_5  and  C_7
REMARK    6  A    between atoms: C_5  and  C_14
REMARK    7  A    between atoms: C_12  and  O_13
REMARK    8  A    between atoms: N_16  and  C_17
REMARK    9  A    between atoms: C_17  and  S_18
REMARK   10  A    between atoms: S_18  and  C_21
REMARK   11  A    between atoms: C_24  and  C_27
REMARK   12  A    between atoms: C_28  and  C_30
REMARK   13  A    between atoms: C_34  and  O_37
REMARK   14  A    between atoms: C_35  and  O_36
REMARK                            x       y       z     vdW  Elec       q    Type
REMARK                         _______ _______ _______ _____ _____    ______ ____
ROOT
ATOM      1  C   UNL     1      -1.236  -3.049   1.772  0.00  0.00    +0.196 C 
ENDROOT
BRANCH   1   2
ATOM      2  C   UNL     1      -0.152  -2.618   2.725  0.00  0.00    +0.023 A 
ATOM      3  C   UNL     1       0.231  -1.291   2.783  0.00  0.00    +0.009 A 
ATOM      4  C   UNL     1       1.226  -0.895   3.657  0.00  0.00    +0.001 A 
ATOM      5  C   UNL     1       1.840  -1.824   4.476  0.00  0.00    +0.004 A 
ATOM      6  C   UNL     1       1.461  -3.151   4.423  0.00  0.00    +0.046 A 
ATOM      7  C   UNL     1       0.459  -3.551   3.551  0.00  0.00    +0.122 A 
BRANCH   7   8
ATOM      8  O   UNL     1       0.079  -4.855   3.501  0.00  0.00    -0.506 OA
ATOM      9  H   UNL     1       0.578  -5.385   2.864  0.00  0.00    +0.292 HD
ENDBRANCH   7   8
ENDBRANCH   1   2
BRANCH   1  10
ATOM     10  C   UNL     1      -2.531  -3.215   2.526  0.00  0.00    +0.239 C 
ATOM     11  O   UNL     1      -3.528  -2.632   2.155  0.00  0.00    -0.273 OA
ATOM     12  N   UNL     1      -2.581  -4.012   3.612  0.00  0.00    -0.294 N 
ATOM     13  H   UNL     1      -1.784  -4.478   3.908  0.00  0.00    +0.150 HD
BRANCH  12  14
ATOM     14  C   UNL     1      -3.839  -4.173   4.344  0.00  0.00    +0.278 C 
BRANCH  14  15
ATOM     15  S   UNL     1      -4.698  -5.658   3.751  0.00  0.00    +0.013 S 
ATOM     16  O   UNL     1      -5.890  -5.864   4.496  0.00  0.00    -0.168 OA
ATOM     17  O   UNL     1      -4.718  -5.676   2.330  0.00  0.00    -0.168 OA
BRANCH  15  18
ATOM     18  C   UNL     1      -3.648  -6.999   4.203  0.00  0.00    +0.090 A 
ATOM     19  C   UNL     1      -2.664  -7.430   3.333  0.00  0.00    +0.027 A 
ATOM     20  C   UNL     1      -1.841  -8.482   3.688  0.00  0.00    +0.005 A 
ATOM     21  C   UNL     1      -2.001  -9.103   4.913  0.00  0.00    -0.050 A 
ATOM     22  C   UNL     1      -2.984  -8.670   5.783  0.00  0.00    +0.005 A 
ATOM     23  C   UNL     1      -3.804  -7.615   5.431  0.00  0.00    +0.027 A 
ATOM     24  C   UNL     1      -1.104 -10.250   5.299  0.00  0.00    +0.044 C 
ENDBRANCH  15  18
ENDBRANCH  14  15
ENDBRANCH  12  14
ENDBRANCH   1  10
BRANCH   1  25
ATOM     25  N   UNL     1      -1.404  -2.032   0.731  0.00  0.00    -0.282 N 
ATOM     26  C   UNL     1      -0.445  -1.853  -0.198  0.00  0.00    +0.251 C 
ATOM     27  O   UNL     1      -0.654  -1.139  -1.159  0.00  0.00    -0.270 OA
BRANCH  26  28
ATOM     28  C   UNL     1       0.861  -2.525  -0.048  0.00  0.00    +0.082 A 
ATOM     29  C   UNL     1       1.035  -3.513   0.925  0.00  0.00    +0.017 A 
ATOM     30  C   UNL     1       2.255  -4.137   1.062  0.00  0.00    +0.005 A 
ATOM     31  C   UNL     1       3.314  -3.792   0.238  0.00  0.00    +0.049 A 
ATOM     32  C   UNL     1       3.158  -2.816  -0.730  0.00  0.00    +0.159 A 
ATOM     33  C   UNL     1       1.929  -2.179  -0.884  0.00  0.00    +0.171 A 
BRANCH  33  34
ATOM     34  O   UNL     1       1.770  -1.225  -1.837  0.00  0.00    -0.503 OA
ATOM     35  H   UNL     1       1.976  -0.330  -1.535  0.00  0.00    +0.292 HD
ENDBRANCH  33  34
BRANCH  32  36
ATOM     36  O   UNL     1       4.202  -2.482  -1.535  0.00  0.00    -0.503 OA
ATOM     37  H   UNL     1       4.253  -3.002  -2.349  0.00  0.00    +0.292 HD
ENDBRANCH  32  36
ENDBRANCH  26  28
BRANCH  25  38
ATOM     38  C   UNL     1      -2.616  -1.209   0.700  0.00  0.00    +0.109 C 
BRANCH  38  40
ATOM     39  C   UNL     1      -5.007  -1.137  -0.020  0.00  0.00    +0.005 C 
ATOM     40  C   UNL     1      -3.700  -1.927  -0.106  0.00  0.00    +0.016 C 
ENDBRANCH  38  40
ENDBRANCH  25  38
ENDBRANCH   1  25
TORSDOF 12
