REMARK  Name = ZINC01321124
REMARK  9 active torsions:
REMARK  status: ('A' for Active; 'I' for Inactive)
REMARK    1  A    between atoms: C_1  and  C_2
REMARK    2  A    between atoms: C_2  and  C_4
REMARK    3  A    between atoms: C_2  and  N_8
REMARK    4  A    between atoms: C_4  and  O_6
REMARK    5  A    between atoms: O_6  and  C_7
REMARK    6  A    between atoms: C_19  and  C_23
REMARK    7  A    between atoms: C_23  and  C_24
REMARK    8  A    between atoms: C_23  and  C_25
REMARK    9  A    between atoms: C_23  and  C_26
REMARK                            x       y       z     vdW  Elec       q    Type
REMARK                         _______ _______ _______ _____ _____    ______ ____
ROOT
ATOM      1  N   UNL     1       4.306  -3.825  -5.619  0.00  0.00    -0.197 N 
ATOM      2  C   UNL     1       3.304  -3.549  -4.750  0.00  0.00    +0.279 A 
ATOM      3  O   UNL     1       2.318  -4.259  -4.649  0.00  0.00    -0.265 OA
ATOM      4  C   UNL     1       3.478  -2.363  -3.957  0.00  0.00    +0.079 A 
ATOM      5  C   UNL     1       2.558  -1.848  -2.961  0.00  0.00    -0.023 A 
ATOM      6  C   UNL     1       2.924  -0.708  -2.326  0.00  0.00    -0.004 A 
ATOM      7  S   UNL     1       4.498  -0.275  -3.024  0.00  0.00    -0.071 S 
ATOM      8  C   UNL     1       4.660  -1.618  -4.159  0.00  0.00    +0.138 A 
ATOM      9  N   UNL     1       5.610  -1.943  -5.030  0.00  0.00    -0.123 NA
ATOM     10  N   UNL     1       5.437  -3.016  -5.738  0.00  0.00    -0.061 NA
ATOM     11  C   UNL     1       2.162   0.025  -1.267  0.00  0.00    +0.046 C 
ATOM     12  C   UNL     1       0.718  -0.497  -1.257  0.00  0.00    -0.000 C 
ATOM     13  C   UNL     1       0.748  -2.029  -1.264  0.00  0.00    +0.009 C 
ATOM     14  C   UNL     1       1.236  -2.533  -2.622  0.00  0.00    +0.037 C 
ENDROOT
BRANCH  12  15
ATOM     15  C   UNL     1       0.002  -0.004   0.002  0.00  0.00    -0.035 C 
ATOM     16  C   UNL     1      -0.019   1.526   0.010  0.00  0.00    +0.011 C 
ATOM     17  C   UNL     1       0.742  -0.511   1.242  0.00  0.00    +0.011 C 
ATOM     18  C   UNL     1      -1.433  -0.534   0.013  0.00  0.00    +0.011 C 
ENDBRANCH  12  15
BRANCH   1  20
ATOM     19  C   UNL     1       4.226  -4.606  -7.935  0.00  0.00    +0.045 C 
ATOM     20  C   UNL     1       4.200  -5.018  -6.462  0.00  0.00    +0.218 C 
BRANCH  20  21
ATOM     21  C   UNL     1       5.359  -5.939  -6.178  0.00  0.00    +0.332 C 
ATOM     22  O   UNL     1       6.189  -5.630  -5.356  0.00  0.00    -0.248 OA
BRANCH  21  23
ATOM     23  O   UNL     1       5.470  -7.102  -6.839  0.00  0.00    -0.466 OA
ATOM     24  C   UNL     1       6.612  -7.938  -6.514  0.00  0.00    +0.280 C 
ENDBRANCH  21  23
ENDBRANCH  20  21
ENDBRANCH   1  20
TORSDOF 4
