REMARK  Name = ZINC08448853
REMARK  5 active torsions:
REMARK  status: ('A' for Active; 'I' for Inactive)
REMARK    1  A    between atoms: C_1  and  N_51
REMARK    2  A    between atoms: C_12  and  C_15
REMARK    3  A    between atoms: C_18  and  O_21
REMARK    4  A    between atoms: O_21  and  C_22
REMARK    5  A    between atoms: C_22  and  C_24
REMARK                            x       y       z     vdW  Elec       q    Type
REMARK                         _______ _______ _______ _____ _____    ______ ____
ROOT
ATOM      1  C   UNL     1      -0.253   0.288   1.917  0.00  0.00    -0.096 C 
ATOM      2  C   UNL     1      -0.053   0.734  -0.455  0.00  0.00    -0.074 C 
ATOM      3  C   UNL     1      -0.797   1.342  -1.647  0.00  0.00    +0.018 C 
ATOM      4  C   UNL     1      -0.951   2.839  -1.399  0.00  0.00    -0.027 A 
ATOM      5  C   UNL     1      -0.795   3.337  -0.150  0.00  0.00    -0.021 A 
ATOM      6  S   UNL     1      -1.054   5.081  -0.319  0.00  0.00    -0.080 S 
ATOM      7  C   UNL     1      -1.361   5.145  -2.002  0.00  0.00    +0.080 A 
ATOM      8  C   UNL     1      -1.266   3.812  -2.430  0.00  0.00    +0.068 A 
ATOM      9  C   UNL     1      -1.482   3.538  -3.870  0.00  0.00    +0.248 C 
ATOM     10  O   UNL     1      -1.295   2.431  -4.340  0.00  0.00    -0.270 OA
ATOM     11  N   UNL     1      -1.894   4.567  -4.639  0.00  0.00    -0.289 N 
ATOM     12  C   UNL     1      -2.354   5.843  -4.098  0.00  0.00    +0.190 C 
ATOM     13  N   UNL     1      -1.644   6.183  -2.852  0.00  0.00    -0.316 N 
ATOM     14  C   UNL     1      -0.474   2.556   1.085  0.00  0.00    -0.036 C 
ATOM     15  H   UNL     1      -1.884   4.454  -5.602  0.00  0.00    +0.151 HD
ATOM     16  H   UNL     1      -1.388   7.095  -2.645  0.00  0.00    +0.149 HD
ATOM     17  N   UNL     1      -0.734   1.124   0.796  0.00  0.00    +0.381 N 
ATOM     18  H   UNL     1      -1.745   0.984   0.685  0.00  0.00    -0.082 HD
ENDROOT
BRANCH  12  19
ATOM     19  C   UNL     1      -3.832   5.755  -3.816  0.00  0.00    -0.009 A 
ATOM     20  C   UNL     1      -4.390   6.525  -2.812  0.00  0.00    +0.010 A 
ATOM     21  C   UNL     1      -5.745   6.450  -2.554  0.00  0.00    +0.047 A 
ATOM     22  C   UNL     1      -6.544   5.592  -3.296  0.00  0.00    +0.132 A 
ATOM     23  C   UNL     1      -5.981   4.816  -4.299  0.00  0.00    +0.047 A 
ATOM     24  C   UNL     1      -4.627   4.899  -4.556  0.00  0.00    +0.010 A 
BRANCH  22  25
ATOM     25  O   UNL     1      -7.877   5.513  -3.041  0.00  0.00    -0.422 OA
BRANCH  25  26
ATOM     26  C   UNL     1      -8.328   4.366  -2.497  0.00  0.00    +0.344 C 
ATOM     27  O   UNL     1      -7.543   3.503  -2.160  0.00  0.00    -0.245 OA
BRANCH  26  28
ATOM     28  C   UNL     1      -9.779   4.158  -2.310  0.00  0.00    +0.060 A 
ATOM     29  C   UNL     1     -10.250   2.970  -1.747  0.00  0.00    +0.015 A 
ATOM     30  C   UNL     1     -11.606   2.782  -1.575  0.00  0.00    +0.002 A 
ATOM     31  C   UNL     1     -12.498   3.767  -1.959  0.00  0.00    +0.015 A 
ATOM     32  C   UNL     1     -12.039   4.947  -2.518  0.00  0.00    +0.019 A 
ATOM     33  C   UNL     1     -10.684   5.150  -2.691  0.00  0.00    +0.030 A 
ATOM     34 BR   UNL     1     -13.268   6.286  -3.038  0.00  0.00    -0.050 Br
ENDBRANCH  26  28
ENDBRANCH  25  26
ENDBRANCH  22  25
ENDBRANCH  12  19
TORSDOF 4
