REMARK  Name = ZINC35486675
REMARK  12 active torsions:
REMARK  status: ('A' for Active; 'I' for Inactive)
REMARK    1  A    between atoms: C_1  and  C_2
REMARK    2  A    between atoms: C_2  and  O_3
REMARK    3  A    between atoms: O_3  and  C_4
REMARK    4  A    between atoms: C_7  and  C_13
REMARK    5  A    between atoms: C_9  and  O_10
REMARK    6  A    between atoms: O_10  and  C_11
REMARK    7  A    between atoms: C_11  and  C_12
REMARK    8  A    between atoms: N_28  and  C_29
REMARK    9  A    between atoms: C_29  and  C_30
REMARK   10  A    between atoms: C_30  and  N_31
REMARK   11  A    between atoms: N_31  and  C_32
REMARK   12  A    between atoms: N_31  and  C_33
REMARK                            x       y       z     vdW  Elec       q    Type
REMARK                         _______ _______ _______ _____ _____    ______ ____
ROOT
ATOM      1  C   UNL     1       1.107  -6.044  -1.844  0.00  0.00    +0.145 C 
ATOM      2  C   UNL     1       2.187  -6.585  -0.965  0.00  0.00    +0.072 A 
ATOM      3  C   UNL     1       3.628  -6.314  -0.926  0.00  0.00    +0.199 A 
ATOM      4  O   UNL     1       4.154  -5.414  -1.556  0.00  0.00    -0.287 OA
ATOM      5  C   UNL     1       4.383  -7.242  -0.047  0.00  0.00    +0.065 A 
ATOM      6  C   UNL     1       5.778  -7.244  -0.056  0.00  0.00    +0.030 A 
ATOM      7  C   UNL     1       6.463  -8.114   0.763  0.00  0.00    +0.019 A 
ATOM      8  C   UNL     1       5.766  -8.984   1.591  0.00  0.00    +0.019 A 
ATOM      9  C   UNL     1       4.390  -8.990   1.609  0.00  0.00    +0.048 A 
ATOM     10  C   UNL     1       3.673  -8.116   0.792  0.00  0.00    +0.140 A 
ATOM     11  O   UNL     1       2.321  -8.135   0.837  0.00  0.00    -0.450 OA
ATOM     12  C   UNL     1       1.614  -7.473  -0.099  0.00  0.00    +0.199 A 
ATOM     13  C   UNL     1       0.171  -7.537  -0.390  0.00  0.00    +0.283 C 
ATOM     14  O   UNL     1      -0.628  -8.236   0.200  0.00  0.00    -0.267 OA
ATOM     15  N   UNL     1      -0.135  -6.705  -1.409  0.00  0.00    -0.285 N 
ATOM     16 BR   UNL     1       8.354  -8.126   0.759  0.00  0.00    -0.050 Br
ENDROOT
BRANCH   1  20
ATOM     17  C   UNL     1       0.777  -1.811  -1.336  0.00  0.00    +0.162 A 
ATOM     18  C   UNL     1       0.243  -2.669  -0.388  0.00  0.00    +0.050 A 
ATOM     19  C   UNL     1       0.352  -4.037  -0.555  0.00  0.00    +0.009 A 
ATOM     20  C   UNL     1       0.992  -4.552  -1.667  0.00  0.00    -0.019 A 
ATOM     21  C   UNL     1       1.526  -3.702  -2.616  0.00  0.00    +0.055 A 
ATOM     22  C   UNL     1       1.416  -2.330  -2.458  0.00  0.00    +0.162 A 
BRANCH  17  23
ATOM     23  O   UNL     1       0.671  -0.465  -1.174  0.00  0.00    -0.489 OA
BRANCH  23  25
ATOM     24  C   UNL     1      -0.019   1.526   0.010  0.00  0.00    +0.048 C 
ATOM     25  C   UNL     1       0.002  -0.004   0.002  0.00  0.00    +0.226 C 
ENDBRANCH  23  25
ENDBRANCH  17  23
BRANCH  22  26
ATOM     26  O   UNL     1       1.936  -1.492  -3.394  0.00  0.00    -0.489 OA
BRANCH  26  27
ATOM     27  C   UNL     1       2.578  -2.095  -4.520  0.00  0.00    +0.226 C 
ATOM     28  C   UNL     1       3.096  -1.002  -5.457  0.00  0.00    +0.048 C 
ENDBRANCH  26  27
ENDBRANCH  22  26
ENDBRANCH   1  20
BRANCH  15  29
ATOM     29  C   UNL     1      -1.467  -6.495  -1.982  0.00  0.00    +0.090 C 
BRANCH  29  30
ATOM     30  C   UNL     1      -1.694  -7.488  -3.123  0.00  0.00    -0.060 C 
BRANCH  30  31
ATOM     31  N   UNL     1      -3.029  -7.278  -3.697  0.00  0.00    +0.377 N 
ATOM     32  C   UNL     1      -3.091  -5.949  -4.320  0.00  0.00    -0.097 C 
ATOM     33  C   UNL     1      -3.294  -8.307  -4.712  0.00  0.00    -0.097 C 
ATOM     34  H   UNL     1      -3.723  -7.339  -2.967  0.00  0.00    -0.083 HD
ENDBRANCH  30  31
ENDBRANCH  29  30
ENDBRANCH  15  29
TORSDOF 8
