REMARK  Name = ZINC09946377
REMARK  9 active torsions:
REMARK  status: ('A' for Active; 'I' for Inactive)
REMARK    1  A    between atoms: C_1  and  C_2
REMARK    2  A    between atoms: C_8  and  N_10
REMARK    3  A    between atoms: C_11  and  C_13
REMARK    4  A    between atoms: C_13  and  S_14
REMARK    5  A    between atoms: S_14  and  C_15
REMARK    6  A    between atoms: C_18  and  C_30
REMARK    7  A    between atoms: N_19  and  C_20
REMARK    8  A    between atoms: C_25  and  C_26
REMARK    9  A    between atoms: C_30  and  N_66
REMARK                            x       y       z     vdW  Elec       q    Type
REMARK                         _______ _______ _______ _____ _____    ______ ____
ROOT
ATOM      1  C   UNL     1      -0.545   1.040  -0.073  0.00  0.00    +0.197 A 
ATOM      2  N   UNL     1       0.609   1.597   0.212  0.00  0.00    -0.122 NA
ATOM      3  N   UNL     1       1.546   0.720   0.149  0.00  0.00    -0.135 NA
ATOM      4  C   UNL     1       1.053  -0.441  -0.178  0.00  0.00    +0.122 A 
ATOM      5  N   UNL     1      -0.298  -0.281  -0.332  0.00  0.00    -0.275 N 
ENDROOT
BRANCH   5   6
ATOM      6  C   UNL     1      -1.234  -1.265  -0.681  0.00  0.00    +0.062 A 
ATOM      7  C   UNL     1      -1.487  -1.541  -2.018  0.00  0.00    +0.027 A 
ATOM      8  C   UNL     1      -2.409  -2.511  -2.359  0.00  0.00    +0.002 A 
ATOM      9  C   UNL     1      -3.080  -3.207  -1.371  0.00  0.00    +0.001 A 
ATOM     10  C   UNL     1      -2.830  -2.934  -0.038  0.00  0.00    +0.014 A 
ATOM     11  C   UNL     1      -1.906  -1.969   0.309  0.00  0.00    +0.079 A 
BRANCH  11  12
ATOM     12  C   UNL     1      -1.629  -1.677   1.761  0.00  0.00    +0.419 C 
ATOM     13  F   UNL     1      -2.421  -2.507   2.563  0.00  0.00    -0.166 F 
ATOM     14  F   UNL     1      -0.278  -1.913   2.036  0.00  0.00    -0.166 F 
ATOM     15  F   UNL     1      -1.933  -0.338   2.034  0.00  0.00    -0.166 F 
ENDBRANCH  11  12
ENDBRANCH   5   6
BRANCH   1  16
ATOM     16  S   UNL     1      -2.113   1.843  -0.121  0.00  0.00    -0.076 S 
BRANCH  16  17
ATOM     17  C   UNL     1      -1.618   3.525   0.325  0.00  0.00    +0.173 C 
BRANCH  17  19
ATOM     18  N   UNL     1      -2.706   5.722   0.657  0.00  0.00    -0.312 N 
ATOM     19  C   UNL     1      -2.833   4.417   0.348  0.00  0.00    +0.224 C 
ATOM     20  O   UNL     1      -3.926   3.959   0.088  0.00  0.00    -0.275 OA
ATOM     21  H   UNL     1      -1.832   6.088   0.865  0.00  0.00    +0.149 HD
BRANCH  18  28
ATOM     22  C   UNL     1      -2.777   8.143  -0.931  0.00  0.00    +0.009 C 
ATOM     23  C   UNL     1      -3.461   8.037   0.433  0.00  0.00    +0.006 C 
ATOM     24  C   UNL     1      -2.486   8.476   1.528  0.00  0.00    +0.005 C 
ATOM     25  C   UNL     1      -3.171   8.370   2.892  0.00  0.00    +0.000 C 
ATOM     26  C   UNL     1      -3.597   6.921   3.139  0.00  0.00    +0.002 C 
ATOM     27  C   UNL     1      -4.571   6.483   2.044  0.00  0.00    +0.022 C 
ATOM     28  C   UNL     1      -3.887   6.589   0.679  0.00  0.00    +0.076 C 
ENDBRANCH  18  28
ENDBRANCH  17  19
ENDBRANCH  16  17
ENDBRANCH   1  16
BRANCH   4  29
ATOM     29  C   UNL     1       1.827  -1.722  -0.354  0.00  0.00    -0.001 C 
BRANCH  29  35
ATOM     30  C   UNL     1       2.962  -1.635   1.782  0.00  0.00    -0.078 C 
ATOM     31  C   UNL     1       3.010  -2.255   3.180  0.00  0.00    -0.019 C 
ATOM     32  C   UNL     1       3.425  -3.724   3.069  0.00  0.00    -0.004 C 
ATOM     33  C   UNL     1       2.436  -4.459   2.160  0.00  0.00    -0.019 C 
ATOM     34  C   UNL     1       2.405  -3.775   0.791  0.00  0.00    -0.078 C 
ATOM     35  N   UNL     1       1.974  -2.372   0.964  0.00  0.00    +0.384 N 
ATOM     36  H   UNL     1       1.068  -2.359   1.446  0.00  0.00    -0.081 HD
ENDBRANCH  29  35
ENDBRANCH   4  29
TORSDOF 8
