REMARK  Name = ZINC32996269
REMARK  6 active torsions:
REMARK  status: ('A' for Active; 'I' for Inactive)
REMARK    1  A    between atoms: C_1  and  C_2
REMARK    2  A    between atoms: C_2  and  C_3
REMARK    3  A    between atoms: C_2  and  N_4
REMARK    4  A    between atoms: N_7  and  C_8
REMARK    5  A    between atoms: C_11  and  C_14
REMARK    6  A    between atoms: C_16  and  C_19
REMARK                            x       y       z     vdW  Elec       q    Type
REMARK                         _______ _______ _______ _____ _____    ______ ____
ROOT
ATOM      1  C   UNL     1       5.775   9.289   0.004  0.00  0.00    +0.035 A 
ATOM      2  C   UNL     1       6.537   8.139   0.175  0.00  0.00    +0.024 A 
ATOM      3  C   UNL     1       5.928   6.903   0.180  0.00  0.00    +0.013 A 
ATOM      4  C   UNL     1       4.547   6.806   0.014  0.00  0.00    +0.023 A 
ATOM      5  C   UNL     1       3.786   7.960  -0.162  0.00  0.00    +0.013 A 
ATOM      6  C   UNL     1       4.398   9.195  -0.162  0.00  0.00    +0.024 A 
ENDROOT
BRANCH   1  10
ATOM      7  N   UNL     1       8.276  11.861  -0.413  0.00  0.00    -0.297 N 
ATOM      8  C   UNL     1       7.637  10.677  -0.505  0.00  0.00    +0.304 C 
ATOM      9  O   UNL     1       8.181   9.732  -1.042  0.00  0.00    -0.253 OA
ATOM     10  N   UNL     1       6.394  10.542  -0.001  0.00  0.00    -0.269 N 
ATOM     11  H   UNL     1       7.783  12.716   0.072  0.00  0.00    +0.151 HD
ATOM     12  H   UNL     1       5.867  11.418   0.405  0.00  0.00    +0.156 HD
BRANCH   7  14
ATOM     13  C   UNL     1       9.540  12.336  -2.453  0.00  0.00    +0.027 C 
ATOM     14  C   UNL     1       9.627  12.008  -0.961  0.00  0.00    +0.068 C 
ATOM     15  C   UNL     1      10.353  13.139  -0.231  0.00  0.00    +0.027 C 
ENDBRANCH   7  14
ENDBRANCH   1  10
BRANCH   4  16
ATOM     16  C   UNL     1       3.890   5.476   0.020  0.00  0.00    +0.202 A 
ATOM     17  N   UNL     1       2.571   5.236  -0.134  0.00  0.00    -0.187 NA
ATOM     18  C   UNL     1       2.440   3.924  -0.059  0.00  0.00    +0.262 A 
ATOM     19  O   UNL     1       3.670   3.420   0.127  0.00  0.00    -0.332 OA
ATOM     20  N   UNL     1       4.483   4.319   0.169  0.00  0.00    -0.056 NA
BRANCH  18  21
ATOM     21  C   UNL     1       1.181   3.158  -0.165  0.00  0.00    +0.075 A 
ATOM     22  C   UNL     1       1.198   1.765  -0.071  0.00  0.00    +0.016 A 
ATOM     23  C   UNL     1       0.020   1.055  -0.171  0.00  0.00    +0.001 A 
ATOM     24  C   UNL     1      -1.178   1.719  -0.368  0.00  0.00    +0.003 A 
ATOM     25  C   UNL     1      -1.206   3.099  -0.457  0.00  0.00    +0.039 A 
ATOM     26  C   UNL     1      -0.032   3.824  -0.359  0.00  0.00    +0.136 A 
ATOM     27  F   UNL     1      -0.059   5.171  -0.451  0.00  0.00    -0.205 F 
ENDBRANCH  18  21
ENDBRANCH   4  16
TORSDOF 4
