REMARK  Name = ZINC06844191
REMARK  4 active torsions:
REMARK  status: ('A' for Active; 'I' for Inactive)
REMARK    1  A    between atoms: C_1  and  C_2
REMARK    2  A    between atoms: C_2  and  C_3
REMARK    3  A    between atoms: C_9  and  C_20
REMARK    4  A    between atoms: C_12  and  C_14
REMARK                            x       y       z     vdW  Elec       q    Type
REMARK                         _______ _______ _______ _____ _____    ______ ____
ROOT
ATOM      1  C   UNL     1       4.540   4.666  -0.824  0.00  0.00    -0.047 A 
ATOM      2  C   UNL     1       5.149   5.678  -0.107  0.00  0.00    +0.006 A 
ATOM      3  C   UNL     1       4.393   6.528   0.658  0.00  0.00    +0.029 A 
ATOM      4  C   UNL     1       3.003   6.377   0.738  0.00  0.00    +0.075 A 
ATOM      5  C   UNL     1       2.385   5.356   0.013  0.00  0.00    +0.029 A 
ATOM      6  C   UNL     1       3.169   4.504  -0.765  0.00  0.00    +0.015 A 
ATOM      7  C   UNL     1       0.921   5.125   0.019  0.00  0.00    +0.105 C 
ATOM      8  N   UNL     1       0.053   6.086   0.031  0.00  0.00    -0.180 NA
ATOM      9  N   UNL     1       0.464   7.422   0.135  0.00  0.00    -0.220 N 
ATOM     10  C   UNL     1       1.182   7.789   1.258  0.00  0.00    +0.146 C 
ATOM     11  N   UNL     1       2.328   7.250   1.541  0.00  0.00    -0.230 NA
ATOM     12  H   UNL     1       0.252   8.067  -0.557  0.00  0.00    +0.176 HD
ENDROOT
BRANCH  10  13
ATOM     13  C   UNL     1       0.630   8.820   2.159  0.00  0.00    +0.016 A 
ATOM     14  C   UNL     1       1.335   9.203   3.303  0.00  0.00    +0.011 A 
ATOM     15  C   UNL     1       0.816  10.170   4.138  0.00  0.00    +0.001 A 
ATOM     16  C   UNL     1      -0.405  10.754   3.850  0.00  0.00    +0.000 A 
ATOM     17  C   UNL     1      -1.111  10.377   2.721  0.00  0.00    +0.001 A 
ATOM     18  C   UNL     1      -0.602   9.414   1.875  0.00  0.00    +0.011 A 
ENDBRANCH  10  13
BRANCH   7  19
ATOM     19  C   UNL     1       0.431   3.737   0.017  0.00  0.00    +0.040 A 
ATOM     20  C   UNL     1      -0.872   3.273   0.027  0.00  0.00    +0.018 A 
ATOM     21  C   UNL     1      -1.082   1.914   0.017  0.00  0.00    +0.008 A 
ATOM     22  C   UNL     1      -0.013   1.076   0.008  0.00  0.00    +0.046 A 
ATOM     23  S   UNL     1       1.362   2.214   0.001  0.00  0.00    -0.095 S 
ENDBRANCH   7  19
BRANCH   1  25
ATOM     24  C   UNL     1       5.502   4.309  -3.082  0.00  0.00    +0.009 C 
ATOM     25  C   UNL     1       5.373   3.736  -1.669  0.00  0.00    +0.032 C 
ENDBRANCH   1  25
TORSDOF 3
