REMARK  Name = ZINC28923015
REMARK  3 active torsions:
REMARK  status: ('A' for Active; 'I' for Inactive)
REMARK    1  A    between atoms: C_1  and  C_2
REMARK    2  A    between atoms: C_3  and  C_9
REMARK    3  A    between atoms: N_5  and  C_7
REMARK                            x       y       z     vdW  Elec       q    Type
REMARK                         _______ _______ _______ _____ _____    ______ ____
ROOT
ATOM      1  C   UNL     1       1.107  -0.747  -0.618  0.00  0.00    +0.210 C 
ATOM      2  N   UNL     1      -0.095  -0.198   0.022  0.00  0.00    -0.319 N 
ATOM      3  C   UNL     1      -0.330   1.174   0.060  0.00  0.00    +0.040 A 
ATOM      4  C   UNL     1      -1.617   1.684   0.102  0.00  0.00    +0.024 A 
ATOM      5  C   UNL     1      -1.814   3.051   0.158  0.00  0.00    +0.002 A 
ATOM      6  C   UNL     1      -0.736   3.921   0.178  0.00  0.00    +0.001 A 
ATOM      7  C   UNL     1       0.555   3.431   0.131  0.00  0.00    +0.013 A 
ATOM      8  C   UNL     1       0.763   2.062   0.063  0.00  0.00    +0.038 A 
ATOM      9  C   UNL     1       2.109   1.462  -0.021  0.00  0.00    +0.145 A 
ATOM     10  N   UNL     1       2.253   0.114  -0.313  0.00  0.00    -0.300 N 
ATOM     11  C   UNL     1       3.583  -0.166  -0.260  0.00  0.00    +0.071 A 
ATOM     12  C   UNL     1       4.313  -1.337  -0.436  0.00  0.00    +0.028 A 
ATOM     13  C   UNL     1       5.689  -1.245  -0.312  0.00  0.00    +0.002 A 
ATOM     14  C   UNL     1       6.323  -0.047  -0.025  0.00  0.00    +0.002 A 
ATOM     15  C   UNL     1       5.627   1.123   0.155  0.00  0.00    +0.030 A 
ATOM     16  C   UNL     1       4.233   1.060   0.038  0.00  0.00    +0.090 A 
ATOM     17  N   UNL     1       3.281   2.003   0.166  0.00  0.00    -0.227 NA
ATOM     18  H   UNL     1      -0.830  -0.874   0.483  0.00  0.00    +0.148 HD
ENDROOT
BRANCH   1  21
ATOM     19  C   UNL     1       1.667  -3.245  -2.486  0.00  0.00    +0.068 C 
ATOM     20  C   UNL     1       1.148  -1.903  -2.935  0.00  0.00    +0.068 A 
ATOM     21  C   UNL     1       0.902  -0.801  -2.110  0.00  0.00    +0.052 A 
ATOM     22  C   UNL     1       0.440   0.207  -2.889  0.00  0.00    +0.134 A 
ATOM     23  N   UNL     1       0.405  -0.240  -4.162  0.00  0.00    -0.255 N 
ATOM     24  N   UNL     1       0.851  -1.568  -4.165  0.00  0.00    -0.175 NA
ATOM     25  C   UNL     1      -0.029   0.526  -5.332  0.00  0.00    +0.174 C 
ATOM     26 CL   UNL     1      -0.020   1.791  -2.347  0.00  0.00    -0.062 Cl
ENDBRANCH   1  21
TORSDOF 1
