REMARK  Name = ZINC36635897
REMARK  5 active torsions:
REMARK  status: ('A' for Active; 'I' for Inactive)
REMARK    1  A    between atoms: C_1  and  C_2
REMARK    2  A    between atoms: C_6  and  N_9
REMARK    3  A    between atoms: C_7  and  C_8
REMARK    4  A    between atoms: N_9  and  C_10
REMARK    5  A    between atoms: N_15  and  C_18
REMARK                            x       y       z     vdW  Elec       q    Type
REMARK                         _______ _______ _______ _____ _____    ______ ____
ROOT
ATOM      1  C   UNL     1       0.013  -4.402   2.317  0.00  0.00    +0.166 C 
ATOM      2  C   UNL     1      -0.419  -4.680   3.771  0.00  0.00    +0.128 C 
ATOM      3  C   UNL     1       0.779  -5.386   4.368  0.00  0.00    +0.228 C 
ATOM      4  O   UNL     1       0.861  -5.786   5.510  0.00  0.00    -0.275 OA
ATOM      5  N   UNL     1       1.733  -5.500   3.436  0.00  0.00    -0.209 N 
ATOM      6  C   UNL     1       1.409  -4.981   2.241  0.00  0.00    +0.247 C 
ATOM      7  O   UNL     1       2.120  -4.976   1.259  0.00  0.00    -0.273 OA
ENDROOT
BRANCH   5   8
ATOM      8  C   UNL     1       2.970  -6.112   3.687  0.00  0.00    +0.045 A 
ATOM      9  C   UNL     1       3.032  -7.478   3.932  0.00  0.00    +0.025 A 
ATOM     10  C   UNL     1       4.251  -8.079   4.178  0.00  0.00    +0.023 A 
ATOM     11  C   UNL     1       5.409  -7.322   4.181  0.00  0.00    +0.059 A 
ATOM     12  C   UNL     1       5.350  -5.961   3.937  0.00  0.00    +0.061 A 
ATOM     13  C   UNL     1       4.133  -5.356   3.685  0.00  0.00    +0.045 A 
ATOM     14 CL   UNL     1       6.805  -5.014   3.941  0.00  0.00    -0.082 Cl
ATOM     15 CL   UNL     1       6.939  -8.082   4.491  0.00  0.00    -0.082 Cl
ENDBRANCH   5   8
BRANCH   1  16
ATOM     16  N   UNL     1       0.038  -2.962   2.053  0.00  0.00    -0.332 N 
ATOM     17  H   UNL     1       0.131  -2.335   2.787  0.00  0.00    +0.147 HD
BRANCH  16  23
ATOM     18  C   UNL     1      -0.135   0.821  -1.081  0.00  0.00    +0.044 C 
ATOM     19  C   UNL     1      -0.159  -0.661  -0.806  0.00  0.00    -0.046 A 
ATOM     20  C   UNL     1      -0.291  -1.556  -1.853  0.00  0.00    +0.004 A 
ATOM     21  C   UNL     1      -0.315  -2.916  -1.605  0.00  0.00    +0.002 A 
ATOM     22  C   UNL     1      -0.206  -3.385  -0.311  0.00  0.00    +0.023 A 
ATOM     23  C   UNL     1      -0.072  -2.490   0.743  0.00  0.00    +0.031 A 
ATOM     24  C   UNL     1      -0.044  -1.124   0.490  0.00  0.00    -0.027 A 
ATOM     25  C   UNL     1       0.106  -0.149   1.629  0.00  0.00    +0.046 C 
ENDBRANCH  16  23
ENDBRANCH   1  16
TORSDOF 3
