REMARK  Name = ZINC20737619
REMARK  9 active torsions:
REMARK  status: ('A' for Active; 'I' for Inactive)
REMARK    1  A    between atoms: C_1  and  O_2
REMARK    2  A    between atoms: O_2  and  C_3
REMARK    3  A    between atoms: C_3  and  C_5
REMARK    4  A    between atoms: C_5  and  C_7
REMARK    5  A    between atoms: C_5  and  N_11
REMARK    6  A    between atoms: C_7  and  C_8
REMARK    7  A    between atoms: C_8  and  S_9
REMARK    8  A    between atoms: S_9  and  C_10
REMARK    9  A    between atoms: C_23  and  C_25
REMARK                            x       y       z     vdW  Elec       q    Type
REMARK                         _______ _______ _______ _____ _____    ______ ____
ROOT
ATOM      1  N   UNL     1      -2.685  -2.384   2.296  0.00  0.00    -0.286 N 
ATOM      2  C   UNL     1      -3.322  -2.692   1.150  0.00  0.00    +0.304 C 
ATOM      3  O   UNL     1      -2.768  -2.522   0.081  0.00  0.00    -0.253 OA
ATOM      4  N   UNL     1      -4.575  -3.189   1.187  0.00  0.00    -0.273 N 
ATOM      5  C   UNL     1      -5.246  -3.636  -0.042  0.00  0.00    +0.116 C 
ATOM      6  C   UNL     1      -5.504  -5.146   0.044  0.00  0.00    +0.076 C 
ATOM      7  C   UNL     1      -6.064  -5.466   1.407  0.00  0.00    +0.066 A 
ATOM      8  C   UNL     1      -5.974  -4.651   2.480  0.00  0.00    +0.064 A 
ATOM      9  N   UNL     1      -6.587  -5.281   3.518  0.00  0.00    -0.346 N 
ATOM     10  H   UNL     1      -6.681  -4.944   4.423  0.00  0.00    +0.167 HD
ATOM     11  C   UNL     1      -7.039  -6.467   3.049  0.00  0.00    +0.197 A 
ATOM     12  N   UNL     1      -6.721  -6.567   1.785  0.00  0.00    -0.240 NA
ATOM     13  C   UNL     1      -5.305  -3.304   2.463  0.00  0.00    +0.158 C 
ATOM     14  H   UNL     1      -3.154  -2.444   3.143  0.00  0.00    +0.151 HD
ENDROOT
BRANCH  13  15
ATOM     15  C   UNL     1      -6.346  -2.218   2.558  0.00  0.00    -0.001 A 
ATOM     16  C   UNL     1      -7.397  -2.187   1.661  0.00  0.00    +0.007 A 
ATOM     17  C   UNL     1      -8.352  -1.192   1.748  0.00  0.00    +0.002 A 
ATOM     18  C   UNL     1      -8.256  -0.225   2.731  0.00  0.00    +0.021 A 
ATOM     19  C   UNL     1      -7.205  -0.254   3.629  0.00  0.00    +0.060 A 
ATOM     20  C   UNL     1      -6.252  -1.255   3.547  0.00  0.00    +0.065 A 
ATOM     21 CL   UNL     1      -4.936  -1.297   4.678  0.00  0.00    -0.082 Cl
ATOM     22 CL   UNL     1      -7.085   0.960   4.864  0.00  0.00    -0.082 Cl
ENDBRANCH  13  15
BRANCH   1  23
ATOM     23  C   UNL     1      -1.283  -1.960   2.264  0.00  0.00    +0.184 C 
BRANCH  23  24
ATOM     24  C   UNL     1      -0.391  -3.174   2.263  0.00  0.00    +0.327 C 
ATOM     25  O   UNL     1      -0.876  -4.280   2.287  0.00  0.00    -0.249 OA
BRANCH  24  27
ATOM     26  C   UNL     1       1.728  -4.221   2.236  0.00  0.00    +0.280 C 
ATOM     27  O   UNL     1       0.943  -3.027   2.236  0.00  0.00    -0.467 OA
ENDBRANCH  24  27
ENDBRANCH  23  24
BRANCH  23  28
ATOM     28  C   UNL     1      -0.980  -1.105   3.497  0.00  0.00    +0.044 C 
BRANCH  28  29
ATOM     29  C   UNL     1      -1.796   0.187   3.434  0.00  0.00    +0.071 C 
BRANCH  29  30
ATOM     30  S   UNL     1      -1.437   1.200   4.895  0.00  0.00    -0.164 S 
ATOM     31  C   UNL     1      -2.469   2.675   4.671  0.00  0.00    +0.084 C 
ENDBRANCH  29  30
ENDBRANCH  28  29
ENDBRANCH  23  28
ENDBRANCH   1  23
TORSDOF 7
