REMARK  Name = ZINC09338702
REMARK  14 active torsions:
REMARK  status: ('A' for Active; 'I' for Inactive)
REMARK    1  A    between atoms: C_1  and  C_2
REMARK    2  A    between atoms: C_3  and  C_34
REMARK    3  A    between atoms: C_4  and  C_33
REMARK    4  A    between atoms: C_7  and  C_8
REMARK    5  A    between atoms: C_8  and  C_10
REMARK    6  A    between atoms: C_10  and  C_12
REMARK    7  A    between atoms: C_10  and  S_13
REMARK    8  A    between atoms: S_13  and  C_14
REMARK    9  A    between atoms: C_17  and  C_25
REMARK   10  A    between atoms: N_18  and  C_19
REMARK   11  A    between atoms: C_25  and  C_27
REMARK   12  A    between atoms: C_25  and  N_68
REMARK   13  A    between atoms: C_34  and  O_36
REMARK   14  A    between atoms: O_36  and  C_37
REMARK                            x       y       z     vdW  Elec       q    Type
REMARK                         _______ _______ _______ _____ _____    ______ ____
ROOT
ATOM      1  C   UNL     1       4.234   2.600   5.688  0.00  0.00    +0.197 A 
ATOM      2  N   UNL     1       3.221   2.605   6.524  0.00  0.00    -0.122 NA
ATOM      3  N   UNL     1       3.573   3.149   7.634  0.00  0.00    -0.135 NA
ATOM      4  C   UNL     1       4.817   3.531   7.573  0.00  0.00    +0.125 A 
ATOM      5  N   UNL     1       5.285   3.196   6.330  0.00  0.00    -0.275 N 
ENDROOT
BRANCH   5   6
ATOM      6  C   UNL     1       6.573   3.417   5.821  0.00  0.00    +0.050 A 
ATOM      7  C   UNL     1       7.665   2.778   6.391  0.00  0.00    +0.026 A 
ATOM      8  C   UNL     1       8.932   2.995   5.885  0.00  0.00    +0.002 A 
ATOM      9  C   UNL     1       9.114   3.854   4.818  0.00  0.00    +0.000 A 
ATOM     10  C   UNL     1       8.028   4.496   4.250  0.00  0.00    +0.002 A 
ATOM     11  C   UNL     1       6.759   4.280   4.749  0.00  0.00    +0.026 A 
ENDBRANCH   5   6
BRANCH   4  12
ATOM     12  C   UNL     1       5.596   4.216   8.666  0.00  0.00    -0.002 C 
ATOM     13  C   UNL     1       5.130   5.667   8.793  0.00  0.00    -0.005 C 
BRANCH  12  19
ATOM     14  C   UNL     1       6.142   4.139  11.023  0.00  0.00    -0.078 C 
ATOM     15  C   UNL     1       5.775   3.479  12.354  0.00  0.00    -0.019 C 
ATOM     16  C   UNL     1       6.084   1.981  12.279  0.00  0.00    -0.004 C 
ATOM     17  C   UNL     1       5.309   1.366  11.111  0.00  0.00    -0.019 C 
ATOM     18  C   UNL     1       5.690   2.087   9.816  0.00  0.00    -0.078 C 
ATOM     19  N   UNL     1       5.344   3.519   9.944  0.00  0.00    +0.386 N 
ATOM     20  H   UNL     1       4.348   3.601  10.178  0.00  0.00    -0.081 HD
ENDBRANCH  12  19
ENDBRANCH   4  12
BRANCH   1  21
ATOM     21  S   UNL     1       4.235   1.957   4.048  0.00  0.00    -0.074 S 
BRANCH  21  22
ATOM     22  C   UNL     1       2.530   1.359   3.943  0.00  0.00    +0.124 C 
ATOM     23  C   UNL     1       2.328   0.217   4.941  0.00  0.00    +0.028 C 
BRANCH  22  24
ATOM     24  C   UNL     1       2.257   0.860   2.547  0.00  0.00    +0.192 C 
ATOM     25  O   UNL     1       3.174   0.476   1.850  0.00  0.00    -0.289 OA
BRANCH  24  32
ATOM     26  C   UNL     1       1.444  -0.119  -0.289  0.00  0.00    +0.047 C 
ATOM     27  C   UNL     1       0.545   0.412   0.798  0.00  0.00    -0.008 A 
ATOM     28  C   UNL     1      -0.856   0.573   0.728  0.00  0.00    +0.083 A 
ATOM     29  C   UNL     1      -1.270   1.086   1.944  0.00  0.00    +0.028 A 
ATOM     30  N   UNL     1      -0.196   1.248   2.731  0.00  0.00    -0.355 N 
ATOM     31  H   UNL     1      -0.210   1.596   3.636  0.00  0.00    +0.166 HD
ATOM     32  C   UNL     1       0.933   0.841   2.049  0.00  0.00    +0.087 A 
ATOM     33  C   UNL     1      -2.692   1.415   2.321  0.00  0.00    +0.064 C 
BRANCH  28  34
ATOM     34  C   UNL     1      -1.716   0.252  -0.424  0.00  0.00    +0.341 C 
ATOM     35  O   UNL     1      -2.201  -0.858  -0.529  0.00  0.00    -0.245 OA
BRANCH  34  36
ATOM     36  O   UNL     1      -1.965   1.187  -1.361  0.00  0.00    -0.464 OA
ATOM     37  C   UNL     1      -2.821   0.800  -2.468  0.00  0.00    +0.280 C 
ENDBRANCH  34  36
ENDBRANCH  28  34
ENDBRANCH  24  32
ENDBRANCH  22  24
ENDBRANCH  21  22
ENDBRANCH   1  21
TORSDOF 9
