REMARK  Name = ZINC65006422
REMARK  11 active torsions:
REMARK  status: ('A' for Active; 'I' for Inactive)
REMARK    1  A    between atoms: C_1  and  C_2
REMARK    2  A    between atoms: C_5  and  C_8
REMARK    3  A    between atoms: C_10  and  C_35
REMARK    4  A    between atoms: C_11  and  C_13
REMARK    5  A    between atoms: C_18  and  C_21
REMARK    6  A    between atoms: C_21  and  C_22
REMARK    7  A    between atoms: N_24  and  C_25
REMARK    8  A    between atoms: C_25  and  C_26
REMARK    9  A    between atoms: C_26  and  N_27
REMARK   10  A    between atoms: N_27  and  C_28
REMARK   11  A    between atoms: N_27  and  C_29
REMARK                            x       y       z     vdW  Elec       q    Type
REMARK                         _______ _______ _______ _____ _____    ______ ____
ROOT
ATOM      1  C   UNL     1       0.113  -8.216   0.881  0.00  0.00    +0.255 C 
ATOM      2  O   UNL     1       0.204  -7.073   0.475  0.00  0.00    -0.269 OA
ATOM      3  N   UNL     1       0.014  -8.455   2.204  0.00  0.00    -0.297 N 
ATOM      4  C   UNL     1      -0.118  -7.345   3.157  0.00  0.00    +0.108 C 
ATOM      5  C   UNL     1       0.972  -7.480   4.226  0.00  0.00    +0.023 C 
ATOM      6  C   UNL     1       0.887  -8.869   4.862  0.00  0.00    +0.001 C 
ATOM      7  C   UNL     1       1.124  -9.938   3.793  0.00  0.00    +0.023 C 
ATOM      8  C   UNL     1       0.030  -9.831   2.719  0.00  0.00    +0.108 C 
ENDROOT
BRANCH   1  12
ATOM      9  C   UNL     1      -0.196 -11.542  -1.440  0.00  0.00    +0.109 A 
ATOM     10  N   UNL     1       0.586 -10.591  -1.924  0.00  0.00    -0.243 NA
ATOM     11  C   UNL     1       0.775  -9.470  -1.281  0.00  0.00    +0.058 A 
ATOM     12  C   UNL     1       0.111  -9.334  -0.068  0.00  0.00    +0.097 A 
ATOM     13  S   UNL     1      -0.750 -10.896   0.012  0.00  0.00    -0.062 S 
ATOM     14  C   UNL     1       1.665  -8.382  -1.825  0.00  0.00    +0.067 C 
BRANCH   9  19
ATOM     15  C   UNL     1      -1.427 -16.662  -3.760  0.00  0.00    +0.044 C 
ATOM     16  C   UNL     1      -1.104 -15.321  -3.152  0.00  0.00    -0.050 A 
ATOM     17  C   UNL     1      -0.251 -14.454  -3.811  0.00  0.00    +0.004 A 
ATOM     18  C   UNL     1       0.048 -13.225  -3.260  0.00  0.00    +0.011 A 
ATOM     19  C   UNL     1      -0.512 -12.857  -2.036  0.00  0.00    +0.007 A 
ATOM     20  C   UNL     1      -1.372 -13.737  -1.376  0.00  0.00    +0.011 A 
ATOM     21  C   UNL     1      -1.667 -14.961  -1.940  0.00  0.00    +0.004 A 
ENDBRANCH   9  19
ENDBRANCH   1  12
BRANCH   6  22
ATOM     22  C   UNL     1       1.952  -8.995   5.954  0.00  0.00    +0.099 C 
BRANCH  22  23
ATOM     23  C   UNL     1       1.790 -10.315   6.664  0.00  0.00    +0.213 C 
ATOM     24  O   UNL     1       0.909 -11.079   6.330  0.00  0.00    -0.276 OA
ATOM     25  N   UNL     1       2.623 -10.645   7.670  0.00  0.00    -0.317 N 
ATOM     26  H   UNL     1       3.327 -10.034   7.937  0.00  0.00    +0.149 HD
BRANCH  25  27
ATOM     27  C   UNL     1       2.466 -11.928   8.360  0.00  0.00    +0.085 C 
BRANCH  27  28
ATOM     28  C   UNL     1       3.530 -12.054   9.451  0.00  0.00    -0.060 C 
BRANCH  28  29
ATOM     29  N   UNL     1       3.373 -13.340  10.143  0.00  0.00    +0.381 N 
ATOM     30  C   UNL     1       3.645 -14.438   9.206  0.00  0.00    -0.096 C 
ATOM     31  H   UNL     1       2.429 -13.422  10.491  0.00  0.00    -0.082 HD
BRANCH  29  32
ATOM     32  C   UNL     1       4.316 -13.411  11.267  0.00  0.00    -0.069 C 
ATOM     33  C   UNL     1       4.151 -14.750  11.988  0.00  0.00    -0.015 C 
ATOM     34  C   UNL     1       5.134 -14.824  13.158  0.00  0.00    -0.002 C 
ATOM     35  C   UNL     1       4.850 -13.681  14.135  0.00  0.00    -0.000 C 
ATOM     36  C   UNL     1       5.014 -12.341  13.414  0.00  0.00    -0.002 C 
ATOM     37  C   UNL     1       4.032 -12.268  12.244  0.00  0.00    -0.015 C 
ENDBRANCH  29  32
ENDBRANCH  28  29
ENDBRANCH  27  28
ENDBRANCH  25  27
ENDBRANCH  22  23
ENDBRANCH   6  22
TORSDOF 8
