REMARK  Name = ZINC57530835
REMARK  14 active torsions:
REMARK  status: ('A' for Active; 'I' for Inactive)
REMARK    1  A    between atoms: C_1  and  C_2
REMARK    2  A    between atoms: C_2  and  C_3
REMARK    3  A    between atoms: C_3  and  C_4
REMARK    4  A    between atoms: C_3  and  C_5
REMARK    5  A    between atoms: C_3  and  N_6
REMARK    6  A    between atoms: C_7  and  C_11
REMARK    7  A    between atoms: C_11  and  C_13
REMARK    8  A    between atoms: C_11  and  N_27
REMARK    9  A    between atoms: C_18  and  C_26
REMARK   10  A    between atoms: C_19  and  C_25
REMARK   11  A    between atoms: N_27  and  C_28
REMARK   12  A    between atoms: N_27  and  C_35
REMARK   13  A    between atoms: C_28  and  C_29
REMARK   14  A    between atoms: C_35  and  C_36
REMARK                            x       y       z     vdW  Elec       q    Type
REMARK                         _______ _______ _______ _____ _____    ______ ____
ROOT
ATOM      1  C   UNL     1       3.292  -1.218   4.433  0.00  0.00    +0.163 C 
ENDROOT
BRANCH   1   2
ATOM      2  C   UNL     1       3.711  -1.126   5.878  0.00  0.00    +0.042 A 
ATOM      3  C   UNL     1       3.512   0.025   6.566  0.00  0.00    +0.021 A 
ATOM      4  C   UNL     1       3.931   0.082   7.968  0.00  0.00    -0.001 A 
ATOM      5  C   UNL     1       3.751   1.241   8.730  0.00  0.00    +0.010 A 
ATOM      6  C   UNL     1       4.152   1.262  10.036  0.00  0.00    +0.004 A 
ATOM      7  C   UNL     1       4.736   0.143  10.614  0.00  0.00    -0.046 A 
ATOM      8  C   UNL     1       4.923  -1.010   9.882  0.00  0.00    -0.024 A 
ATOM      9  C   UNL     1       4.522  -1.055   8.551  0.00  0.00    +0.052 A 
ATOM     10  N   UNL     1       4.696  -2.195   7.795  0.00  0.00    -0.322 N 
ATOM     11  H   UNL     1       5.104  -2.977   8.198  0.00  0.00    +0.169 HD
ATOM     12  C   UNL     1       4.304  -2.240   6.510  0.00  0.00    +0.254 A 
ATOM     13  O   UNL     1       4.469  -3.266   5.874  0.00  0.00    -0.268 OA
ATOM     14  C   UNL     1       5.560  -2.217  10.521  0.00  0.00    +0.046 C 
ATOM     15  C   UNL     1       5.171   0.190  12.056  0.00  0.00    +0.044 C 
ENDBRANCH   1   2
BRANCH   1  17
ATOM     16  N   UNL     1       0.869  -1.968   4.157  0.00  0.00    -0.222 N 
ATOM     17  C   UNL     1       2.183  -2.229   4.296  0.00  0.00    +0.174 A 
ATOM     18  N   UNL     1       2.309  -3.534   4.288  0.00  0.00    -0.111 NA
ATOM     19  N   UNL     1       1.136  -4.047   4.151  0.00  0.00    -0.023 NA
ATOM     20  N   UNL     1       0.263  -3.104   4.077  0.00  0.00    -0.043 NA
BRANCH  16  21
ATOM     21  C   UNL     1       0.246  -0.643   4.111  0.00  0.00    +0.062 C 
ATOM     22  C   UNL     1       0.766   0.123   2.894  0.00  0.00    +0.036 C 
ATOM     23  C   UNL     1       0.593   0.128   5.386  0.00  0.00    +0.036 C 
BRANCH  21  25
ATOM     24  C   UNL     1      -1.924   0.586   3.959  0.00  0.00    +0.006 C 
ATOM     25  C   UNL     1      -1.273  -0.798   4.006  0.00  0.00    +0.026 C 
ENDBRANCH  21  25
ENDBRANCH  16  21
ENDBRANCH   1  17
BRANCH   1  26
ATOM     26  N   UNL     1       4.439  -1.636   3.616  0.00  0.00    -0.277 NA
BRANCH  26  27
ATOM     27  C   UNL     1       4.122  -1.555   2.184  0.00  0.00    +0.121 C 
BRANCH  27  28
ATOM     28  C   UNL     1       3.428  -2.820   1.750  0.00  0.00    -0.033 A 
ATOM     29  C   UNL     1       4.125  -4.013   1.715  0.00  0.00    +0.005 A 
ATOM     30  C   UNL     1       3.489  -5.174   1.317  0.00  0.00    +0.000 A 
ATOM     31  C   UNL     1       2.155  -5.142   0.956  0.00  0.00    +0.000 A 
ATOM     32  C   UNL     1       1.458  -3.949   0.992  0.00  0.00    +0.000 A 
ATOM     33  C   UNL     1       2.093  -2.789   1.393  0.00  0.00    +0.005 A 
ENDBRANCH  27  28
ENDBRANCH  26  27
BRANCH  26  34
ATOM     34  C   UNL     1       5.631  -0.840   3.937  0.00  0.00    +0.160 C 
BRANCH  34  35
ATOM     35  C   UNL     1       6.855  -1.525   3.387  0.00  0.00    +0.119 A 
ATOM     36  C   UNL     1       7.448  -1.253   2.210  0.00  0.00    +0.046 A 
ATOM     37  C   UNL     1       8.553  -2.126   2.096  0.00  0.00    +0.041 A 
ATOM     38  C   UNL     1       8.571  -2.880   3.210  0.00  0.00    +0.195 A 
ATOM     39  O   UNL     1       7.543  -2.508   3.991  0.00  0.00    -0.467 OA
ENDBRANCH  34  35
ENDBRANCH  26  34
ENDBRANCH   1  26
TORSDOF 9
