REMARK  Name = ZINC35743815
REMARK  16 active torsions:
REMARK  status: ('A' for Active; 'I' for Inactive)
REMARK    1  A    between atoms: C_1  and  C_2
REMARK    2  A    between atoms: C_2  and  C_4
REMARK    3  A    between atoms: C_2  and  N_19
REMARK    4  A    between atoms: N_14  and  C_15
REMARK    5  A    between atoms: C_15  and  C_16
REMARK    6  A    between atoms: C_16  and  O_17
REMARK    7  A    between atoms: O_17  and  C_18
REMARK    8  A    between atoms: N_19  and  C_20
REMARK    9  A    between atoms: C_20  and  C_21
REMARK   10  A    between atoms: C_21  and  C_22
REMARK   11  A    between atoms: C_22  and  C_23
REMARK   12  A    between atoms: C_23  and  C_24
REMARK   13  A    between atoms: C_24  and  C_25
REMARK   14  A    between atoms: C_25  and  N_26
REMARK   15  A    between atoms: C_27  and  C_29
REMARK   16  A    between atoms: C_32  and  C_35
REMARK                            x       y       z     vdW  Elec       q    Type
REMARK                         _______ _______ _______ _____ _____    ______ ____
ROOT
ATOM      1  N   UNL     1      -0.685  -2.386  -0.307  0.00  0.00    -0.288 N 
ATOM      2  C   UNL     1      -0.764  -2.326  -1.651  0.00  0.00    +0.247 C 
ATOM      3  O   UNL     1      -0.158  -3.131  -2.332  0.00  0.00    -0.270 OA
ENDROOT
BRANCH   2   4
ATOM      4  C   UNL     1      -1.587  -1.282  -2.297  0.00  0.00    +0.037 A 
ATOM      5  C   UNL     1      -1.803  -0.062  -1.654  0.00  0.00    +0.013 A 
ATOM      6  C   UNL     1      -2.572   0.909  -2.263  0.00  0.00    +0.013 A 
ATOM      7  C   UNL     1      -3.128   0.675  -3.508  0.00  0.00    +0.055 A 
ATOM      8  C   UNL     1      -2.918  -0.533  -4.151  0.00  0.00    +0.013 A 
ATOM      9  C   UNL     1      -2.146  -1.509  -3.556  0.00  0.00    +0.013 A 
BRANCH   7  10
ATOM     10  C   UNL     1      -3.967   1.739  -4.167  0.00  0.00    +0.417 C 
ATOM     11  F   UNL     1      -3.147   2.563  -4.946  0.00  0.00    -0.166 F 
ATOM     12  F   UNL     1      -4.930   1.135  -4.982  0.00  0.00    -0.166 F 
ATOM     13  F   UNL     1      -4.601   2.507  -3.185  0.00  0.00    -0.166 F 
ENDBRANCH   7  10
ENDBRANCH   2   4
BRANCH   1  15
ATOM     14  C   UNL     1       0.044  -0.071   0.001  0.00  0.00    +0.036 C 
ATOM     15  C   UNL     1      -0.892  -1.176   0.494  0.00  0.00    +0.139 C 
BRANCH  15  16
ATOM     16  C   UNL     1      -2.322  -0.721   0.355  0.00  0.00    +0.133 A 
ATOM     17  N   UNL     1      -3.131  -1.441  -0.363  0.00  0.00    -0.232 NA
ATOM     18  C   UNL     1      -4.431  -1.094  -0.532  0.00  0.00    +0.078 A 
ATOM     19  C   UNL     1      -5.301  -1.867  -1.304  0.00  0.00    +0.028 A 
ATOM     20  C   UNL     1      -6.613  -1.477  -1.449  0.00  0.00    +0.002 A 
ATOM     21  C   UNL     1      -7.085  -0.323  -0.837  0.00  0.00    +0.001 A 
ATOM     22  C   UNL     1      -6.246   0.456  -0.070  0.00  0.00    +0.015 A 
ATOM     23  C   UNL     1      -4.914   0.080   0.089  0.00  0.00    +0.065 A 
ATOM     24  C   UNL     1      -3.972   0.871   0.895  0.00  0.00    +0.262 A 
ATOM     25  O   UNL     1      -4.324   1.892   1.456  0.00  0.00    -0.267 OA
ATOM     26  N   UNL     1      -2.701   0.417   0.992  0.00  0.00    -0.292 N 
BRANCH  26  27
ATOM     27  C   UNL     1      -1.723   1.164   1.788  0.00  0.00    +0.154 C 
BRANCH  27  28
ATOM     28  C   UNL     1      -1.211   2.357   0.978  0.00  0.00    +0.181 C 
BRANCH  28  29
ATOM     29  O   UNL     1      -2.300   3.235   0.685  0.00  0.00    -0.381 OA
ATOM     30  C   UNL     1      -1.928   4.389  -0.072  0.00  0.00    +0.194 C 
ENDBRANCH  28  29
ENDBRANCH  27  28
ENDBRANCH  26  27
ENDBRANCH  15  16
ENDBRANCH   1  15
BRANCH   1  31
ATOM     31  C   UNL     1      -0.392  -3.660   0.354  0.00  0.00    +0.109 C 
BRANCH  31  32
ATOM     32  C   UNL     1      -1.701  -4.392   0.654  0.00  0.00    +0.019 C 
BRANCH  32  33
ATOM     33  C   UNL     1      -1.395  -5.723   1.344  0.00  0.00    +0.001 C 
BRANCH  33  34
ATOM     34  C   UNL     1      -2.704  -6.455   1.644  0.00  0.00    -0.002 C 
BRANCH  34  35
ATOM     35  C   UNL     1      -2.398  -7.786   2.334  0.00  0.00    -0.020 C 
BRANCH  35  36
ATOM     36  C   UNL     1      -3.707  -8.518   2.634  0.00  0.00    -0.086 C 
BRANCH  36  37
ATOM     37  N   UNL     1      -3.413  -9.796   3.296  0.00  0.00    +0.378 N 
ATOM     38  H   UNL     1      -4.277 -10.279   3.494  0.00  0.00    -0.090 HD
ATOM     39  H   UNL     1      -2.841 -10.365   2.691  0.00  0.00    -0.090 HD
ATOM     40  H   UNL     1      -2.920  -9.622   4.159  0.00  0.00    -0.090 HD
ENDBRANCH  36  37
ENDBRANCH  35  36
ENDBRANCH  34  35
ENDBRANCH  33  34
ENDBRANCH  32  33
ENDBRANCH  31  32
ENDBRANCH   1  31
TORSDOF 14
