REMARK  Name = ZINC13128808
REMARK  13 active torsions:
REMARK  status: ('A' for Active; 'I' for Inactive)
REMARK    1  A    between atoms: C_1  and  C_2
REMARK    2  A    between atoms: C_3  and  C_35
REMARK    3  A    between atoms: C_4  and  C_34
REMARK    4  A    between atoms: C_7  and  C_8
REMARK    5  A    between atoms: C_8  and  C_10
REMARK    6  A    between atoms: C_10  and  N_11
REMARK    7  A    between atoms: C_14  and  C_18
REMARK    8  A    between atoms: C_14  and  C_26
REMARK    9  A    between atoms: C_21  and  O_24
REMARK   10  A    between atoms: O_24  and  C_25
REMARK   11  A    between atoms: C_29  and  O_32
REMARK   12  A    between atoms: O_32  and  C_33
REMARK   13  A    between atoms: C_35  and  C_37
REMARK                            x       y       z     vdW  Elec       q    Type
REMARK                         _______ _______ _______ _____ _____    ______ ____
ROOT
ATOM      1  N   UNL     1      -0.407  -2.631  -0.424  0.00  0.00    -0.216 N 
ATOM      2  C   UNL     1      -0.652  -3.470  -1.449  0.00  0.00    +0.256 C 
ATOM      3  O   UNL     1      -1.089  -3.183  -2.543  0.00  0.00    -0.272 OA
ATOM      4  C   UNL     1      -0.268  -4.849  -0.950  0.00  0.00    +0.164 C 
ATOM      5  N   UNL     1       0.192  -4.603   0.427  0.00  0.00    -0.278 N 
ATOM      6  C   UNL     1       0.078  -3.280   0.640  0.00  0.00    +0.310 C 
ATOM      7  O   UNL     1       0.380  -2.735   1.684  0.00  0.00    -0.252 OA
ATOM      8  H   UNL     1       0.518  -5.265   1.057  0.00  0.00    +0.152 HD
ENDROOT
BRANCH   4   9
ATOM      9  C   UNL     1      -1.463  -5.767  -0.954  0.00  0.00    -0.011 A 
ATOM     10  C   UNL     1      -1.711  -6.582   0.135  0.00  0.00    +0.010 A 
ATOM     11  C   UNL     1      -2.809  -7.420   0.137  0.00  0.00    +0.046 A 
ATOM     12  C   UNL     1      -3.658  -7.451  -0.960  0.00  0.00    +0.120 A 
ATOM     13  C   UNL     1      -3.404  -6.637  -2.054  0.00  0.00    +0.046 A 
ATOM     14  C   UNL     1      -2.308  -5.796  -2.048  0.00  0.00    +0.010 A 
BRANCH  12  15
ATOM     15  O   UNL     1      -4.735  -8.280  -0.964  0.00  0.00    -0.495 OA
ATOM     16  C   UNL     1      -4.935  -9.090   0.196  0.00  0.00    +0.277 C 
ENDBRANCH  12  15
ENDBRANCH   4   9
BRANCH   4  17
ATOM     17  C   UNL     1       0.846  -5.424  -1.787  0.00  0.00    -0.011 A 
ATOM     18  C   UNL     1       0.741  -5.432  -3.165  0.00  0.00    +0.010 A 
ATOM     19  C   UNL     1       1.763  -5.953  -3.934  0.00  0.00    +0.046 A 
ATOM     20  C   UNL     1       2.891  -6.480  -3.322  0.00  0.00    +0.120 A 
ATOM     21  C   UNL     1       2.991  -6.477  -1.938  0.00  0.00    +0.046 A 
ATOM     22  C   UNL     1       1.969  -5.949  -1.174  0.00  0.00    +0.010 A 
BRANCH  20  23
ATOM     23  O   UNL     1       3.895  -7.000  -4.076  0.00  0.00    -0.495 OA
ATOM     24  C   UNL     1       3.723  -6.970  -5.495  0.00  0.00    +0.277 C 
ENDBRANCH  20  23
ENDBRANCH   4  17
BRANCH   1  25
ATOM     25  C   UNL     1      -0.638  -1.185  -0.472  0.00  0.00    +0.199 C 
BRANCH  25  26
ATOM     26  C   UNL     1      -2.041  -0.884  -0.011  0.00  0.00    +0.197 C 
ATOM     27  O   UNL     1      -2.777  -1.790   0.324  0.00  0.00    -0.289 OA
BRANCH  26  34
ATOM     28  C   UNL     1      -4.887  -0.017   0.886  0.00  0.00    +0.047 C 
ATOM     29  C   UNL     1      -3.756   0.865   0.424  0.00  0.00    -0.012 A 
ATOM     30  C   UNL     1      -3.777   2.274   0.313  0.00  0.00    +0.041 A 
ATOM     31  C   UNL     1      -2.530   2.665  -0.155  0.00  0.00    +0.024 A 
ATOM     32  N   UNL     1      -1.773   1.573  -0.321  0.00  0.00    -0.355 N 
ATOM     33  H   UNL     1      -0.857   1.568  -0.640  0.00  0.00    +0.166 HD
ATOM     34  C   UNL     1      -2.502   0.454   0.031  0.00  0.00    +0.088 A 
ATOM     35  C   UNL     1      -2.100   4.083  -0.430  0.00  0.00    +0.064 C 
BRANCH  30  36
ATOM     36  C   UNL     1      -4.905   3.156   0.627  0.00  0.00    +0.162 C 
ATOM     37  O   UNL     1      -4.993   3.661   1.727  0.00  0.00    -0.292 OA
ATOM     38  C   UNL     1      -5.957   3.436  -0.416  0.00  0.00    +0.091 C 
ENDBRANCH  30  36
ENDBRANCH  26  34
ENDBRANCH  25  26
ENDBRANCH   1  25
TORSDOF 8
