REMARK  Name = ZINC62766898
REMARK  4 active torsions:
REMARK  status: ('A' for Active; 'I' for Inactive)
REMARK    1  A    between atoms: C_2  and  N_21
REMARK    2  A    between atoms: C_4  and  S_9
REMARK    3  A    between atoms: S_9  and  C_10
REMARK    4  A    between atoms: C_16  and  C_18
REMARK                            x       y       z     vdW  Elec       q    Type
REMARK                         _______ _______ _______ _____ _____    ______ ____
ROOT
ATOM      1  C   UNL     1      -0.017   1.394   0.010  0.00  0.00    +0.113 A 
ATOM      2  C   UNL     1       1.191   2.078   0.002  0.00  0.00    +0.124 A 
ATOM      3  N   UNL     1       2.341   1.395  -0.013  0.00  0.00    -0.209 NA
ATOM      4  C   UNL     1       2.350   0.077  -0.020  0.00  0.00    +0.171 A 
ATOM      5  N   UNL     1       1.192  -0.640  -0.013  0.00  0.00    -0.302 N 
ATOM      6  H   UNL     1       1.223  -1.609  -0.019  0.00  0.00    +0.171 HD
ATOM      7  C   UNL     1       0.002  -0.004   0.002  0.00  0.00    +0.254 A 
ATOM      8  O   UNL     1      -1.041  -0.639   0.009  0.00  0.00    -0.268 OA
ENDROOT
BRANCH   2   9
ATOM      9  N   UNL     1       1.205   3.458   0.009  0.00  0.00    -0.343 N 
ATOM     10  H   UNL     1       0.370   3.952   0.019  0.00  0.00    +0.144 HD
ATOM     11  H   UNL     1       2.050   3.935   0.003  0.00  0.00    +0.144 HD
ENDBRANCH   2   9
BRANCH   4  12
ATOM     12  S   UNL     1       3.893  -0.774  -0.039  0.00  0.00    -0.084 S 
BRANCH  12  13
ATOM     13  C   UNL     1       5.128   0.555  -0.044  0.00  0.00    +0.068 C 
ATOM     14  C   UNL     1       5.016   1.350  -1.346  0.00  0.00    +0.015 C 
ATOM     15  C   UNL     1       6.058   2.471  -1.350  0.00  0.00    +0.001 C 
ATOM     16  C   UNL     1       7.458   1.866  -1.241  0.00  0.00    +0.001 C 
ATOM     17  C   UNL     1       7.570   1.070   0.061  0.00  0.00    +0.016 C 
ATOM     18  C   UNL     1       6.529  -0.051   0.065  0.00  0.00    +0.115 C 
BRANCH  18  19
ATOM     19  C   UNL     1       6.773  -0.967  -1.106  0.00  0.00    +0.360 C 
ATOM     20  O   UNL     1       7.903  -1.120  -1.535  0.00  0.00    -0.246 OA
ATOM     21  O   UNL     1       5.839  -1.556  -1.624  0.00  0.00    -0.246 OA
ENDBRANCH  18  19
ENDBRANCH  12  13
ENDBRANCH   4  12
TORSDOF 4
