REMARK  Name = ZINC60350331
REMARK  8 active torsions:
REMARK  status: ('A' for Active; 'I' for Inactive)
REMARK    1  A    between atoms: C_6  and  C_33
REMARK    2  A    between atoms: C_7  and  N_16
REMARK    3  A    between atoms: N_8  and  C_9
REMARK    4  A    between atoms: C_9  and  C_10
REMARK    5  A    between atoms: C_17  and  C_19
REMARK    6  A    between atoms: C_19  and  N_20
REMARK    7  A    between atoms: C_23  and  C_27
REMARK    8  A    between atoms: C_23  and  C_30
REMARK                            x       y       z     vdW  Elec       q    Type
REMARK                         _______ _______ _______ _____ _____    ______ ____
ROOT
ATOM      1  N   UNL     1       2.700  -3.167   3.644  0.00  0.00    -0.269 N 
ATOM      2  C   UNL     1       2.445  -4.413   3.201  0.00  0.00    +0.236 C 
ATOM      3  O   UNL     1       1.675  -4.584   2.279  0.00  0.00    -0.274 OA
ATOM      4  H   UNL     1       3.252  -3.035   4.431  0.00  0.00    +0.156 HD
ENDROOT
BRANCH   1  11
ATOM      5  C   UNL     1      -0.103   1.521   1.080  0.00  0.00    +0.005 C 
ATOM      6  C   UNL     1       1.283   1.721   0.461  0.00  0.00    +0.006 C 
ATOM      7  C   UNL     1       2.360   1.306   1.471  0.00  0.00    +0.054 C 
ATOM      8  C   UNL     1       2.017  -0.066   2.000  0.00  0.00    +0.025 A 
ATOM      9  C   UNL     1       0.798  -0.629   1.882  0.00  0.00    -0.007 A 
ATOM     10  C   UNL     1       0.870  -1.945   2.512  0.00  0.00    +0.095 A 
ATOM     11  C   UNL     1       2.175  -2.071   2.975  0.00  0.00    +0.123 A 
ATOM     12  N   UNL     1       2.845  -0.932   2.657  0.00  0.00    -0.329 N 
ATOM     13  C   UNL     1      -0.387   0.020   1.217  0.00  0.00    +0.038 C 
BRANCH  10  14
ATOM     14  C   UNL     1      -0.185  -2.906   2.628  0.00  0.00    +0.103 C 
ATOM     15  N   UNL     1      -1.022  -3.669   2.720  0.00  0.00    -0.191 NA
ENDBRANCH  10  14
BRANCH  12  16
ATOM     16  C   UNL     1       4.251  -0.670   2.972  0.00  0.00    +0.154 C 
BRANCH  16  17
ATOM     17  C   UNL     1       4.361  -0.122   4.396  0.00  0.00    +0.138 C 
ATOM     18  C   UNL     1       5.843   0.149   4.756  0.00  0.00    +0.035 C 
ATOM     19  C   UNL     1       5.687   1.233   5.857  0.00  0.00    +0.031 C 
ATOM     20  C   UNL     1       4.445   2.013   5.375  0.00  0.00    +0.160 C 
ATOM     21  O   UNL     1       3.711   1.156   4.491  0.00  0.00    -0.375 OA
ENDBRANCH  16  17
ENDBRANCH  12  16
ENDBRANCH   1  11
BRANCH   2  22
ATOM     22  C   UNL     1       3.116  -5.596   3.850  0.00  0.00    +0.214 C 
BRANCH  22  23
ATOM     23  N   UNL     1       2.771  -6.817   3.117  0.00  0.00    -0.215 N 
ATOM     24  C   UNL     1       1.656  -7.541   3.336  0.00  0.00    +0.247 C 
ATOM     25  O   UNL     1       0.783  -7.315   4.145  0.00  0.00    -0.273 OA
ATOM     26  C   UNL     1       1.721  -8.698   2.358  0.00  0.00    +0.118 C 
ATOM     27  N   UNL     1       2.983  -8.469   1.634  0.00  0.00    -0.284 N 
ATOM     28  C   UNL     1       3.521  -7.347   2.144  0.00  0.00    +0.310 C 
ATOM     29  O   UNL     1       4.573  -6.869   1.765  0.00  0.00    -0.252 OA
ATOM     30  H   UNL     1       3.353  -9.020   0.926  0.00  0.00    +0.151 HD
BRANCH  26  31
ATOM     31  C   UNL     1       0.533  -8.656   1.395  0.00  0.00    +0.022 C 
ATOM     32  C   UNL     1       0.821  -8.870  -0.092  0.00  0.00    +0.006 C 
ATOM     33  C   UNL     1       0.453  -7.477   0.423  0.00  0.00    +0.006 C 
ENDBRANCH  26  31
BRANCH  26  34
ATOM     34  C   UNL     1       1.763 -10.033   3.105  0.00  0.00    +0.022 C 
ATOM     35  C   UNL     1       1.400 -10.022   4.592  0.00  0.00    +0.006 C 
ATOM     36  C   UNL     1       2.855 -10.217   4.160  0.00  0.00    +0.006 C 
ENDBRANCH  26  34
ENDBRANCH  22  23
ENDBRANCH   2  22
TORSDOF 8
