REMARK  Name = ZINC16576824
REMARK  7 active torsions:
REMARK  status: ('A' for Active; 'I' for Inactive)
REMARK    1  A    between atoms: C_1  and  C_2
REMARK    2  A    between atoms: C_5  and  C_22
REMARK    3  A    between atoms: C_7  and  N_8
REMARK    4  A    between atoms: C_9  and  C_11
REMARK    5  A    between atoms: C_11  and  C_13
REMARK    6  A    between atoms: C_11  and  N_14
REMARK    7  A    between atoms: C_15  and  C_17
REMARK                            x       y       z     vdW  Elec       q    Type
REMARK                         _______ _______ _______ _____ _____    ______ ____
ROOT
ATOM      1  C   UNL     1       6.809   8.627   1.090  0.00  0.00    +0.045 C 
ATOM      2  C   UNL     1       7.450   7.340   1.539  0.00  0.00    -0.029 A 
ATOM      3  C   UNL     1       8.682   7.366   2.166  0.00  0.00    +0.006 A 
ATOM      4  C   UNL     1       9.275   6.190   2.581  0.00  0.00    +0.010 A 
ATOM      5  C   UNL     1       8.632   4.971   2.367  0.00  0.00    +0.004 A 
ATOM      6  C   UNL     1       7.388   4.945   1.740  0.00  0.00    +0.033 A 
ATOM      7  C   UNL     1       6.802   6.130   1.322  0.00  0.00    +0.037 A 
ENDROOT
BRANCH   5   8
ATOM      8  C   UNL     1       9.267   3.708   2.812  0.00  0.00    +0.090 A 
ATOM      9  C   UNL     1      10.469   3.749   3.542  0.00  0.00    +0.139 A 
ATOM     10  N   UNL     1      11.044   2.641   3.944  0.00  0.00    -0.251 NA
ATOM     11  C   UNL     1      10.486   1.459   3.658  0.00  0.00    +0.089 A 
ATOM     12  C   UNL     1      11.082   0.257   4.077  0.00  0.00    +0.030 A 
ATOM     13  C   UNL     1      10.493  -0.931   3.773  0.00  0.00    +0.002 A 
ATOM     14  C   UNL     1       9.302  -0.977   3.049  0.00  0.00    +0.002 A 
ATOM     15  C   UNL     1       8.696   0.165   2.626  0.00  0.00    +0.030 A 
ATOM     16  C   UNL     1       9.275   1.412   2.921  0.00  0.00    +0.090 A 
ATOM     17  N   UNL     1       8.698   2.550   2.524  0.00  0.00    -0.244 NA
ENDBRANCH   5   8
BRANCH   7  18
ATOM     18  N   UNL     1       5.556   6.108   0.686  0.00  0.00    -0.284 N 
ATOM     19  C   UNL     1       5.150   4.999   0.036  0.00  0.00    +0.237 C 
ATOM     20  O   UNL     1       5.904   4.057  -0.084  0.00  0.00    -0.273 OA
ATOM     21  H   UNL     1       4.984   6.891   0.714  0.00  0.00    +0.155 HD
BRANCH  19  22
ATOM     22  C   UNL     1       3.760   4.931  -0.541  0.00  0.00    +0.156 C 
ATOM     23  C   UNL     1       3.579   6.049  -1.569  0.00  0.00    +0.038 C 
BRANCH  22  24
ATOM     24  N   UNL     1       3.565   3.633  -1.192  0.00  0.00    -0.298 N 
ATOM     25  C   UNL     1       2.323   3.128  -1.330  0.00  0.00    +0.280 C 
ATOM     26  O   UNL     1       1.363   3.751  -0.915  0.00  0.00    -0.267 OA
ATOM     27  H   UNL     1       4.330   3.136  -1.523  0.00  0.00    +0.150 HD
BRANCH  25  28
ATOM     28  C   UNL     1       2.127   1.829  -1.981  0.00  0.00    +0.189 A 
ATOM     29  C   UNL     1       0.930   1.205  -2.186  0.00  0.00    +0.054 A 
ATOM     30  C   UNL     1       1.211  -0.005  -2.838  0.00  0.00    +0.042 A 
ATOM     31  C   UNL     1       2.551  -0.067  -3.001  0.00  0.00    +0.196 A 
ATOM     32  O   UNL     1       3.100   1.040  -2.484  0.00  0.00    -0.458 OA
ENDBRANCH  25  28
ENDBRANCH  22  24
ENDBRANCH  19  22
ENDBRANCH   7  18
TORSDOF 5
