REMARK  Name = ZINC40578801
REMARK  6 active torsions:
REMARK  status: ('A' for Active; 'I' for Inactive)
REMARK    1  A    between atoms: C_1  and  C_2
REMARK    2  A    between atoms: C_4  and  C_20
REMARK    3  A    between atoms: C_7  and  N_8
REMARK    4  A    between atoms: N_11  and  C_12
REMARK    5  A    between atoms: C_13  and  C_19
REMARK    6  A    between atoms: C_17  and  C_18
REMARK                            x       y       z     vdW  Elec       q    Type
REMARK                         _______ _______ _______ _____ _____    ______ ____
ROOT
ATOM      1  N   UNL     1       0.359   0.249   2.520  0.00  0.00    -0.269 N 
ATOM      2  C   UNL     1       0.332  -0.486   3.649  0.00  0.00    +0.308 C 
ATOM      3  O   UNL     1       0.843  -1.589   3.669  0.00  0.00    -0.252 OA
ATOM      4  N   UNL     1      -0.262   0.001   4.757  0.00  0.00    -0.266 N 
ATOM      5  H   UNL     1       0.010   1.155   2.522  0.00  0.00    +0.156 HD
ATOM      6  H   UNL     1      -0.743   0.842   4.719  0.00  0.00    +0.156 HD
ENDROOT
BRANCH   4   7
ATOM      7  C   UNL     1      -0.184  -0.712   5.969  0.00  0.00    +0.078 A 
ATOM      8  C   UNL     1       0.117  -0.190   7.185  0.00  0.00    +0.054 A 
ATOM      9  N   UNL     1       0.087  -1.206   8.086  0.00  0.00    -0.280 N 
ATOM     10  H   UNL     1       0.262  -1.131   9.037  0.00  0.00    +0.189 HD
ATOM     11  N   UNL     1      -0.241  -2.381   7.399  0.00  0.00    -0.177 NA
ATOM     12  C   UNL     1      -0.409  -2.086   6.135  0.00  0.00    +0.081 A 
ATOM     13  C   UNL     1      -0.776  -3.058   5.043  0.00  0.00    +0.069 C 
ATOM     14  C   UNL     1       0.428   1.255   7.482  0.00  0.00    +0.067 C 
ENDBRANCH   4   7
BRANCH   1  21
ATOM     15  C   UNL     1      -0.808   1.027   0.048  0.00  0.00    +0.046 C 
ATOM     16  C   UNL     1       0.347   0.063   0.117  0.00  0.00    -0.028 A 
ATOM     17  C   UNL     1       0.873  -0.465  -1.041  0.00  0.00    +0.020 A 
ATOM     18  C   UNL     1       1.946  -1.360  -0.972  0.00  0.00    +0.064 A 
ATOM     19  C   UNL     1       2.479  -1.713   0.273  0.00  0.00    +0.017 A 
ATOM     20  C   UNL     1       1.952  -1.185   1.417  0.00  0.00    +0.024 A 
ATOM     21  C   UNL     1       0.888  -0.290   1.350  0.00  0.00    +0.038 A 
BRANCH  18  22
ATOM     22  C   UNL     1       2.513  -1.929  -2.205  0.00  0.00    +0.387 C 
ATOM     23  O   UNL     1       2.046  -1.620  -3.293  0.00  0.00    -0.241 OA
ATOM     24  O   UNL     1       3.452  -2.712  -2.143  0.00  0.00    -0.241 OA
ENDBRANCH  18  22
ENDBRANCH   1  21
TORSDOF 3
