REMARK  Name = ZINC04153187
REMARK  6 active torsions:
REMARK  status: ('A' for Active; 'I' for Inactive)
REMARK    1  A    between atoms: C_1  and  C_2
REMARK    2  A    between atoms: C_2  and  C_3
REMARK    3  A    between atoms: C_2  and  C_4
REMARK    4  A    between atoms: C_2  and  C_5
REMARK    5  A    between atoms: C_14  and  O_24
REMARK    6  A    between atoms: C_16  and  C_19
REMARK                            x       y       z     vdW  Elec       q    Type
REMARK                         _______ _______ _______ _____ _____    ______ ____
ROOT
ATOM      1  C   UNL     1       0.718  -0.497  -1.257  0.00  0.00    -0.000 C 
ATOM      2  C   UNL     1       0.746  -2.029  -1.264  0.00  0.00    +0.009 C 
ATOM      3  C   UNL     1       1.234  -2.534  -2.624  0.00  0.00    +0.037 C 
ATOM      4  C   UNL     1       2.549  -1.844  -2.958  0.00  0.00    -0.023 A 
ATOM      5  C   UNL     1       2.922  -0.707  -2.327  0.00  0.00    -0.004 A 
ATOM      6  S   UNL     1       4.491  -0.289  -3.038  0.00  0.00    -0.078 S 
ATOM      7  C   UNL     1       4.651  -1.547  -4.106  0.00  0.00    +0.080 A 
ATOM      8  C   UNL     1       3.496  -2.321  -3.949  0.00  0.00    +0.068 A 
ATOM      9  C   UNL     1       3.358  -3.527  -4.806  0.00  0.00    +0.220 C 
ATOM     10  N   UNL     1       4.413  -3.930  -5.460  0.00  0.00    -0.220 NA
ATOM     11  C   UNL     1       5.731  -3.316  -5.360  0.00  0.00    +0.260 C 
ATOM     12  N   UNL     1       5.640  -1.889  -5.001  0.00  0.00    -0.311 N 
ATOM     13  C   UNL     1       2.161   0.028  -1.267  0.00  0.00    +0.046 C 
ATOM     14  H   UNL     1       6.244  -1.228  -5.374  0.00  0.00    +0.149 HD
ENDROOT
BRANCH  11  15
ATOM     15  C   UNL     1       6.530  -4.037  -4.305  0.00  0.00    +0.147 A 
ATOM     16  C   UNL     1       6.410  -5.336  -3.978  0.00  0.00    +0.048 A 
ATOM     17  C   UNL     1       7.345  -5.588  -2.948  0.00  0.00    +0.041 A 
ATOM     18  C   UNL     1       7.982  -4.427  -2.708  0.00  0.00    +0.195 A 
ATOM     19  O   UNL     1       7.488  -3.493  -3.537  0.00  0.00    -0.464 OA
ENDBRANCH  11  15
BRANCH   1  21
ATOM     20  C   UNL     1      -0.019   1.526   0.010  0.00  0.00    +0.011 C 
ATOM     21  C   UNL     1       0.002  -0.004   0.002  0.00  0.00    -0.035 C 
ATOM     22  C   UNL     1       0.742  -0.511   1.242  0.00  0.00    +0.011 C 
ATOM     23  C   UNL     1      -1.433  -0.534   0.013  0.00  0.00    +0.011 C 
ENDBRANCH   1  21
BRANCH   9  24
ATOM     24  O   UNL     1       2.180  -4.186  -4.903  0.00  0.00    -0.492 OA
ATOM     25  H   UNL     1       2.207  -4.956  -5.488  0.00  0.00    +0.294 HD
ENDBRANCH   9  24
TORSDOF 3
