REMARK  Name = ZINC64967951
REMARK  7 active torsions:
REMARK  status: ('A' for Active; 'I' for Inactive)
REMARK    1  A    between atoms: C_1  and  C_2
REMARK    2  A    between atoms: C_8  and  C_11
REMARK    3  A    between atoms: C_11  and  C_12
REMARK    4  A    between atoms: C_12  and  N_13
REMARK    5  A    between atoms: C_14  and  C_16
REMARK    6  A    between atoms: C_23  and  C_26
REMARK    7  A    between atoms: C_26  and  C_27
REMARK                            x       y       z     vdW  Elec       q    Type
REMARK                         _______ _______ _______ _____ _____    ______ ____
ROOT
ATOM      1  N   UNL     1      -1.377  -2.600   5.613  0.00  0.00    -0.311 N 
ATOM      2  C   UNL     1      -2.537  -2.599   6.299  0.00  0.00    +0.244 C 
ATOM      3  O   UNL     1      -3.586  -2.808   5.720  0.00  0.00    -0.270 OA
ATOM      4  H   UNL     1      -0.540  -2.433   6.075  0.00  0.00    +0.149 HD
ENDROOT
BRANCH   2   5
ATOM      5  C   UNL     1      -2.535  -2.344   7.752  0.00  0.00    +0.040 A 
ATOM      6  C   UNL     1      -1.331  -2.097   8.417  0.00  0.00    +0.015 A 
ATOM      7  C   UNL     1      -1.332  -1.859   9.773  0.00  0.00    +0.027 A 
ATOM      8  C   UNL     1      -2.529  -1.863  10.484  0.00  0.00    +0.072 A 
ATOM      9  C   UNL     1      -3.734  -2.107   9.828  0.00  0.00    +0.145 A 
ATOM     10  C   UNL     1      -3.736  -2.342   8.464  0.00  0.00    +0.060 A 
ATOM     11  O   UNL     1      -4.766  -2.062  10.714  0.00  0.00    -0.469 OA
ATOM     12  C   UNL     1      -4.238  -1.777  12.012  0.00  0.00    +0.265 C 
ATOM     13  N   UNL     1      -2.785  -1.651  11.840  0.00  0.00    -0.306 N 
ATOM     14  H   UNL     1      -2.132  -1.459  12.532  0.00  0.00    +0.150 HD
BRANCH  12  15
ATOM     15  C   UNL     1      -4.559  -2.922  12.975  0.00  0.00    +0.100 C 
BRANCH  15  16
ATOM     16  C   UNL     1      -6.048  -2.988  13.198  0.00  0.00    -0.042 A 
ATOM     17  C   UNL     1      -6.625  -2.264  14.225  0.00  0.00    +0.004 A 
ATOM     18  C   UNL     1      -7.991  -2.324  14.430  0.00  0.00    +0.000 A 
ATOM     19  C   UNL     1      -8.779  -3.108  13.608  0.00  0.00    +0.000 A 
ATOM     20  C   UNL     1      -8.202  -3.831  12.582  0.00  0.00    +0.000 A 
ATOM     21  C   UNL     1      -6.837  -3.768  12.374  0.00  0.00    +0.004 A 
ENDBRANCH  15  16
ENDBRANCH  12  15
ENDBRANCH   2   5
BRANCH   1  22
ATOM     22  C   UNL     1      -1.379  -2.854   4.170  0.00  0.00    +0.109 C 
BRANCH  22  23
ATOM     23  C   UNL     1       0.055  -2.799   3.641  0.00  0.00    +0.052 C 
BRANCH  23  31
ATOM     24  C   UNL     1      -0.018   1.503   0.010  0.00  0.00    +0.044 C 
ATOM     25  C   UNL     1       0.002  -0.004   0.002  0.00  0.00    -0.050 A 
ATOM     26  C   UNL     1       0.005  -0.680  -1.226  0.00  0.00    +0.005 A 
ATOM     27  C   UNL     1       0.023  -2.026  -1.317  0.00  0.00    +0.026 A 
ATOM     28  C   UNL     1       0.039  -2.826  -0.141  0.00  0.00    +0.043 A 
ATOM     29  N   UNL     1       0.057  -4.126   0.030  0.00  0.00    -0.380 N 
ATOM     30  C   UNL     1       0.067  -4.408   1.470  0.00  0.00    +0.144 C 
ATOM     31  C   UNL     1       0.052  -3.060   2.156  0.00  0.00    -0.040 C 
ATOM     32  C   UNL     1       0.036  -2.137   1.168  0.00  0.00    -0.001 A 
ATOM     33  C   UNL     1       0.022  -0.669   1.180  0.00  0.00    +0.013 A 
ATOM     34  H   UNL     1       0.062  -4.790  -0.677  0.00  0.00    +0.160 HD
ENDBRANCH  23  31
ENDBRANCH  22  23
ENDBRANCH   1  22
TORSDOF 6
