REMARK  Name = ZINC38695489
REMARK  6 active torsions:
REMARK  status: ('A' for Active; 'I' for Inactive)
REMARK    1  A    between atoms: C_1  and  C_2
REMARK    2  A    between atoms: C_5  and  N_20
REMARK    3  A    between atoms: C_7  and  N_8
REMARK    4  A    between atoms: N_8  and  S_9
REMARK    5  A    between atoms: S_9  and  C_12
REMARK    6  A    between atoms: C_15  and  C_19
REMARK                            x       y       z     vdW  Elec       q    Type
REMARK                         _______ _______ _______ _____ _____    ______ ____
ROOT
ATOM      1  C   UNL     1       0.165   1.691   0.143  0.00  0.00    +0.046 C 
ATOM      2  C   UNL     1       0.264   0.192   0.022  0.00  0.00    -0.028 A 
ATOM      3  C   UNL     1       0.434  -0.390  -1.219  0.00  0.00    +0.007 A 
ATOM      4  C   UNL     1       0.526  -1.764  -1.334  0.00  0.00    +0.025 A 
ATOM      5  C   UNL     1       0.447  -2.565  -0.201  0.00  0.00    +0.053 A 
ATOM      6  C   UNL     1       0.277  -1.983   1.047  0.00  0.00    +0.049 A 
ATOM      7  C   UNL     1       0.191  -0.603   1.160  0.00  0.00    +0.053 A 
ENDROOT
BRANCH   5   8
ATOM      8  N   UNL     1       0.540  -3.953  -0.319  0.00  0.00    -0.207 N 
ATOM      9  C   UNL     1      -0.011  -4.962   0.605  0.00  0.00    +0.133 C 
ATOM     10  C   UNL     1      -0.356  -6.261  -0.145  0.00  0.00    +0.045 C 
ATOM     11  C   UNL     1       0.875  -6.540  -1.059  0.00  0.00    +0.190 C 
ATOM     12  S   UNL     1       1.293  -4.816  -1.543  0.00  0.00    +0.046 S 
ATOM     13  O   UNL     1       0.616  -4.448  -2.738  0.00  0.00    -0.155 OA
ATOM     14  O   UNL     1       2.683  -4.572  -1.379  0.00  0.00    -0.155 OA
ENDBRANCH   5   8
BRANCH   7  15
ATOM     15  N   UNL     1       0.025  -0.013   2.415  0.00  0.00    -0.216 N 
ATOM     16  H   UNL     1      -0.519   0.785   2.509  0.00  0.00    +0.174 HD
BRANCH  15  17
ATOM     17  S   UNL     1       0.759  -0.675   3.744  0.00  0.00    +0.072 S 
ATOM     18  O   UNL     1       0.515   0.213   4.827  0.00  0.00    -0.150 OA
ATOM     19  O   UNL     1       0.376  -2.043   3.780  0.00  0.00    -0.150 OA
BRANCH  17  20
ATOM     20  C   UNL     1       2.496  -0.645   3.450  0.00  0.00    +0.110 A 
ATOM     21  C   UNL     1       3.109  -1.716   2.826  0.00  0.00    +0.029 A 
ATOM     22  C   UNL     1       4.472  -1.693   2.595  0.00  0.00    +0.007 A 
ATOM     23  C   UNL     1       5.222  -0.600   2.987  0.00  0.00    -0.032 A 
ATOM     24  C   UNL     1       4.609   0.471   3.612  0.00  0.00    +0.046 A 
ATOM     25  C   UNL     1       3.244   0.451   3.837  0.00  0.00    +0.049 A 
ATOM     26 CL   UNL     1       5.550   1.843   4.105  0.00  0.00    -0.083 Cl
ATOM     27  C   UNL     1       6.708  -0.576   2.736  0.00  0.00    +0.045 C 
ENDBRANCH  17  20
ENDBRANCH  15  17
ENDBRANCH   7  15
TORSDOF 4
