REMARK  Name = ZINC02765731
REMARK  7 active torsions:
REMARK  status: ('A' for Active; 'I' for Inactive)
REMARK    1  A    between atoms: C_1  and  C_2
REMARK    2  A    between atoms: C_2  and  O_3
REMARK    3  A    between atoms: O_3  and  C_4
REMARK    4  A    between atoms: C_7  and  C_10
REMARK    5  A    between atoms: C_13  and  O_24
REMARK    6  A    between atoms: C_19  and  N_23
REMARK    7  A    between atoms: C_20  and  C_21
REMARK                            x       y       z     vdW  Elec       q    Type
REMARK                         _______ _______ _______ _____ _____    ______ ____
ROOT
ATOM      1  C   UNL     1       1.282   2.182   0.002  0.00  0.00    +0.101 C 
ATOM      2  C   UNL     1       1.058   3.610   0.422  0.00  0.00    +0.049 A 
ATOM      3  C   UNL     1       2.139   4.385   0.819  0.00  0.00    +0.124 A 
ATOM      4  C   UNL     1       1.946   5.701   1.209  0.00  0.00    +0.046 A 
ATOM      5  C   UNL     1       0.674   6.243   1.202  0.00  0.00    +0.007 A 
ATOM      6  C   UNL     1      -0.403   5.475   0.809  0.00  0.00    +0.047 A 
ATOM      7  C   UNL     1      -0.215   4.155   0.416  0.00  0.00    +0.138 A 
ATOM      8  O   UNL     1      -1.285   3.417   0.032  0.00  0.00    -0.441 OA
ATOM      9  C   UNL     1      -1.206   2.075   0.019  0.00  0.00    +0.199 C 
ATOM     10  C   UNL     1      -0.017   1.428   0.010  0.00  0.00    +0.098 C 
ENDROOT
BRANCH   1  14
ATOM     11  C   UNL     1       2.936   2.110  -3.939  0.00  0.00    +0.121 A 
ATOM     12  C   UNL     1       3.646   1.568  -2.877  0.00  0.00    +0.046 A 
ATOM     13  C   UNL     1       3.109   1.593  -1.604  0.00  0.00    +0.008 A 
ATOM     14  C   UNL     1       1.865   2.157  -1.388  0.00  0.00    -0.034 A 
ATOM     15  C   UNL     1       1.153   2.693  -2.445  0.00  0.00    +0.008 A 
ATOM     16  C   UNL     1       1.688   2.676  -3.719  0.00  0.00    +0.046 A 
BRANCH  11  17
ATOM     17  O   UNL     1       3.461   2.087  -5.192  0.00  0.00    -0.492 OA
BRANCH  17  19
ATOM     18  C   UNL     1       3.424   2.544  -7.564  0.00  0.00    +0.048 C 
ATOM     19  C   UNL     1       2.674   2.663  -6.236  0.00  0.00    +0.225 C 
ENDBRANCH  17  19
ENDBRANCH  11  17
ENDBRANCH   1  14
BRANCH   9  20
ATOM     20  N   UNL     1      -2.365   1.340   0.021  0.00  0.00    -0.328 N 
ATOM     21  H   UNL     1      -2.325   0.371   0.015  0.00  0.00    +0.145 HD
ATOM     22  H   UNL     1      -3.225   1.789   0.027  0.00  0.00    +0.145 HD
ENDBRANCH   9  20
BRANCH  10  23
ATOM     23  C   UNL     1       0.002  -0.004   0.002  0.00  0.00    +0.101 C 
ATOM     24  N   UNL     1       0.018  -1.140  -0.004  0.00  0.00    -0.191 NA
ENDBRANCH  10  23
BRANCH   3  25
ATOM     25  O   UNL     1       3.390   3.852   0.825  0.00  0.00    -0.506 OA
ATOM     26  H   UNL     1       3.868   3.962  -0.008  0.00  0.00    +0.292 HD
ENDBRANCH   3  25
TORSDOF 6
