REMARK  Name = ZINC22968767
REMARK  13 active torsions:
REMARK  status: ('A' for Active; 'I' for Inactive)
REMARK    1  A    between atoms: C_1  and  C_2
REMARK    2  A    between atoms: C_2  and  N_3
REMARK    3  A    between atoms: N_3  and  C_4
REMARK    4  A    between atoms: N_3  and  S_6
REMARK    5  A    between atoms: C_4  and  C_5
REMARK    6  A    between atoms: S_6  and  C_9
REMARK    7  A    between atoms: C_13  and  C_15
REMARK    8  A    between atoms: C_18  and  S_21
REMARK    9  A    between atoms: N_19  and  N_20
REMARK   10  A    between atoms: S_21  and  C_22
REMARK   11  A    between atoms: C_22  and  C_23
REMARK   12  A    between atoms: C_26  and  C_28
REMARK   13  A    between atoms: C_31  and  C_34
REMARK                            x       y       z     vdW  Elec       q    Type
REMARK                         _______ _______ _______ _____ _____    ______ ____
ROOT
ATOM      1  C   UNL     1       8.044   0.657  -1.759  0.00  0.00    +0.182 A 
ATOM      2  N   UNL     1       7.767   0.779  -0.482  0.00  0.00    -0.127 NA
ATOM      3  N   UNL     1       6.496   0.730  -0.301  0.00  0.00    -0.121 NA
ATOM      4  C   UNL     1       5.883   0.574  -1.454  0.00  0.00    +0.209 A 
ATOM      5  N   UNL     1       6.845   0.517  -2.420  0.00  0.00    -0.224 N 
ENDROOT
BRANCH   1  10
ATOM      6  C   UNL     1      11.773   0.464  -2.158  0.00  0.00    +0.106 A 
ATOM      7  C   UNL     1      11.910   0.679  -3.518  0.00  0.00    +0.028 A 
ATOM      8  C   UNL     1      10.793   0.888  -4.308  0.00  0.00    +0.003 A 
ATOM      9  C   UNL     1       9.534   0.882  -3.742  0.00  0.00    +0.012 A 
ATOM     10  C   UNL     1       9.389   0.665  -2.372  0.00  0.00    +0.023 A 
ATOM     11  C   UNL     1      10.521   0.460  -1.580  0.00  0.00    +0.040 A 
BRANCH   6  12
ATOM     12  S   UNL     1      13.202   0.200  -1.162  0.00  0.00    +0.061 S 
ATOM     13  O   UNL     1      12.771  -0.520  -0.015  0.00  0.00    -0.153 OA
ATOM     14  O   UNL     1      14.218  -0.287  -2.029  0.00  0.00    -0.153 OA
BRANCH  12  15
ATOM     15  N   UNL     1      13.708   1.683  -0.627  0.00  0.00    -0.177 NA
BRANCH  15  17
ATOM     16  C   UNL     1      14.169   1.887   1.766  0.00  0.00    +0.022 C 
ATOM     17  C   UNL     1      13.194   2.221   0.635  0.00  0.00    +0.106 C 
ENDBRANCH  15  17
BRANCH  15  18
ATOM     18  C   UNL     1      14.668   2.458  -1.417  0.00  0.00    +0.106 C 
ATOM     19  C   UNL     1      13.915   3.444  -2.312  0.00  0.00    +0.022 C 
ENDBRANCH  15  18
ENDBRANCH  12  15
ENDBRANCH   6  12
ENDBRANCH   1  10
BRANCH   5  20
ATOM     20  N   UNL     1       6.658   0.356  -3.764  0.00  0.00    -0.295 N 
ATOM     21  H   UNL     1       5.640   0.254  -4.168  0.00  0.00    +0.163 HD
ATOM     22  H   UNL     1       7.524   0.328  -4.441  0.00  0.00    +0.163 HD
ENDBRANCH   5  20
BRANCH   4  23
ATOM     23  S   UNL     1       4.142   0.454  -1.703  0.00  0.00    -0.078 S 
BRANCH  23  24
ATOM     24  C   UNL     1       3.568   0.606   0.007  0.00  0.00    +0.136 C 
BRANCH  24  25
ATOM     25  C   UNL     1       2.064   0.528   0.040  0.00  0.00    +0.090 A 
ATOM     26  C   UNL     1       1.214   1.567  -0.058  0.00  0.00    +0.221 A 
ATOM     27  O   UNL     1      -0.036   1.070   0.016  0.00  0.00    -0.443 OA
ATOM     28  C   UNL     1       0.062  -0.263   0.158  0.00  0.00    +0.227 A 
ATOM     29  N   UNL     1       1.333  -0.589   0.172  0.00  0.00    -0.213 NA
BRANCH  28  30
ATOM     30  C   UNL     1      -1.072  -1.204   0.277  0.00  0.00    +0.037 A 
ATOM     31  C   UNL     1      -0.836  -2.573   0.415  0.00  0.00    +0.013 A 
ATOM     32  C   UNL     1      -1.898  -3.445   0.530  0.00  0.00    +0.004 A 
ATOM     33  C   UNL     1      -3.196  -2.967   0.499  0.00  0.00    -0.050 A 
ATOM     34  C   UNL     1      -3.438  -1.612   0.358  0.00  0.00    +0.004 A 
ATOM     35  C   UNL     1      -2.384  -0.728   0.247  0.00  0.00    +0.013 A 
ATOM     36  C   UNL     1      -4.352  -3.926   0.619  0.00  0.00    +0.044 C 
ENDBRANCH  28  30
ENDBRANCH  24  25
ENDBRANCH  23  24
ENDBRANCH   4  23
TORSDOF 10
