REMARK  Name = ZINC06193013
REMARK  15 active torsions:
REMARK  status: ('A' for Active; 'I' for Inactive)
REMARK    1  A    between atoms: C_1  and  C_2
REMARK    2  A    between atoms: C_2  and  N_69
REMARK    3  A    between atoms: C_3  and  C_4
REMARK    4  A    between atoms: C_3  and  N_69
REMARK    5  A    between atoms: C_5  and  C_6
REMARK    6  A    between atoms: C_5  and  N_69
REMARK    7  A    between atoms: C_6  and  C_7
REMARK    8  A    between atoms: C_7  and  N_8
REMARK    9  A    between atoms: N_8  and  C_9
REMARK   10  A    between atoms: N_8  and  C_25
REMARK   11  A    between atoms: C_9  and  C_10
REMARK   12  A    between atoms: C_25  and  N_27
REMARK   13  A    between atoms: N_27  and  C_28
REMARK   14  A    between atoms: C_28  and  C_30
REMARK   15  A    between atoms: C_28  and  C_31
REMARK                            x       y       z     vdW  Elec       q    Type
REMARK                         _______ _______ _______ _____ _____    ______ ____
ROOT
ATOM      1  N   UNL     1       1.326   4.105   1.376  0.00  0.00    -0.308 N 
ENDROOT
BRANCH   1   2
ATOM      2  C   UNL     1       0.217   4.344   2.104  0.00  0.00    +0.134 C 
ATOM      3  S   UNL     1      -1.329   4.067   1.424  0.00  0.00    -0.019 S 
BRANCH   2   4
ATOM      4  N   UNL     1       0.326   4.801   3.367  0.00  0.00    -0.320 N 
ATOM      5  H   UNL     1       1.202   4.958   3.752  0.00  0.00    +0.148 HD
BRANCH   4   6
ATOM      6  C   UNL     1      -0.879   5.060   4.159  0.00  0.00    +0.099 C 
ATOM      7  C   UNL     1      -1.342   3.763   4.824  0.00  0.00    +0.033 C 
BRANCH   6   8
ATOM      8  C   UNL     1      -0.573   6.087   5.219  0.00  0.00    -0.028 A 
ATOM      9  C   UNL     1       0.630   6.041   5.898  0.00  0.00    +0.005 A 
ATOM     10  C   UNL     1       0.913   6.985   6.868  0.00  0.00    +0.000 A 
ATOM     11  C   UNL     1      -0.011   7.969   7.164  0.00  0.00    +0.000 A 
ATOM     12  C   UNL     1      -1.216   8.012   6.488  0.00  0.00    +0.000 A 
ATOM     13  C   UNL     1      -1.497   7.071   5.516  0.00  0.00    +0.005 A 
ENDBRANCH   6   8
ENDBRANCH   4   6
ENDBRANCH   2   4
ENDBRANCH   1   2
BRANCH   1  14
ATOM     14  C   UNL     1       2.649   4.343   1.958  0.00  0.00    +0.105 C 
BRANCH  14  15
ATOM     15  C   UNL     1       3.081   5.782   1.672  0.00  0.00    +0.000 C 
BRANCH  15  16
ATOM     16  C   UNL     1       4.464   6.030   2.279  0.00  0.00    -0.077 C 
BRANCH  16  17
ATOM     17  N   UNL     1       4.925   7.374   1.873  0.00  0.00    +0.379 N 
ATOM     18  H   UNL     1       4.696   7.521   0.883  0.00  0.00    -0.082 HD
BRANCH  17  20
ATOM     19  C   UNL     1       4.567   9.784   2.096  0.00  0.00    -0.017 C 
ATOM     20  C   UNL     1       4.244   8.408   2.682  0.00  0.00    -0.082 C 
ENDBRANCH  17  20
BRANCH  17  21
ATOM     21  C   UNL     1       6.389   7.480   2.048  0.00  0.00    -0.082 C 
ATOM     22  C   UNL     1       7.075   6.748   0.892  0.00  0.00    -0.017 C 
ENDBRANCH  17  21
ENDBRANCH  16  17
ENDBRANCH  15  16
ENDBRANCH  14  15
ENDBRANCH   1  14
BRANCH   1  23
ATOM     23  C   UNL     1       1.208   3.609   0.003  0.00  0.00    +0.147 C 
BRANCH  23  24
ATOM     24  C   UNL     1       1.195   2.102   0.013  0.00  0.00    +0.035 A 
ATOM     25  C   UNL     1       0.013   1.435   0.012  0.00  0.00    +0.020 A 
ATOM     26  C   UNL     1       0.034  -0.027   0.022  0.00  0.00    +0.003 A 
ATOM     27  C   UNL     1      -1.155  -0.767   0.020  0.00  0.00    +0.059 A 
ATOM     28  C   UNL     1      -1.103  -2.143   0.029  0.00  0.00    +0.167 A 
ATOM     29  C   UNL     1       0.133  -2.803   0.039  0.00  0.00    +0.168 A 
ATOM     30  C   UNL     1       1.312  -2.080   0.041  0.00  0.00    +0.075 A 
ATOM     31  C   UNL     1       1.276  -0.691   0.032  0.00  0.00    +0.053 A 
ATOM     32  N   UNL     1       2.443   0.046   0.033  0.00  0.00    -0.322 N 
ATOM     33  H   UNL     1       3.324  -0.427   0.040  0.00  0.00    +0.169 HD
ATOM     34  C   UNL     1       2.412   1.390   0.023  0.00  0.00    +0.254 A 
ATOM     35  O   UNL     1       3.462   2.009   0.023  0.00  0.00    -0.268 OA
ATOM     36  O   UNL     1      -0.096  -4.148   0.046  0.00  0.00    -0.453 OA
ATOM     37  C   UNL     1      -1.462  -4.310  -0.375  0.00  0.00    +0.466 C 
ATOM     38  O   UNL     1      -2.096  -3.082   0.029  0.00  0.00    -0.453 OA
ENDBRANCH  23  24
ENDBRANCH   1  23
TORSDOF 12
