REMARK  Name = ZINC03240026
REMARK  10 active torsions:
REMARK  status: ('A' for Active; 'I' for Inactive)
REMARK    1  A    between atoms: C_7  and  C_11
REMARK    2  A    between atoms: C_11  and  C_12
REMARK    3  A    between atoms: C_12  and  C_14
REMARK    4  A    between atoms: C_12  and  N_30
REMARK    5  A    between atoms: C_14  and  O_16
REMARK    6  A    between atoms: O_16  and  C_17
REMARK    7  A    between atoms: C_17  and  C_18
REMARK    8  A    between atoms: N_20  and  C_21
REMARK    9  A    between atoms: C_24  and  C_27
REMARK   10  A    between atoms: C_31  and  C_33
REMARK                            x       y       z     vdW  Elec       q    Type
REMARK                         _______ _______ _______ _____ _____    ______ ____
ROOT
ATOM      1  C   UNL     1       5.889   2.673   0.164  0.00  0.00    +0.186 C 
ENDROOT
BRANCH   1   2
ATOM      2  N   UNL     1       7.136   2.003  -0.213  0.00  0.00    -0.298 N 
ATOM      3  C   UNL     1       7.610   0.989   0.538  0.00  0.00    +0.251 C 
ATOM      4  O   UNL     1       7.002   0.631   1.530  0.00  0.00    -0.270 OA
ATOM      5  H   UNL     1       7.620   2.288  -1.004  0.00  0.00    +0.150 HD
BRANCH   3   6
ATOM      6  C   UNL     1       8.857   0.318   0.160  0.00  0.00    +0.074 A 
ATOM      7  C   UNL     1       9.509  -0.732   0.788  0.00  0.00    +0.021 A 
ATOM      8  C   UNL     1      10.676  -1.174   0.216  0.00  0.00    +0.008 A 
ATOM      9  C   UNL     1      11.129  -0.575  -0.917  0.00  0.00    +0.046 A 
ATOM     10  S   UNL     1       9.928   0.635  -1.231  0.00  0.00    -0.092 S 
ENDBRANCH   3   6
ENDBRANCH   1   2
BRANCH   1  11
ATOM     11  C   UNL     1       4.763   1.671   0.176  0.00  0.00    +0.328 C 
ATOM     12  O   UNL     1       5.006   0.490   0.259  0.00  0.00    -0.249 OA
BRANCH  11  13
ATOM     13  O   UNL     1       3.491   2.090   0.093  0.00  0.00    -0.454 OA
BRANCH  13  14
ATOM     14  C   UNL     1       2.458   1.069   0.110  0.00  0.00    +0.328 C 
BRANCH  14  15
ATOM     15  C   UNL     1       1.104   1.723   0.010  0.00  0.00    +0.255 C 
ATOM     16  O   UNL     1       1.018   2.930  -0.068  0.00  0.00    -0.272 OA
ATOM     17  N   UNL     1      -0.011   0.966   0.007  0.00  0.00    -0.283 N 
ATOM     18  H   UNL     1       0.059  -0.002   0.003  0.00  0.00    +0.155 HD
BRANCH  17  19
ATOM     19  C   UNL     1      -1.266   1.573   0.005  0.00  0.00    +0.034 A 
ATOM     20  C   UNL     1      -1.458   2.767  -0.684  0.00  0.00    +0.024 A 
ATOM     21  C   UNL     1      -2.698   3.366  -0.693  0.00  0.00    +0.015 A 
ATOM     22  C   UNL     1      -3.760   2.781   0.001  0.00  0.00    +0.037 A 
ATOM     23  C   UNL     1      -3.562   1.585   0.697  0.00  0.00    +0.015 A 
ATOM     24  C   UNL     1      -2.322   0.988   0.697  0.00  0.00    +0.024 A 
BRANCH  22  25
ATOM     25  C   UNL     1      -5.089   3.424  -0.002  0.00  0.00    +0.242 C 
ATOM     26  O   UNL     1      -6.013   2.913   0.602  0.00  0.00    -0.270 OA
ATOM     27  N   UNL     1      -5.278   4.577  -0.673  0.00  0.00    -0.325 N 
ATOM     28  H   UNL     1      -4.541   4.984  -1.155  0.00  0.00    +0.145 HD
ATOM     29  H   UNL     1      -6.151   4.999  -0.675  0.00  0.00    +0.145 HD
ENDBRANCH  22  25
ENDBRANCH  17  19
ENDBRANCH  14  15
ENDBRANCH  13  14
ENDBRANCH  11  13
ENDBRANCH   1  11
BRANCH   1  30
ATOM     30  C   UNL     1       6.041   3.286   1.558  0.00  0.00    +0.071 C 
BRANCH  30  37
ATOM     31  C   UNL     1       5.883   7.835   0.440  0.00  0.00    +0.001 A 
ATOM     32  C   UNL     1       7.116   8.462   0.550  0.00  0.00    +0.002 A 
ATOM     33  C   UNL     1       8.229   7.758   0.953  0.00  0.00    +0.026 A 
ATOM     34  C   UNL     1       8.119   6.404   1.252  0.00  0.00    +0.047 A 
ATOM     35  C   UNL     1       6.867   5.773   1.139  0.00  0.00    +0.003 A 
ATOM     36  C   UNL     1       5.752   6.506   0.729  0.00  0.00    +0.010 A 
ATOM     37  C   UNL     1       7.082   4.374   1.517  0.00  0.00    -0.020 A 
ATOM     38  C   UNL     1       8.382   4.247   1.827  0.00  0.00    +0.087 A 
ATOM     39  N   UNL     1       9.018   5.448   1.669  0.00  0.00    -0.360 N 
ATOM     40  H   UNL     1       9.962   5.604   1.831  0.00  0.00    +0.165 HD
ENDBRANCH  30  37
ENDBRANCH   1  30
TORSDOF 10
