REMARK  Name = ZINC53111799
REMARK  5 active torsions:
REMARK  status: ('A' for Active; 'I' for Inactive)
REMARK    1  A    between atoms: C_6  and  N_7
REMARK    2  A    between atoms: C_11  and  C_12
REMARK    3  A    between atoms: N_14  and  C_15
REMARK    4  A    between atoms: C_15  and  C_21
REMARK    5  A    between atoms: C_21  and  O_22
REMARK                            x       y       z     vdW  Elec       q    Type
REMARK                         _______ _______ _______ _____ _____    ______ ____
ROOT
ATOM      1  C   UNL     1       5.293  -0.960  -3.862  0.00  0.00    +0.023 A 
ATOM      2  C   UNL     1       5.468   0.189  -3.142  0.00  0.00    +0.012 A 
ATOM      3  C   UNL     1       4.918   0.299  -1.868  0.00  0.00    +0.012 A 
ATOM      4  C   UNL     1       4.184  -0.766  -1.320  0.00  0.00    +0.049 A 
ATOM      5  C   UNL     1       4.014  -1.929  -2.062  0.00  0.00    +0.049 A 
ATOM      6  C   UNL     1       4.567  -2.022  -3.328  0.00  0.00    +0.027 A 
ATOM      7  N   UNL     1       3.766  -0.378  -0.064  0.00  0.00    -0.360 N 
ATOM      8  H   UNL     1       3.239  -0.926   0.538  0.00  0.00    +0.165 HD
ATOM      9  C   UNL     1       4.198   0.878   0.211  0.00  0.00    +0.096 A 
ATOM     10  C   UNL     1       4.911   1.362  -0.845  0.00  0.00    +0.062 A 
ENDROOT
BRANCH  10  11
ATOM     11  C   UNL     1       5.548   2.682  -0.944  0.00  0.00    +0.247 C 
ATOM     12  O   UNL     1       6.160   2.988  -1.950  0.00  0.00    -0.270 OA
ATOM     13  N   UNL     1       5.456   3.554   0.080  0.00  0.00    -0.304 N 
ATOM     14  H   UNL     1       4.909   3.339   0.852  0.00  0.00    +0.150 HD
BRANCH  13  15
ATOM     15  C   UNL     1       6.182   4.825   0.027  0.00  0.00    +0.058 C 
ATOM     16  C   UNL     1       5.946   5.601   1.324  0.00  0.00    +0.028 C 
ATOM     17  C   UNL     1       6.449   4.776   2.510  0.00  0.00    +0.002 C 
ATOM     18  C   UNL     1       7.946   4.503   2.344  0.00  0.00    +0.000 C 
ATOM     19  C   UNL     1       8.181   3.727   1.046  0.00  0.00    +0.002 C 
ATOM     20  C   UNL     1       7.678   4.552  -0.140  0.00  0.00    +0.028 C 
BRANCH  15  21
ATOM     21  C   UNL     1       5.679   5.651  -1.159  0.00  0.00    +0.181 C 
BRANCH  21  22
ATOM     22  O   UNL     1       4.268   5.843  -1.041  0.00  0.00    -0.393 OA
ATOM     23  H   UNL     1       3.880   6.359  -1.761  0.00  0.00    +0.209 HD
ENDBRANCH  21  22
ENDBRANCH  15  21
ENDBRANCH  13  15
ENDBRANCH  10  11
BRANCH   6  24
ATOM     24  N   UNL     1       4.396  -3.192  -4.076  0.00  0.00    -0.358 N 
ATOM     25  H   UNL     1       4.782  -3.261  -4.963  0.00  0.00    +0.142 HD
ATOM     26  H   UNL     1       3.891  -3.933  -3.707  0.00  0.00    +0.142 HD
ENDBRANCH   6  24
TORSDOF 5
