REMARK  Name = ZINC07357107
REMARK  5 active torsions:
REMARK  status: ('A' for Active; 'I' for Inactive)
REMARK    1  A    between atoms: C_5  and  C_7
REMARK    2  A    between atoms: C_10  and  S_12
REMARK    3  A    between atoms: S_12  and  C_13
REMARK    4  A    between atoms: C_13  and  C_14
REMARK    5  A    between atoms: C_16  and  C_19
REMARK                            x       y       z     vdW  Elec       q    Type
REMARK                         _______ _______ _______ _____ _____    ______ ____
ROOT
ATOM      1  C   UNL     1       0.160  11.351   1.748  0.00  0.00    +0.252 A 
ATOM      2  N   UNL     1       0.221  11.093   0.464  0.00  0.00    -0.106 NA
ATOM      3  N   UNL     1       0.566   9.866   0.290  0.00  0.00    -0.101 NA
ATOM      4  C   UNL     1       0.730   9.288   1.457  0.00  0.00    +0.278 A 
ATOM      5  O   UNL     1       0.481  10.213   2.404  0.00  0.00    -0.411 OA
ENDROOT
BRANCH   1  10
ATOM      6  C   UNL     1      -0.556  13.988   4.323  0.00  0.00    +0.001 A 
ATOM      7  C   UNL     1      -0.863  15.073   3.521  0.00  0.00    +0.003 A 
ATOM      8  C   UNL     1      -0.840  14.952   2.144  0.00  0.00    +0.039 A 
ATOM      9  C   UNL     1      -0.508  13.745   1.559  0.00  0.00    +0.136 A 
ATOM     10  C   UNL     1      -0.196  12.645   2.364  0.00  0.00    +0.074 A 
ATOM     11  C   UNL     1      -0.228  12.775   3.754  0.00  0.00    +0.016 A 
ATOM     12  F   UNL     1      -0.485  13.627   0.213  0.00  0.00    -0.205 F 
ENDBRANCH   1  10
BRANCH   4  13
ATOM     13  S   UNL     1       1.199   7.613   1.735  0.00  0.00    -0.056 S 
BRANCH  13  14
ATOM     14  C   UNL     1       1.344   7.039   0.024  0.00  0.00    +0.177 C 
BRANCH  14  15
ATOM     15  C   UNL     1       1.748   5.588   0.013  0.00  0.00    +0.238 A 
ATOM     16  N   UNL     1       0.941   4.556   0.012  0.00  0.00    -0.191 NA
ATOM     17  C   UNL     1       1.743   3.467   0.004  0.00  0.00    +0.203 A 
ATOM     18  N   UNL     1       2.979   3.898  -0.007  0.00  0.00    -0.056 NA
ATOM     19  O   UNL     1       2.996   5.111  -0.001  0.00  0.00    -0.337 OA
BRANCH  17  20
ATOM     20  C   UNL     1       1.305   2.051   0.001  0.00  0.00    +0.029 A 
ATOM     21  C   UNL     1       2.237   1.015  -0.014  0.00  0.00    +0.019 A 
ATOM     22  C   UNL     1       1.768  -0.253  -0.016  0.00  0.00    +0.046 A 
ATOM     23  S   UNL     1       0.002  -0.004   0.002  0.00  0.00    -0.104 S 
ATOM     24  C   UNL     1      -0.021   1.729   0.011  0.00  0.00    +0.057 A 
ENDBRANCH  17  20
ENDBRANCH  14  15
ENDBRANCH  13  14
ENDBRANCH   4  13
TORSDOF 5
