REMARK  Name = ZINC63796216
REMARK  4 active torsions:
REMARK  status: ('A' for Active; 'I' for Inactive)
REMARK    1  A    between atoms: C_1  and  C_2
REMARK    2  A    between atoms: C_4  and  C_15
REMARK    3  A    between atoms: C_8  and  O_14
REMARK    4  A    between atoms: C_18  and  C_20
REMARK                            x       y       z     vdW  Elec       q    Type
REMARK                         _______ _______ _______ _____ _____    ______ ____
ROOT
ATOM      1  C   UNL     1      -0.018   1.496  -0.036  0.00  0.00    +0.067 C 
ATOM      2  C   UNL     1      -0.002  -0.011  -0.044  0.00  0.00    +0.065 C 
ATOM      3  C   UNL     1      -1.087  -0.785   0.073  0.00  0.00    +0.021 C 
ATOM      4  C   UNL     1      -2.490  -0.327   0.243  0.00  0.00    +0.144 C 
ATOM      5  S   UNL     1      -3.120  -0.704   1.895  0.00  0.00    -0.136 S 
ATOM      6  C   UNL     1      -3.173  -2.507   1.977  0.00  0.00    +0.165 C 
ATOM      7  C   UNL     1      -1.818  -3.100   1.871  0.00  0.00    +0.195 C 
ATOM      8  N   UNL     1      -0.831  -2.974   1.173  0.00  0.00    -0.221 NA
ATOM      9  C   UNL     1      -0.544  -2.187   0.001  0.00  0.00    +0.276 C 
ATOM     10  N   UNL     1       0.906  -1.985  -0.154  0.00  0.00    -0.156 NA
ATOM     11  N   UNL     1       1.111  -0.768  -0.175  0.00  0.00    -0.157 NA
ENDROOT
BRANCH   4  12
ATOM     12  C   UNL     1      -2.551   1.163   0.024  0.00  0.00    +0.123 A 
ATOM     13  C   UNL     1      -2.840   1.773  -1.142  0.00  0.00    +0.047 A 
ATOM     14  C   UNL     1      -2.788   3.162  -0.905  0.00  0.00    +0.050 A 
ATOM     15  C   UNL     1      -2.468   3.323   0.407  0.00  0.00    +0.138 A 
ATOM     16  O   UNL     1      -2.333   2.102   0.959  0.00  0.00    -0.458 OA
BRANCH  15  17
ATOM     17  C   UNL     1      -2.303   4.614   1.107  0.00  0.00    +0.052 A 
ATOM     18  C   UNL     1      -1.494   5.611   0.558  0.00  0.00    +0.014 A 
ATOM     19  C   UNL     1      -1.344   6.814   1.216  0.00  0.00    +0.001 A 
ATOM     20  C   UNL     1      -1.992   7.035   2.418  0.00  0.00    +0.003 A 
ATOM     21  C   UNL     1      -2.795   6.053   2.970  0.00  0.00    +0.039 A 
ATOM     22  C   UNL     1      -2.960   4.845   2.318  0.00  0.00    +0.134 A 
ATOM     23  F   UNL     1      -3.749   3.889   2.854  0.00  0.00    -0.205 F 
ENDBRANCH  15  17
ENDBRANCH   4  12
BRANCH   7  24
ATOM     24  O   UNL     1      -1.627  -4.045   2.815  0.00  0.00    -0.495 OA
ATOM     25  H   UNL     1      -0.754  -4.461   2.785  0.00  0.00    +0.293 HD
ENDBRANCH   7  24
TORSDOF 3
