REMARK  Name = ZINC35543335
REMARK  4 active torsions:
REMARK  status: ('A' for Active; 'I' for Inactive)
REMARK    1  A    between atoms: C_8  and  C_24
REMARK    2  A    between atoms: N_15  and  C_17
REMARK    3  A    between atoms: N_26  and  C_27
REMARK    4  A    between atoms: C_27  and  C_28
REMARK                            x       y       z     vdW  Elec       q    Type
REMARK                         _______ _______ _______ _____ _____    ______ ____
ROOT
ATOM      1  C   UNL     1      -0.025   1.361   0.012  0.00  0.00    +0.000 A 
ATOM      2  C   UNL     1       1.161   2.072   0.018  0.00  0.00    +0.002 A 
ATOM      3  C   UNL     1       2.368   1.404   0.007  0.00  0.00    +0.023 A 
ATOM      4  C   UNL     1       2.392   0.012  -0.013  0.00  0.00    +0.033 A 
ATOM      5  C   UNL     1       1.204  -0.695  -0.028  0.00  0.00    -0.026 A 
ATOM      6  C   UNL     1      -0.004  -0.022  -0.011  0.00  0.00    +0.005 A 
ATOM      7  C   UNL     1       1.214  -2.201  -0.080  0.00  0.00    +0.051 C 
ATOM      8  C   UNL     1       2.482  -2.658  -0.800  0.00  0.00    +0.101 C 
ATOM      9  C   UNL     1       3.717  -2.086  -0.096  0.00  0.00    +0.103 C 
ATOM     10  N   UNL     1       3.639  -0.639  -0.008  0.00  0.00    -0.323 N 
ATOM     11  C   UNL     1       4.817   0.212   0.146  0.00  0.00    +0.124 C 
ATOM     12  C   UNL     1       6.008  -0.272  -0.655  0.00  0.00    +0.124 C 
ATOM     13  N   UNL     1       6.106  -1.722  -0.638  0.00  0.00    -0.327 N 
ATOM     14  C   UNL     1       4.955  -2.583  -0.824  0.00  0.00    +0.128 C 
ENDROOT
BRANCH  13  15
ATOM     15  C   UNL     1       7.358  -2.309  -0.434  0.00  0.00    +0.030 A 
ATOM     16  C   UNL     1       7.468  -3.687  -0.300  0.00  0.00    +0.024 A 
ATOM     17  C   UNL     1       8.706  -4.264  -0.099  0.00  0.00    +0.022 A 
ATOM     18  C   UNL     1       9.838  -3.470  -0.030  0.00  0.00    +0.041 A 
ATOM     19  C   UNL     1       9.732  -2.097  -0.164  0.00  0.00    +0.022 A 
ATOM     20  C   UNL     1       8.496  -1.515  -0.371  0.00  0.00    +0.024 A 
ATOM     21 CL   UNL     1      11.393  -4.198   0.223  0.00  0.00    -0.084 Cl
ENDBRANCH  13  15
BRANCH   8  22
ATOM     22  C   UNL     1       2.451  -2.172  -2.226  0.00  0.00    +0.219 C 
ATOM     23  O   UNL     1       3.324  -1.436  -2.635  0.00  0.00    -0.275 OA
ATOM     24  N   UNL     1       1.454  -2.555  -3.047  0.00  0.00    -0.308 N 
ATOM     25  H   UNL     1       0.755  -3.144  -2.720  0.00  0.00    +0.149 HD
BRANCH  24  26
ATOM     26  C   UNL     1       1.424  -2.083  -4.434  0.00  0.00    +0.178 C 
BRANCH  26  27
ATOM     27  C   UNL     1       0.215  -2.652  -5.132  0.00  0.00    +0.122 A 
ATOM     28  C   UNL     1      -1.000  -2.079  -5.193  0.00  0.00    +0.046 A 
ATOM     29  C   UNL     1      -1.826  -2.950  -5.941  0.00  0.00    +0.041 A 
ATOM     30  C   UNL     1      -1.066  -4.002  -6.292  0.00  0.00    +0.195 A 
ATOM     31  O   UNL     1       0.172  -3.814  -5.804  0.00  0.00    -0.466 OA
ENDBRANCH  26  27
ENDBRANCH  24  26
ENDBRANCH   8  22
TORSDOF 4
