REMARK  Name = ZINC34750036
REMARK  11 active torsions:
REMARK  status: ('A' for Active; 'I' for Inactive)
REMARK    1  A    between atoms: C_1  and  C_2
REMARK    2  A    between atoms: C_2  and  C_3
REMARK    3  A    between atoms: C_3  and  C_4
REMARK    4  A    between atoms: C_4  and  S_5
REMARK    5  A    between atoms: S_5  and  C_6
REMARK    6  A    between atoms: C_17  and  C_19
REMARK    7  A    between atoms: C_17  and  C_20
REMARK    8  A    between atoms: N_24  and  C_27
REMARK    9  A    between atoms: C_27  and  C_28
REMARK   10  A    between atoms: C_28  and  C_29
REMARK   11  A    between atoms: C_28  and  C_30
REMARK                            x       y       z     vdW  Elec       q    Type
REMARK                         _______ _______ _______ _____ _____    ______ ____
ROOT
ATOM      1  C   UNL     1      -3.240  -3.994  -0.455  0.00  0.00    +0.191 A 
ATOM      2  N   UNL     1      -4.252  -4.847  -0.351  0.00  0.00    -0.206 NA
ATOM      3  C   UNL     1      -4.064  -6.141  -0.163  0.00  0.00    +0.134 A 
ATOM      4  C   UNL     1      -2.736  -6.646  -0.067  0.00  0.00    +0.051 A 
ATOM      5  C   UNL     1      -2.291  -8.023   0.140  0.00  0.00    -0.020 A 
ATOM      6  C   UNL     1      -0.959  -8.236   0.194  0.00  0.00    +0.021 A 
ATOM      7  S   UNL     1      -0.226  -6.640  -0.024  0.00  0.00    -0.071 S 
ATOM      8  C   UNL     1      -1.712  -5.684  -0.186  0.00  0.00    +0.115 A 
ATOM      9  N   UNL     1      -1.982  -4.407  -0.379  0.00  0.00    -0.215 NA
ATOM     10  C   UNL     1      -0.281  -9.556   0.398  0.00  0.00    +0.203 C 
ATOM     11  O   UNL     1      -1.271 -10.497   0.843  0.00  0.00    -0.368 OA
ATOM     12  C   UNL     1      -2.460 -10.491   0.048  0.00  0.00    +0.068 C 
ATOM     13  C   UNL     1      -3.250  -9.201   0.292  0.00  0.00    +0.071 C 
ATOM     14  C   UNL     1      -2.082 -10.581  -1.432  0.00  0.00    +0.041 C 
ATOM     15  C   UNL     1      -3.327 -11.694   0.422  0.00  0.00    +0.041 C 
ATOM     16  N   UNL     1      -5.146  -6.997  -0.060  0.00  0.00    -0.318 N 
ATOM     17  C   UNL     1      -5.684  -7.380   1.254  0.00  0.00    +0.088 C 
ATOM     18  C   UNL     1      -7.199  -7.153   1.243  0.00  0.00    -0.060 C 
ATOM     19  N   UNL     1      -7.793  -7.875   0.111  0.00  0.00    +0.382 N 
ATOM     20  C   UNL     1      -7.301  -7.314  -1.153  0.00  0.00    -0.060 C 
ATOM     21  C   UNL     1      -5.794  -7.545  -1.261  0.00  0.00    +0.088 C 
ATOM     22  H   UNL     1      -7.541  -8.851   0.166  0.00  0.00    -0.082 HD
ENDROOT
BRANCH   1  23
ATOM     23  S   UNL     1      -3.573  -2.282  -0.706  0.00  0.00    -0.086 S 
BRANCH  23  24
ATOM     24  C   UNL     1      -1.928  -1.522  -0.793  0.00  0.00    +0.077 C 
BRANCH  24  25
ATOM     25  C   UNL     1      -2.073  -0.015  -1.012  0.00  0.00    +0.011 C 
BRANCH  25  27
ATOM     26  C   UNL     1      -0.831   2.133  -1.305  0.00  0.00    +0.004 C 
ATOM     27  C   UNL     1      -0.686   0.626  -1.086  0.00  0.00    -0.003 C 
ENDBRANCH  25  27
ENDBRANCH  24  25
ENDBRANCH  23  24
ENDBRANCH   1  23
BRANCH  19  28
ATOM     28  C   UNL     1      -9.256  -7.748   0.164  0.00  0.00    -0.076 C 
BRANCH  28  29
ATOM     29  C   UNL     1      -9.786  -8.468   1.405  0.00  0.00    -0.034 C 
ATOM     30  C   UNL     1     -11.291  -8.223   1.534  0.00  0.00    +0.005 C 
ATOM     31  C   UNL     1      -9.523  -9.970   1.275  0.00  0.00    +0.005 C 
ENDBRANCH  28  29
ENDBRANCH  19  28
TORSDOF 6
