REMARK  Name = ZINC20929382
REMARK  12 active torsions:
REMARK  status: ('A' for Active; 'I' for Inactive)
REMARK    1  A    between atoms: C_1  and  C_2
REMARK    2  A    between atoms: C_6  and  N_9
REMARK    3  A    between atoms: C_7  and  C_8
REMARK    4  A    between atoms: N_13  and  S_25
REMARK    5  A    between atoms: C_15  and  C_16
REMARK    6  A    between atoms: C_15  and  C_17
REMARK    7  A    between atoms: N_19  and  C_20
REMARK    8  A    between atoms: C_20  and  C_21
REMARK    9  A    between atoms: C_21  and  C_22
REMARK   10  A    between atoms: C_22  and  C_23
REMARK   11  A    between atoms: C_22  and  C_24
REMARK   12  A    between atoms: S_25  and  C_28
REMARK                            x       y       z     vdW  Elec       q    Type
REMARK                         _______ _______ _______ _____ _____    ______ ____
ROOT
ATOM      1  N   UNL     1      -4.517   2.347   2.616  0.00  0.00    -0.254 N 
ATOM      2  C   UNL     1      -5.316   1.316   2.893  0.00  0.00    +0.236 C 
ATOM      3  O   UNL     1      -4.810   0.245   3.154  0.00  0.00    -0.274 OA
ATOM      4  C   UNL     1      -6.817   1.421   2.902  0.00  0.00    +0.205 C 
ATOM      5  N   UNL     1      -7.196   2.841   2.860  0.00  0.00    -0.165 NA
ATOM      6  C   UNL     1      -6.445   3.713   1.940  0.00  0.00    +0.145 C 
ATOM      7  C   UNL     1      -4.976   3.707   2.368  0.00  0.00    +0.129 C 
ATOM      8  C   UNL     1      -4.127   4.331   1.259  0.00  0.00    +0.043 C 
ENDROOT
BRANCH   1  14
ATOM      9  C   UNL     1      -0.287   1.353   4.915  0.00  0.00    +0.044 C 
ATOM     10  C   UNL     1      -1.065   1.620   3.653  0.00  0.00    -0.046 A 
ATOM     11  C   UNL     1      -0.418   1.626   2.431  0.00  0.00    +0.004 A 
ATOM     12  C   UNL     1      -1.128   1.870   1.270  0.00  0.00    +0.002 A 
ATOM     13  C   UNL     1      -2.487   2.110   1.328  0.00  0.00    +0.024 A 
ATOM     14  C   UNL     1      -3.140   2.104   2.554  0.00  0.00    +0.041 A 
ATOM     15  C   UNL     1      -2.425   1.853   3.717  0.00  0.00    -0.026 A 
ATOM     16  C   UNL     1      -3.130   1.840   5.049  0.00  0.00    +0.046 C 
ENDBRANCH   1  14
BRANCH   7  17
ATOM     17  C   UNL     1      -4.823   4.520   3.627  0.00  0.00    +0.238 C 
ATOM     18  O   UNL     1      -5.739   5.211   4.018  0.00  0.00    -0.273 OA
ATOM     19  N   UNL     1      -3.667   4.479   4.319  0.00  0.00    -0.313 N 
ATOM     20  H   UNL     1      -2.811   3.911   3.926  0.00  0.00    +0.149 HD
BRANCH  19  21
ATOM     21  C   UNL     1      -3.551   5.190   5.594  0.00  0.00    +0.104 C 
BRANCH  21  22
ATOM     22  C   UNL     1      -2.147   4.983   6.168  0.00  0.00    +0.022 C 
BRANCH  22  23
ATOM     23  C   UNL     1      -2.026   5.726   7.500  0.00  0.00    -0.016 C 
ATOM     24  C   UNL     1      -2.978   5.101   8.521  0.00  0.00    +0.007 C 
ATOM     25  C   UNL     1      -0.588   5.623   8.012  0.00  0.00    +0.007 C 
ENDBRANCH  22  23
ENDBRANCH  21  22
ENDBRANCH  19  21
ENDBRANCH   7  17
BRANCH   5  26
ATOM     26  S   UNL     1      -8.416   3.436   3.808  0.00  0.00    +0.061 S 
ATOM     27  O   UNL     1      -8.536   2.555   4.916  0.00  0.00    -0.153 OA
ATOM     28  O   UNL     1      -8.168   4.827   3.964  0.00  0.00    -0.153 OA
BRANCH  26  29
ATOM     29  C   UNL     1      -9.910   3.291   2.885  0.00  0.00    +0.105 A 
ATOM     30  C   UNL     1     -10.323   4.328   2.070  0.00  0.00    +0.028 A 
ATOM     31  C   UNL     1     -11.493   4.213   1.343  0.00  0.00    +0.002 A 
ATOM     32  C   UNL     1     -12.255   3.063   1.438  0.00  0.00    +0.000 A 
ATOM     33  C   UNL     1     -11.845   2.028   2.258  0.00  0.00    +0.002 A 
ATOM     34  C   UNL     1     -10.673   2.142   2.981  0.00  0.00    +0.028 A 
ENDBRANCH  26  29
ENDBRANCH   5  26
TORSDOF 7
