REMARK  Name = ZINC39664862
REMARK  10 active torsions:
REMARK  status: ('A' for Active; 'I' for Inactive)
REMARK    1  A    between atoms: C_1  and  C_2
REMARK    2  A    between atoms: C_5  and  C_9
REMARK    3  A    between atoms: C_6  and  C_8
REMARK    4  A    between atoms: C_13  and  C_22
REMARK    5  A    between atoms: N_24  and  C_25
REMARK    6  A    between atoms: C_25  and  C_27
REMARK    7  A    between atoms: C_25  and  C_31
REMARK    8  A    between atoms: C_27  and  N_28
REMARK    9  A    between atoms: N_28  and  C_29
REMARK   10  A    between atoms: N_28  and  C_30
REMARK                            x       y       z     vdW  Elec       q    Type
REMARK                         _______ _______ _______ _____ _____    ______ ____
ROOT
ATOM      1  C   UNL     1       1.115  -4.546  -0.026  0.00  0.00    +0.247 C 
ATOM      2  O   UNL     1       1.079  -3.365   0.259  0.00  0.00    -0.270 OA
ATOM      3  N   UNL     1       1.052  -4.930  -1.316  0.00  0.00    -0.296 N 
ATOM      4  C   UNL     1       1.043  -4.068  -2.521  0.00  0.00    +0.121 C 
ATOM      5  C   UNL     1       1.925  -4.818  -3.545  0.00  0.00    +0.100 C 
ATOM      6  C   UNL     1       1.876  -6.289  -3.100  0.00  0.00    -0.004 C 
ATOM      7  C   UNL     1       0.984  -6.311  -1.851  0.00  0.00    +0.115 C 
ATOM      8  C   UNL     1       1.267  -7.154  -4.201  0.00  0.00    -0.010 C 
ATOM      9  C   UNL     1       1.283  -8.620  -3.759  0.00  0.00    -0.082 C 
ATOM     10  N   UNL     1       2.664  -9.037  -3.489  0.00  0.00    +0.379 N 
ATOM     11  C   UNL     1       3.211  -8.264  -2.368  0.00  0.00    -0.082 C 
ATOM     12  C   UNL     1       3.277  -6.782  -2.751  0.00  0.00    -0.010 C 
ATOM     13  H   UNL     1       2.679 -10.019  -3.258  0.00  0.00    -0.086 HD
ATOM     14  H   UNL     1       3.228  -8.880  -4.311  0.00  0.00    -0.086 HD
ENDROOT
BRANCH   1  19
ATOM     15  C   UNL     1       1.551  -8.498   4.135  0.00  0.00    +0.044 C 
ATOM     16  C   UNL     1       1.437  -7.463   3.045  0.00  0.00    -0.050 A 
ATOM     17  C   UNL     1       0.578  -7.675   1.981  0.00  0.00    +0.004 A 
ATOM     18  C   UNL     1       0.468  -6.732   0.981  0.00  0.00    +0.013 A 
ATOM     19  C   UNL     1       1.227  -5.561   1.043  0.00  0.00    +0.040 A 
ATOM     20  C   UNL     1       2.091  -5.354   2.119  0.00  0.00    -0.038 A 
ATOM     21  C   UNL     1       2.188  -6.303   3.116  0.00  0.00    +0.007 A 
ATOM     22  C   UNL     1       2.914  -4.093   2.194  0.00  0.00    +0.044 C 
ENDBRANCH   1  19
BRANCH   5  23
ATOM     23  C   UNL     1       3.339  -4.300  -3.498  0.00  0.00    +0.219 C 
ATOM     24  O   UNL     1       3.768  -3.797  -2.481  0.00  0.00    -0.275 OA
ATOM     25  N   UNL     1       4.128  -4.396  -4.587  0.00  0.00    -0.310 N 
ATOM     26  H   UNL     1       3.764  -4.731  -5.421  0.00  0.00    +0.149 HD
BRANCH  25  27
ATOM     27  C   UNL     1       5.535  -3.994  -4.510  0.00  0.00    +0.087 C 
BRANCH  27  28
ATOM     28  C   UNL     1       6.311  -4.670  -5.610  0.00  0.00    -0.029 A 
ATOM     29  C   UNL     1       5.759  -4.794  -6.871  0.00  0.00    +0.005 A 
ATOM     30  C   UNL     1       6.471  -5.415  -7.880  0.00  0.00    +0.000 A 
ATOM     31  C   UNL     1       7.737  -5.911  -7.628  0.00  0.00    +0.000 A 
ATOM     32  C   UNL     1       8.290  -5.787  -6.367  0.00  0.00    +0.000 A 
ATOM     33  C   UNL     1       7.579  -5.162  -5.359  0.00  0.00    +0.005 A 
ENDBRANCH  27  28
BRANCH  27  34
ATOM     34  C   UNL     1       5.640  -2.476  -4.670  0.00  0.00    -0.052 C 
BRANCH  34  35
ATOM     35  N   UNL     1       7.032  -2.057  -4.457  0.00  0.00    +0.377 N 
ATOM     36  C   UNL     1       7.159  -0.620  -4.735  0.00  0.00    -0.097 C 
ATOM     37  C   UNL     1       7.416  -2.322  -3.065  0.00  0.00    -0.097 C 
ATOM     38  H   UNL     1       7.638  -2.574  -5.077  0.00  0.00    -0.083 HD
ENDBRANCH  34  35
ENDBRANCH  27  34
ENDBRANCH  25  27
ENDBRANCH   5  23
TORSDOF 6
