REMARK  Name = ZINC03241148
REMARK  8 active torsions:
REMARK  status: ('A' for Active; 'I' for Inactive)
REMARK    1  A    between atoms: C_4  and  C_7
REMARK    2  A    between atoms: C_7  and  N_51
REMARK    3  A    between atoms: C_8  and  C_10
REMARK    4  A    between atoms: C_8  and  N_14
REMARK    5  A    between atoms: C_8  and  N_51
REMARK    6  A    between atoms: C_15  and  C_17
REMARK    7  A    between atoms: C_17  and  C_19
REMARK    8  A    between atoms: C_17  and  C_25
REMARK                            x       y       z     vdW  Elec       q    Type
REMARK                         _______ _______ _______ _____ _____    ______ ____
ROOT
ATOM      1  N   UNL     1       5.895  -3.172  -1.628  0.00  0.00    -0.325 N 
ATOM      2  C   UNL     1       5.717  -4.230  -0.812  0.00  0.00    +0.223 C 
ATOM      3  O   UNL     1       6.130  -4.192   0.328  0.00  0.00    -0.275 OA
ATOM      4  H   UNL     1       5.564  -3.201  -2.540  0.00  0.00    +0.147 HD
ENDROOT
BRANCH   1   5
ATOM      5  C   UNL     1       6.587  -1.977  -1.138  0.00  0.00    +0.068 C 
BRANCH   5   6
ATOM      6  C   UNL     1       7.595  -1.505  -2.188  0.00  0.00    +0.194 C 
ATOM      7 CL   UNL     1       8.446  -0.035  -1.585  0.00  0.00    -0.084 Cl
ATOM      8 CL   UNL     1       8.798  -2.812  -2.495  0.00  0.00    -0.084 Cl
ATOM      9 CL   UNL     1       6.729  -1.113  -3.720  0.00  0.00    -0.084 Cl
ENDBRANCH   5   6
BRANCH   5  10
ATOM     10  N   UNL     1       5.601  -0.906  -0.895  0.00  0.00    +0.397 N 
ATOM     11  H   UNL     1       5.956  -0.025  -1.285  0.00  0.00    -0.083 HD
ATOM     12  H   UNL     1       4.716  -1.150  -1.353  0.00  0.00    -0.083 HD
BRANCH  10  13
ATOM     13  C   UNL     1       5.371  -0.741   0.552  0.00  0.00    -0.044 C 
BRANCH  13  17
ATOM     14  C   UNL     1       2.512   2.373   1.169  0.00  0.00    +0.000 A 
ATOM     15  C   UNL     1       3.861   2.673   1.119  0.00  0.00    +0.000 A 
ATOM     16  C   UNL     1       4.786   1.665   0.919  0.00  0.00    +0.002 A 
ATOM     17  C   UNL     1       4.363   0.358   0.770  0.00  0.00    -0.064 A 
ATOM     18  C   UNL     1       3.014   0.058   0.821  0.00  0.00    +0.002 A 
ATOM     19  C   UNL     1       2.089   1.065   1.020  0.00  0.00    +0.000 A 
ENDBRANCH  13  17
ENDBRANCH  10  13
ENDBRANCH   5  10
ENDBRANCH   1   5
BRANCH   2  20
ATOM     20  C   UNL     1       5.006  -5.459  -1.316  0.00  0.00    +0.134 C 
BRANCH  20  21
ATOM     21  C   UNL     1       4.940  -6.487  -0.217  0.00  0.00    -0.031 A 
ATOM     22  C   UNL     1       3.727  -7.053   0.129  0.00  0.00    +0.005 A 
ATOM     23  C   UNL     1       3.667  -8.000   1.134  0.00  0.00    +0.000 A 
ATOM     24  C   UNL     1       4.819  -8.374   1.801  0.00  0.00    +0.000 A 
ATOM     25  C   UNL     1       6.031  -7.804   1.459  0.00  0.00    +0.000 A 
ATOM     26  C   UNL     1       6.091  -6.861   0.451  0.00  0.00    +0.005 A 
ENDBRANCH  20  21
BRANCH  20  27
ATOM     27  C   UNL     1       5.757  -6.028  -2.492  0.00  0.00    -0.035 C 
ATOM     28  C   UNL     1       5.126  -6.260  -3.638  0.00  0.00    -0.022 C 
ATOM     29  C   UNL     1       5.876  -6.825  -4.814  0.00  0.00    +0.031 C 
ATOM     30  C   UNL     1       7.308  -6.290  -4.828  0.00  0.00    +0.031 C 
ATOM     31  C   UNL     1       7.932  -6.462  -3.469  0.00  0.00    -0.026 C 
ATOM     32  C   UNL     1       7.192  -6.334  -2.373  0.00  0.00    -0.000 C 
ENDBRANCH  20  27
ENDBRANCH   2  20
TORSDOF 8
