REMARK  Name = ZINC62975911
REMARK  5 active torsions:
REMARK  status: ('A' for Active; 'I' for Inactive)
REMARK    1  A    between atoms: C_2  and  N_22
REMARK    2  A    between atoms: C_4  and  S_18
REMARK    3  A    between atoms: C_6  and  N_7
REMARK    4  A    between atoms: C_10  and  N_13
REMARK    5  A    between atoms: S_18  and  N_21
REMARK                            x       y       z     vdW  Elec       q    Type
REMARK                         _______ _______ _______ _____ _____    ______ ____
ROOT
ATOM      1  C   UNL     1      -0.017   1.383   0.010  0.00  0.00    +0.046 A 
ATOM      2  C   UNL     1       1.177   2.091   0.002  0.00  0.00    +0.028 A 
ATOM      3  C   UNL     1       2.388   1.407  -0.013  0.00  0.00    +0.051 A 
ATOM      4  C   UNL     1       2.403   0.026  -0.021  0.00  0.00    +0.108 A 
ATOM      5  C   UNL     1       1.216  -0.681  -0.014  0.00  0.00    +0.051 A 
ATOM      6  C   UNL     1       0.002  -0.004   0.002  0.00  0.00    +0.033 A 
ENDROOT
BRANCH   6   7
ATOM      7  N   UNL     1      -1.197  -0.720   0.010  0.00  0.00    -0.331 N 
ATOM      8  C   UNL     1      -1.321  -2.185   0.010  0.00  0.00    +0.103 C 
ATOM      9  C   UNL     1      -2.828  -2.517   0.049  0.00  0.00    +0.005 C 
ATOM     10  C   UNL     1      -3.453  -1.226   0.639  0.00  0.00    -0.050 C 
ATOM     11  C   UNL     1      -2.549  -0.131   0.027  0.00  0.00    +0.090 C 
BRANCH  10  12
ATOM     12  N   UNL     1      -4.847  -1.068   0.202  0.00  0.00    +0.383 N 
ATOM     13  C   UNL     1      -5.684  -2.165   0.753  0.00  0.00    -0.078 C 
ATOM     14  C   UNL     1      -7.117  -1.577   0.701  0.00  0.00    -0.020 C 
ATOM     15  C   UNL     1      -6.894  -0.092   1.067  0.00  0.00    -0.020 C 
ATOM     16  C   UNL     1      -5.414   0.184   0.747  0.00  0.00    -0.078 C 
ATOM     17  H   UNL     1      -4.897  -1.063  -0.806  0.00  0.00    -0.081 HD
ENDBRANCH  10  12
ENDBRANCH   6   7
BRANCH   4  18
ATOM     18  S   UNL     1       3.939  -0.836  -0.040  0.00  0.00    +0.056 S 
ATOM     19  O   UNL     1       3.679  -2.118  -0.595  0.00  0.00    -0.153 OA
ATOM     20  O   UNL     1       4.897   0.054  -0.595  0.00  0.00    -0.153 OA
BRANCH  18  21
ATOM     21  N   UNL     1       4.381  -1.084   1.536  0.00  0.00    -0.204 NA
ATOM     22  H   UNL     1       4.909  -1.862   1.776  0.00  0.00    +0.144 HD
ATOM     23  H   UNL     1       4.112  -0.452   2.221  0.00  0.00    +0.144 HD
ENDBRANCH  18  21
ENDBRANCH   4  18
BRANCH   2  24
ATOM     24  N   UNL     1       1.163   3.487   0.009  0.00  0.00    -0.358 N 
ATOM     25  H   UNL     1       0.318   3.963   0.019  0.00  0.00    +0.142 HD
ATOM     26  H   UNL     1       1.998   3.981   0.004  0.00  0.00    +0.142 HD
ENDBRANCH   2  24
TORSDOF 5
