REMARK  Name = ZINC06500484
REMARK  9 active torsions:
REMARK  status: ('A' for Active; 'I' for Inactive)
REMARK    1  A    between atoms: C_1  and  C_2
REMARK    2  A    between atoms: C_7  and  C_9
REMARK    3  A    between atoms: C_10  and  C_11
REMARK    4  A    between atoms: C_14  and  O_19
REMARK    5  A    between atoms: C_16  and  O_17
REMARK    6  A    between atoms: O_17  and  C_18
REMARK    7  A    between atoms: O_19  and  C_20
REMARK    8  A    between atoms: C_26  and  C_27
REMARK    9  A    between atoms: C_26  and  C_28
REMARK                            x       y       z     vdW  Elec       q    Type
REMARK                         _______ _______ _______ _____ _____    ______ ____
ROOT
ATOM      1  C   UNL     1      -2.216  -2.153   1.595  0.00  0.00    +0.068 C 
ATOM      2  C   UNL     1      -0.882  -1.618   2.047  0.00  0.00    +0.064 A 
ATOM      3  C   UNL     1      -0.055  -0.743   1.317  0.00  0.00    +0.001 A 
ATOM      4  C   UNL     1       1.042  -0.499   2.055  0.00  0.00    +0.052 A 
ATOM      5  N   UNL     1       0.921  -1.199   3.223  0.00  0.00    -0.200 N 
ATOM      6  N   UNL     1      -0.297  -1.887   3.183  0.00  0.00    -0.169 NA
ATOM      7  C   UNL     1       1.814  -1.221   4.232  0.00  0.00    +0.272 C 
ATOM      8  O   UNL     1       2.843  -0.577   4.148  0.00  0.00    -0.266 OA
ATOM      9  C   UNL     1       1.982   0.438   1.336  0.00  0.00    +0.060 C 
ATOM     10  C   UNL     1       1.320   0.784  -0.006  0.00  0.00    +0.009 C 
ATOM     11  C   UNL     1       0.002  -0.004   0.002  0.00  0.00    +0.033 C 
ATOM     12  C   UNL     1      -0.019   1.525   0.010  0.00  0.00    -0.024 C 
ATOM     13  C   UNL     1      -0.450   2.232  -1.276  0.00  0.00    +0.012 C 
ATOM     14  C   UNL     1      -0.425   2.219   1.312  0.00  0.00    +0.012 C 
ENDROOT
BRANCH   7  15
ATOM     15  C   UNL     1       1.555  -1.993   5.388  0.00  0.00    +0.073 C 
ATOM     16  C   UNL     1       2.452  -2.016   6.402  0.00  0.00    +0.017 C 
BRANCH  16  17
ATOM     17  C   UNL     1       2.184  -2.816   7.601  0.00  0.00    +0.017 A 
ATOM     18  C   UNL     1       1.000  -3.559   7.701  0.00  0.00    +0.015 A 
ATOM     19  C   UNL     1       0.753  -4.303   8.818  0.00  0.00    +0.046 A 
ATOM     20  C   UNL     1       1.671  -4.331   9.864  0.00  0.00    +0.124 A 
ATOM     21  C   UNL     1       2.849  -3.602   9.781  0.00  0.00    +0.091 A 
ATOM     22  C   UNL     1       3.116  -2.847   8.653  0.00  0.00    +0.131 A 
BRANCH  22  23
ATOM     23  O   UNL     1       4.268  -2.136   8.565  0.00  0.00    -0.494 OA
ATOM     24  C   UNL     1       5.166  -2.216   9.674  0.00  0.00    +0.277 C 
ENDBRANCH  22  23
BRANCH  20  25
ATOM     25  O   UNL     1       1.413  -5.075  10.969  0.00  0.00    -0.495 OA
ATOM     26  C   UNL     1       0.182  -5.801  10.990  0.00  0.00    +0.277 C 
ENDBRANCH  20  25
ENDBRANCH  16  17
ENDBRANCH   7  15
TORSDOF 4
