REMARK  Name = ZINC58647399
REMARK  5 active torsions:
REMARK  status: ('A' for Active; 'I' for Inactive)
REMARK    1  A    between atoms: C_3  and  C_6
REMARK    2  A    between atoms: C_6  and  C_8
REMARK    3  A    between atoms: C_6  and  N_18
REMARK    4  A    between atoms: N_18  and  S_19
REMARK    5  A    between atoms: S_19  and  C_22
REMARK                            x       y       z     vdW  Elec       q    Type
REMARK                         _______ _______ _______ _____ _____    ______ ____
ROOT
ATOM      1  N   UNL     1       4.587   1.010   0.851  0.00  0.00    -0.178 NA
ATOM      2  H   UNL     1       4.977   0.190   0.512  0.00  0.00    +0.149 HD
ENDROOT
BRANCH   1   3
ATOM      3  S   UNL     1       4.854   1.467   2.421  0.00  0.00    +0.059 S 
ATOM      4  O   UNL     1       5.657   0.453   3.008  0.00  0.00    -0.153 OA
ATOM      5  O   UNL     1       5.254   2.830   2.384  0.00  0.00    -0.153 OA
BRANCH   3   6
ATOM      6  C   UNL     1       3.299   1.421   3.248  0.00  0.00    +0.106 A 
ATOM      7  C   UNL     1       2.494   2.550   3.265  0.00  0.00    +0.030 A 
ATOM      8  C   UNL     1       1.272   2.533   3.908  0.00  0.00    +0.028 A 
ATOM      9  C   UNL     1       0.844   1.377   4.543  0.00  0.00    +0.056 A 
ATOM     10  C   UNL     1       1.659   0.232   4.526  0.00  0.00    +0.065 A 
ATOM     11  C   UNL     1       2.888   0.260   3.870  0.00  0.00    +0.043 A 
ATOM     12  C   UNL     1       1.174  -0.980   5.210  0.00  0.00    +0.262 A 
ATOM     13  O   UNL     1       1.840  -1.997   5.226  0.00  0.00    -0.267 OA
ATOM     14  N   UNL     1      -0.030  -0.932   5.820  0.00  0.00    -0.275 N 
ATOM     15  H   UNL     1      -0.365  -1.720   6.275  0.00  0.00    +0.173 HD
ATOM     16  C   UNL     1      -0.773   0.186   5.809  0.00  0.00    +0.327 A 
ATOM     17  O   UNL     1      -1.849   0.176   6.373  0.00  0.00    -0.247 OA
ATOM     18  N   UNL     1      -0.377   1.317   5.200  0.00  0.00    -0.307 N 
ATOM     19  H   UNL     1      -0.950   2.100   5.220  0.00  0.00    +0.170 HD
ENDBRANCH   3   6
ENDBRANCH   1   3
BRANCH   1  20
ATOM     20  C   UNL     1       3.761   1.845  -0.024  0.00  0.00    +0.143 C 
BRANCH  20  21
ATOM     21  C   UNL     1       4.303   1.790  -1.429  0.00  0.00    -0.024 A 
ATOM     22  C   UNL     1       4.761   0.594  -1.950  0.00  0.00    +0.006 A 
ATOM     23  C   UNL     1       5.259   0.552  -3.235  0.00  0.00    +0.004 A 
ATOM     24  C   UNL     1       5.303   1.702  -4.013  0.00  0.00    -0.044 A 
ATOM     25  C   UNL     1       4.843   2.892  -3.497  0.00  0.00    -0.044 A 
ATOM     26  C   UNL     1       4.340   2.932  -2.202  0.00  0.00    +0.009 A 
ATOM     27  C   UNL     1       4.845   4.174  -4.288  0.00  0.00    +0.035 C 
ATOM     28  C   UNL     1       5.790   4.066  -5.483  0.00  0.00    +0.005 C 
ATOM     29  C   UNL     1       5.450   2.785  -6.255  0.00  0.00    +0.005 C 
ATOM     30  C   UNL     1       5.866   1.586  -5.405  0.00  0.00    +0.035 C 
ENDBRANCH  20  21
BRANCH  20  33
ATOM     31  C   UNL     1      -0.016   1.351   0.009  0.00  0.00    +0.008 A 
ATOM     32  C   UNL     1       1.183   2.038   0.002  0.00  0.00    +0.013 A 
ATOM     33  C   UNL     1       2.343   1.336  -0.013  0.00  0.00    +0.013 A 
ATOM     34  S   UNL     1       1.754  -0.349  -0.017  0.00  0.00    -0.100 S 
ATOM     35  C   UNL     1       0.002  -0.004   0.002  0.00  0.00    +0.045 A 
ENDBRANCH  20  33
ENDBRANCH   1  20
TORSDOF 5
