REMARK  Name = ZINC39601368
REMARK  9 active torsions:
REMARK  status: ('A' for Active; 'I' for Inactive)
REMARK    1  A    between atoms: C_1  and  C_2
REMARK    2  A    between atoms: C_2  and  C_3
REMARK    3  A    between atoms: C_2  and  C_4
REMARK    4  A    between atoms: C_4  and  C_5
REMARK    5  A    between atoms: C_5  and  N_6
REMARK    6  A    between atoms: C_7  and  C_9
REMARK    7  A    between atoms: C_20  and  C_22
REMARK    8  A    between atoms: C_25  and  O_28
REMARK    9  A    between atoms: O_28  and  C_29
REMARK                            x       y       z     vdW  Elec       q    Type
REMARK                         _______ _______ _______ _____ _____    ______ ____
ROOT
ATOM      1  C   UNL     1       4.889  -1.526  -3.047  0.00  0.00    +0.100 C 
ATOM      2  C   UNL     1       5.008  -3.025  -3.402  0.00  0.00    +0.121 C 
ATOM      3  N   UNL     1       6.327  -3.150  -4.066  0.00  0.00    -0.296 N 
ATOM      4  C   UNL     1       7.215  -2.250  -3.291  0.00  0.00    +0.115 C 
ATOM      5  C   UNL     1       6.340  -1.021  -2.974  0.00  0.00    -0.004 C 
ATOM      6  C   UNL     1       6.649  -0.501  -1.574  0.00  0.00    -0.010 C 
ATOM      7  C   UNL     1       8.078   0.048  -1.542  0.00  0.00    -0.082 C 
ATOM      8  N   UNL     1       8.211   1.128  -2.527  0.00  0.00    +0.379 N 
ATOM      9  C   UNL     1       8.004   0.600  -3.880  0.00  0.00    -0.082 C 
ATOM     10  C   UNL     1       6.572   0.073  -4.011  0.00  0.00    -0.010 C 
ATOM     11  C   UNL     1       6.647  -3.908  -5.132  0.00  0.00    +0.248 C 
ATOM     12  O   UNL     1       5.775  -4.496  -5.744  0.00  0.00    -0.270 OA
ATOM     13  H   UNL     1       7.523   1.842  -2.337  0.00  0.00    -0.086 HD
ATOM     14  H   UNL     1       9.134   1.530  -2.462  0.00  0.00    -0.086 HD
ENDROOT
BRANCH  11  15
ATOM     15  C   UNL     1       8.055  -4.026  -5.559  0.00  0.00    +0.055 A 
ATOM     16  C   UNL     1       9.096  -3.717  -4.671  0.00  0.00    +0.020 A 
ATOM     17  C   UNL     1      10.396  -3.843  -5.116  0.00  0.00    +0.068 A 
ATOM     18  C   UNL     1      10.630  -4.268  -6.420  0.00  0.00    +0.220 A 
ATOM     19  N   UNL     1       9.626  -4.551  -7.235  0.00  0.00    -0.220 NA
ATOM     20  C   UNL     1       8.370  -4.451  -6.850  0.00  0.00    +0.127 A 
BRANCH  18  21
ATOM     21  O   UNL     1      11.905  -4.393  -6.863  0.00  0.00    -0.438 OA
BRANCH  21  22
ATOM     22  C   UNL     1      12.101  -4.901  -8.108  0.00  0.00    +0.130 A 
ATOM     23  C   UNL     1      11.927  -4.093  -9.223  0.00  0.00    +0.046 A 
ATOM     24  C   UNL     1      12.127  -4.612 -10.488  0.00  0.00    +0.004 A 
ATOM     25  C   UNL     1      12.500  -5.935 -10.643  0.00  0.00    +0.000 A 
ATOM     26  C   UNL     1      12.673  -6.741  -9.533  0.00  0.00    +0.004 A 
ATOM     27  C   UNL     1      12.480  -6.226  -8.266  0.00  0.00    +0.046 A 
ENDBRANCH  21  22
ENDBRANCH  18  21
ENDBRANCH  11  15
BRANCH   1  29
ATOM     28  N   UNL     1       3.491  -0.240  -1.462  0.00  0.00    -0.315 N 
ATOM     29  C   UNL     1       4.206  -1.354  -1.715  0.00  0.00    +0.218 C 
ATOM     30  O   UNL     1       4.300  -2.219  -0.870  0.00  0.00    -0.275 OA
ATOM     31  H   UNL     1       3.416   0.452  -2.138  0.00  0.00    +0.149 HD
BRANCH  28  32
ATOM     32  C   UNL     1       2.828  -0.074  -0.167  0.00  0.00    +0.104 C 
BRANCH  32  33
ATOM     33  C   UNL     1       2.091   1.267  -0.140  0.00  0.00    +0.022 C 
BRANCH  33  35
ATOM     34  C   UNL     1       2.452   1.537   2.317  0.00  0.00    +0.007 C 
ATOM     35  C   UNL     1       1.397   1.441   1.213  0.00  0.00    -0.016 C 
ATOM     36  C   UNL     1       0.559   2.720   1.195  0.00  0.00    +0.007 C 
ENDBRANCH  33  35
ENDBRANCH  32  33
ENDBRANCH  28  32
ENDBRANCH   1  29
TORSDOF 7
