REMARK  Name = ZINC34830171
REMARK  13 active torsions:
REMARK  status: ('A' for Active; 'I' for Inactive)
REMARK    1  A    between atoms: C_1  and  C_2
REMARK    2  A    between atoms: C_2  and  C_3
REMARK    3  A    between atoms: C_3  and  C_4
REMARK    4  A    between atoms: C_4  and  C_5
REMARK    5  A    between atoms: C_5  and  C_7
REMARK    6  A    between atoms: C_5  and  C_9
REMARK    7  A    between atoms: C_7  and  C_8
REMARK    8  A    between atoms: C_16  and  C_18
REMARK    9  A    between atoms: C_19  and  C_21
REMARK   10  A    between atoms: C_21  and  C_22
REMARK   11  A    between atoms: C_22  and  N_23
REMARK   12  A    between atoms: C_31  and  C_33
REMARK   13  A    between atoms: C_36  and  C_39
REMARK                            x       y       z     vdW  Elec       q    Type
REMARK                         _______ _______ _______ _____ _____    ______ ____
ROOT
ATOM      1  C   UNL     1      -7.947  -6.607   2.471  0.00  0.00    +0.077 C 
ENDROOT
BRANCH   1  11
ATOM      2  C   UNL     1      -2.621  -4.116   0.608  0.00  0.00    +0.219 C 
ATOM      3  O   UNL     1      -1.544  -4.602   0.336  0.00  0.00    -0.275 OA
ATOM      4  N   UNL     1      -3.707  -4.906   0.721  0.00  0.00    -0.295 N 
ATOM      5  C   UNL     1      -5.034  -4.323   0.966  0.00  0.00    +0.127 C 
ATOM      6  C   UNL     1      -5.628  -4.969   2.224  0.00  0.00    +0.127 C 
ATOM      7  N   UNL     1      -5.507  -6.428   2.106  0.00  0.00    -0.298 N 
ATOM      8  C   UNL     1      -4.180  -7.011   1.861  0.00  0.00    +0.130 C 
ATOM      9  C   UNL     1      -3.587  -6.366   0.597  0.00  0.00    +0.090 C 
ATOM     10  C   UNL     1      -2.111  -6.750   0.466  0.00  0.00    +0.029 C 
ATOM     11  C   UNL     1      -6.593  -7.218   2.219  0.00  0.00    +0.214 C 
ATOM     12  O   UNL     1      -6.480  -8.422   2.119  0.00  0.00    -0.276 OA
BRANCH   2  13
ATOM     13  C   UNL     1      -2.746  -2.629   0.817  0.00  0.00    +0.075 C 
BRANCH  13  14
ATOM     14  C   UNL     1      -3.109  -2.349   2.277  0.00  0.00    +0.009 C 
ATOM     15  C   UNL     1      -2.021  -2.918   3.191  0.00  0.00    +0.004 C 
ENDBRANCH  13  14
BRANCH  13  16
ATOM     16  C   UNL     1      -1.414  -1.953   0.484  0.00  0.00    +0.013 C 
BRANCH  16  17
ATOM     17  C   UNL     1      -1.583  -0.434   0.549  0.00  0.00    +0.000 C 
BRANCH  17  19
ATOM     18  C   UNL     1      -0.401   1.759   0.362  0.00  0.00    +0.004 C 
ATOM     19  C   UNL     1      -0.233   0.240   0.297  0.00  0.00    -0.003 C 
ENDBRANCH  17  19
ENDBRANCH  16  17
ENDBRANCH  13  16
ENDBRANCH   2  13
ENDBRANCH   1  11
BRANCH   1  20
ATOM     20  C   UNL     1      -8.998  -7.714   2.558  0.00  0.00    -0.068 C 
BRANCH  20  21
ATOM     21  N   UNL     1     -10.318  -7.118   2.803  0.00  0.00    +0.388 N 
ATOM     22  C   UNL     1     -10.689  -6.277   1.657  0.00  0.00    -0.072 C 
ATOM     23  C   UNL     1     -11.893  -5.403   2.050  0.00  0.00    +0.024 C 
ATOM     24  C   UNL     1     -12.898  -6.292   2.709  0.00  0.00    -0.010 A 
ATOM     25  C   UNL     1     -12.685  -7.561   3.156  0.00  0.00    -0.047 A 
ATOM     26  C   UNL     1     -13.774  -8.207   3.736  0.00  0.00    +0.010 A 
ATOM     27  C   UNL     1     -14.964  -7.570   3.834  0.00  0.00    +0.045 A 
ATOM     28  S   UNL     1     -14.598  -5.986   3.093  0.00  0.00    -0.101 S 
ATOM     29  C   UNL     1     -11.302  -8.188   3.004  0.00  0.00    -0.006 C 
ATOM     30  H   UNL     1     -10.275  -6.546   3.633  0.00  0.00    -0.080 HD
BRANCH  29  31
ATOM     31  C   UNL     1     -10.959  -8.962   4.251  0.00  0.00    -0.057 A 
ATOM     32  C   UNL     1     -10.515  -8.296   5.378  0.00  0.00    +0.002 A 
ATOM     33  C   UNL     1     -10.200  -9.006   6.521  0.00  0.00    +0.003 A 
ATOM     34  C   UNL     1     -10.329 -10.382   6.538  0.00  0.00    -0.050 A 
ATOM     35  C   UNL     1     -10.774 -11.048   5.411  0.00  0.00    +0.003 A 
ATOM     36  C   UNL     1     -11.093 -10.338   4.269  0.00  0.00    +0.002 A 
ATOM     37  C   UNL     1      -9.985 -11.156   7.784  0.00  0.00    +0.044 C 
ENDBRANCH  29  31
ENDBRANCH  20  21
ENDBRANCH   1  20
TORSDOF 9
