REMARK  Name = ZINC58050467
REMARK  8 active torsions:
REMARK  status: ('A' for Active; 'I' for Inactive)
REMARK    1  A    between atoms: C_1  and  C_2
REMARK    2  A    between atoms: C_5  and  C_8
REMARK    3  A    between atoms: C_8  and  C_9
REMARK    4  A    between atoms: CA_11  and  C_19
REMARK    5  A    between atoms: C_13  and  N_15
REMARK    6  A    between atoms: N_15  and  C_16
REMARK    7  A    between atoms: C_16  and  C_17
REMARK    8  A    between atoms: C_16  and  C_18
REMARK                            x       y       z     vdW  Elec       q    Type
REMARK                         _______ _______ _______ _____ _____    ______ ____
ROOT
ATOM      1  C   UNL     1       1.487  -4.759  -0.032  0.00  0.00    +0.136 A 
ATOM      2  N   UNL     1       2.086  -4.952  -1.187  0.00  0.00    -0.225 NA
ATOM      3  CA  UNL     1       3.348  -5.380  -1.242  0.00  0.00    +0.157 A 
ATOM      4  C   UNL     1       4.029  -5.621  -0.053  0.00  0.00    +0.078 A 
ATOM      5  C   UNL     1       3.353  -5.402   1.153  0.00  0.00    +0.123 A 
ATOM      6  N   UNL     1       2.098  -4.971   1.117  0.00  0.00    -0.217 NA
ENDROOT
BRANCH   3   7
ATOM      7  C   UNL     1       4.014  -5.595  -2.549  0.00  0.00    +0.405 C 
ATOM      8  O   UNL     1       3.406  -5.381  -3.587  0.00  0.00    -0.239 OA
ATOM      9  OXT UNL     1       5.170  -5.987  -2.588  0.00  0.00    -0.239 OA
ENDBRANCH   3   7
BRANCH   5  10
ATOM     10  N   UNL     1       3.986  -5.628   2.364  0.00  0.00    -0.327 N 
ATOM     11  H   UNL     1       3.510  -5.473   3.195  0.00  0.00    +0.148 HD
BRANCH  10  12
ATOM     12  C   UNL     1       5.372  -6.099   2.390  0.00  0.00    +0.066 C 
ATOM     13  C   UNL     1       6.026  -5.688   3.711  0.00  0.00    +0.027 C 
ATOM     14  C   UNL     1       5.396  -7.623   2.262  0.00  0.00    +0.027 C 
ENDBRANCH  10  12
ENDBRANCH   5  10
BRANCH   1  15
ATOM     15  C   UNL     1       0.059  -4.275  -0.021  0.00  0.00    +0.111 C 
BRANCH  15  20
ATOM     16  C   UNL     1      -0.018   1.503   0.010  0.00  0.00    +0.044 C 
ATOM     17  C   UNL     1       0.002  -0.004   0.002  0.00  0.00    -0.050 A 
ATOM     18  C   UNL     1       0.006  -0.689  -1.199  0.00  0.00    +0.003 A 
ATOM     19  C   UNL     1       0.025  -2.071  -1.206  0.00  0.00    +0.004 A 
ATOM     20  C   UNL     1       0.040  -2.768  -0.013  0.00  0.00    -0.040 A 
ATOM     21  C   UNL     1       0.037  -2.084   1.188  0.00  0.00    +0.004 A 
ATOM     22  C   UNL     1       0.023  -0.702   1.195  0.00  0.00    +0.003 A 
ENDBRANCH  15  20
ENDBRANCH   1  15
TORSDOF 5
