REMARK  Name = ZINC13063923
REMARK  14 active torsions:
REMARK  status: ('A' for Active; 'I' for Inactive)
REMARK    1  A    between atoms: C_1  and  C_2
REMARK    2  A    between atoms: C_2  and  C_3
REMARK    3  A    between atoms: C_3  and  C_5
REMARK    4  A    between atoms: C_3  and  N_73
REMARK    5  A    between atoms: N_9  and  C_10
REMARK    6  A    between atoms: C_10  and  C_11
REMARK    7  A    between atoms: C_14  and  O_17
REMARK    8  A    between atoms: O_17  and  C_18
REMARK    9  A    between atoms: C_19  and  C_20
REMARK   10  A    between atoms: C_19  and  N_73
REMARK   11  A    between atoms: C_23  and  C_26
REMARK   12  A    between atoms: C_27  and  C_28
REMARK   13  A    between atoms: C_27  and  N_73
REMARK   14  A    between atoms: C_33  and  C_40
REMARK                            x       y       z     vdW  Elec       q    Type
REMARK                         _______ _______ _______ _____ _____    ______ ____
ROOT
ATOM      1  N   UNL     1       0.862   4.146  -1.166  0.00  0.00    +0.392 N 
ATOM      2  H   UNL     1      -0.044   4.577  -0.948  0.00  0.00    -0.080 HD
ENDROOT
BRANCH   1   3
ATOM      3  C   UNL     1       1.108   3.039  -0.218  0.00  0.00    +0.003 C 
BRANCH   3   4
ATOM      4  C   UNL     1       0.138   1.921  -0.503  0.00  0.00    +0.138 A 
ATOM      5  N   UNL     1      -1.144   2.040  -0.748  0.00  0.00    -0.115 NA
ATOM      6  N   UNL     1      -1.623   0.860  -0.943  0.00  0.00    -0.023 NA
ATOM      7  N   UNL     1      -0.680  -0.009  -0.828  0.00  0.00    -0.044 NA
ATOM      8  N   UNL     1       0.421   0.606  -0.557  0.00  0.00    -0.226 N 
BRANCH   8   9
ATOM      9  C   UNL     1       1.734  -0.011  -0.349  0.00  0.00    +0.182 C 
BRANCH   9  10
ATOM     10  C   UNL     1       2.459  -0.106  -1.666  0.00  0.00    -0.026 A 
ATOM     11  C   UNL     1       2.317  -1.234  -2.453  0.00  0.00    +0.009 A 
ATOM     12  C   UNL     1       2.976  -1.321  -3.663  0.00  0.00    +0.046 A 
ATOM     13  C   UNL     1       3.791  -0.280  -4.085  0.00  0.00    +0.120 A 
ATOM     14  C   UNL     1       3.937   0.849  -3.291  0.00  0.00    +0.046 A 
ATOM     15  C   UNL     1       3.271   0.933  -2.084  0.00  0.00    +0.009 A 
BRANCH  13  16
ATOM     16  O   UNL     1       4.445  -0.365  -5.273  0.00  0.00    -0.495 OA
ATOM     17  C   UNL     1       4.248  -1.557  -6.038  0.00  0.00    +0.277 C 
ENDBRANCH  13  16
ENDBRANCH   9  10
ENDBRANCH   8   9
ENDBRANCH   3   4
BRANCH   3  19
ATOM     18  C   UNL     1       1.249   2.451   2.206  0.00  0.00    +0.002 C 
ATOM     19  C   UNL     1       0.889   3.552   1.207  0.00  0.00    -0.011 C 
ENDBRANCH   3  19
ENDBRANCH   1   3
BRANCH   1  20
ATOM     20  C   UNL     1       0.825   3.627  -2.550  0.00  0.00    -0.042 C 
BRANCH  20  21
ATOM     21  C   UNL     1       0.152   4.648  -3.431  0.00  0.00    -0.064 A 
ATOM     22  C   UNL     1      -1.228   4.698  -3.501  0.00  0.00    +0.002 A 
ATOM     23  C   UNL     1      -1.845   5.637  -4.306  0.00  0.00    +0.003 A 
ATOM     24  C   UNL     1      -1.083   6.520  -5.048  0.00  0.00    -0.050 A 
ATOM     25  C   UNL     1       0.297   6.467  -4.981  0.00  0.00    +0.003 A 
ATOM     26  C   UNL     1       0.914   5.531  -4.173  0.00  0.00    +0.002 A 
ATOM     27  C   UNL     1      -1.756   7.541  -5.928  0.00  0.00    +0.044 C 
ENDBRANCH  20  21
ENDBRANCH   1  20
BRANCH   1  28
ATOM     28  C   UNL     1       1.923   5.167  -1.037  0.00  0.00    -0.036 C 
BRANCH  28  29
ATOM     29  C   UNL     1       3.279   4.551  -1.265  0.00  0.00    +0.001 A 
ATOM     30  C   UNL     1       3.836   4.582  -2.501  0.00  0.00    +0.017 A 
ATOM     31  C   UNL     1       5.155   3.974  -2.690  0.00  0.00    -0.001 A 
ATOM     32  C   UNL     1       5.780   3.976  -3.941  0.00  0.00    +0.010 A 
ATOM     33  C   UNL     1       7.011   3.401  -4.084  0.00  0.00    +0.004 A 
ATOM     34  C   UNL     1       7.647   2.815  -2.998  0.00  0.00    -0.048 A 
ATOM     35  C   UNL     1       7.051   2.803  -1.756  0.00  0.00    +0.029 A 
ATOM     36  C   UNL     1       5.797   3.382  -1.586  0.00  0.00    +0.049 A 
ATOM     37  N   UNL     1       5.177   3.384  -0.355  0.00  0.00    -0.322 N 
ATOM     38  H   UNL     1       5.621   2.975   0.404  0.00  0.00    +0.169 HD
ATOM     39  C   UNL     1       3.968   3.949  -0.191  0.00  0.00    +0.251 A 
ATOM     40  O   UNL     1       3.451   3.936   0.913  0.00  0.00    -0.268 OA
ATOM     41  C   UNL     1       9.005   2.187  -3.179  0.00  0.00    +0.044 C 
ENDBRANCH  28  29
ENDBRANCH   1  28
TORSDOF 10
