REMARK  Name = ZINC21532353
REMARK  4 active torsions:
REMARK  status: ('A' for Active; 'I' for Inactive)
REMARK    1  A    between atoms: C_6  and  S_7
REMARK    2  A    between atoms: S_7  and  N_10
REMARK    3  A    between atoms: C_14  and  C_17
REMARK    4  A    between atoms: N_19  and  C_20
REMARK                            x       y       z     vdW  Elec       q    Type
REMARK                         _______ _______ _______ _____ _____    ______ ____
ROOT
ATOM      1  N   UNL     1      -0.706   1.562   1.213  0.00  0.00    -0.176 NA
ATOM      2  C   UNL     1      -0.975   3.001   1.350  0.00  0.00    +0.109 C 
ATOM      3  C   UNL     1      -1.711   3.490   0.099  0.00  0.00    +0.018 C 
ATOM      4  C   UNL     1      -0.898   3.118  -1.144  0.00  0.00    +0.015 C 
ATOM      5  C   UNL     1      -0.759   1.596  -1.228  0.00  0.00    +0.091 C 
ATOM      6  C   UNL     1      -0.013   1.086   0.008  0.00  0.00    +0.122 C 
ENDROOT
BRANCH   5   7
ATOM      7  C   UNL     1       0.013   1.230  -2.469  0.00  0.00    +0.218 C 
ATOM      8  O   UNL     1       1.058   0.621  -2.376  0.00  0.00    -0.275 OA
ATOM      9  N   UNL     1      -0.456   1.579  -3.683  0.00  0.00    -0.312 N 
ATOM     10  H   UNL     1      -1.404   2.131  -3.768  0.00  0.00    +0.149 HD
BRANCH   9  11
ATOM     11  C   UNL     1       0.295   1.222  -4.890  0.00  0.00    +0.073 C 
ATOM     12  C   UNL     1       1.388   2.284  -5.129  0.00  0.00    +0.022 C 
ATOM     13  C   UNL     1       2.450   1.684  -6.012  0.00  0.00    +0.002 C 
ATOM     14  C   UNL     1       2.222   2.000  -7.502  0.00  0.00    +0.000 C 
ATOM     15  C   UNL     1       0.743   1.883  -7.918  0.00  0.00    +0.000 C 
ATOM     16  C   UNL     1       0.068   0.683  -7.312  0.00  0.00    +0.002 C 
ATOM     17  C   UNL     1      -0.631   1.121  -6.008  0.00  0.00    +0.022 C 
ENDBRANCH   9  11
ENDBRANCH   5   7
BRANCH   1  18
ATOM     18  S   UNL     1      -1.179   0.499   2.390  0.00  0.00    +0.061 S 
ATOM     19  O   UNL     1      -2.252   1.116   3.088  0.00  0.00    -0.153 OA
ATOM     20  O   UNL     1      -1.308  -0.770   1.764  0.00  0.00    -0.153 OA
BRANCH  18  26
ATOM     21  C   UNL     1       1.131  -0.600   3.356  0.00  0.00    +0.030 A 
ATOM     22  C   UNL     1       2.168  -0.687   4.252  0.00  0.00    +0.025 A 
ATOM     23  C   UNL     1       2.257   0.176   5.358  0.00  0.00    +0.037 A 
ATOM     24  C   UNL     1       1.272   1.123   5.539  0.00  0.00    -0.024 A 
ATOM     25  C   UNL     1       0.228   1.208   4.618  0.00  0.00    +0.034 A 
ATOM     26  C   UNL     1       0.154   0.362   3.535  0.00  0.00    +0.106 A 
ATOM     27  C   UNL     1       1.209   2.092   6.675  0.00  0.00    +0.037 C 
ATOM     28  C   UNL     1       1.690   1.579   7.996  0.00  0.00    +0.014 C 
ATOM     29  C   UNL     1       3.194   1.531   8.111  0.00  0.00    +0.096 C 
ATOM     30  C   UNL     1       3.777   0.424   7.309  0.00  0.00    +0.217 C 
ATOM     31  O   UNL     1       4.747  -0.132   7.780  0.00  0.00    -0.275 OA
ATOM     32  N   UNL     1       3.361  -0.017   6.156  0.00  0.00    -0.285 N 
ATOM     33  H   UNL     1       4.161  -0.699   5.832  0.00  0.00    +0.155 HD
ENDBRANCH  18  26
ENDBRANCH   1  18
TORSDOF 4
