REMARK  Name = ZINC23148882
REMARK  8 active torsions:
REMARK  status: ('A' for Active; 'I' for Inactive)
REMARK    1  A    between atoms: C_1  and  C_2
REMARK    2  A    between atoms: C_15  and  C_17
REMARK    3  A    between atoms: C_17  and  N_18
REMARK    4  A    between atoms: N_18  and  C_19
REMARK    5  A    between atoms: N_18  and  S_20
REMARK    6  A    between atoms: S_20  and  C_23
REMARK    7  A    between atoms: C_25  and  S_30
REMARK    8  A    between atoms: S_30  and  C_33
REMARK                            x       y       z     vdW  Elec       q    Type
REMARK                         _______ _______ _______ _____ _____    ______ ____
ROOT
ATOM      1  C   UNL     1       4.460   0.271  -1.688  0.00  0.00    +0.205 C 
ENDROOT
BRANCH   1  15
ATOM      2  C   UNL     1       1.804   3.925  -0.667  0.00  0.00    +0.029 C 
ATOM      3  C   UNL     1       1.691   2.469  -0.209  0.00  0.00    +0.087 C 
ATOM      4  C   UNL     1       0.222   2.044  -0.224  0.00  0.00    +0.118 C 
ATOM      5  C   UNL     1       0.116   0.543  -0.168  0.00  0.00    +0.219 C 
ATOM      6  O   UNL     1      -0.214   0.002   0.867  0.00  0.00    -0.275 OA
ATOM      7  N   UNL     1       0.385  -0.206  -1.260  0.00  0.00    -0.284 N 
ATOM      8  C   UNL     1       0.853   0.394  -2.436  0.00  0.00    +0.055 A 
ATOM      9  C   UNL     1       0.276   0.105  -3.661  0.00  0.00    +0.025 A 
ATOM     10  C   UNL     1       0.773   0.691  -4.810  0.00  0.00    +0.002 A 
ATOM     11  C   UNL     1       1.845   1.561  -4.740  0.00  0.00    +0.002 A 
ATOM     12  C   UNL     1       2.421   1.862  -3.519  0.00  0.00    +0.025 A 
ATOM     13  C   UNL     1       1.920   1.289  -2.361  0.00  0.00    +0.058 A 
ATOM     14  N   UNL     1       2.464   1.614  -1.111  0.00  0.00    -0.265 N 
ATOM     15  C   UNL     1       3.676   1.149  -0.748  0.00  0.00    +0.236 C 
ATOM     16  O   UNL     1       4.135   1.438   0.337  0.00  0.00    -0.274 OA
ATOM     17  H   UNL     1       0.237  -1.295  -1.230  0.00  0.00    +0.155 HD
ENDBRANCH   1  15
BRANCH   1  18
ATOM     18  N   UNL     1       5.732  -0.099  -1.065  0.00  0.00    -0.171 NA
ATOM     19  C   UNL     1       6.888   0.795  -1.172  0.00  0.00    +0.132 C 
BRANCH  18  20
ATOM     20  S   UNL     1       5.865  -1.528  -0.239  0.00  0.00    +0.062 S 
ATOM     21  O   UNL     1       6.855  -1.329   0.761  0.00  0.00    -0.153 OA
ATOM     22  O   UNL     1       4.542  -1.944   0.070  0.00  0.00    -0.153 OA
BRANCH  20  23
ATOM     23  C   UNL     1       6.518  -2.720  -1.361  0.00  0.00    +0.125 A 
ATOM     24  C   UNL     1       6.532  -2.456  -2.718  0.00  0.00    +0.057 A 
ATOM     25  C   UNL     1       7.048  -3.389  -3.598  0.00  0.00    +0.090 A 
ATOM     26  C   UNL     1       7.540  -4.590  -3.123  0.00  0.00    +0.028 A 
ATOM     27  C   UNL     1       7.522  -4.857  -1.768  0.00  0.00    +0.024 A 
ATOM     28  C   UNL     1       7.010  -3.922  -0.885  0.00  0.00    +0.067 A 
ATOM     29 CL   UNL     1       6.986  -4.256   0.818  0.00  0.00    -0.082 Cl
BRANCH  25  30
ATOM     30  S   UNL     1       7.073  -3.049  -5.327  0.00  0.00    -0.006 S 
ATOM     31  O   UNL     1       7.108  -1.631  -5.417  0.00  0.00    -0.170 OA
ATOM     32  O   UNL     1       8.143  -3.833  -5.836  0.00  0.00    -0.170 OA
ATOM     33  C   UNL     1       5.488  -3.675  -5.948  0.00  0.00    +0.200 C 
ENDBRANCH  25  30
ENDBRANCH  20  23
ENDBRANCH  18  20
ENDBRANCH   1  18
TORSDOF 5
