REMARK  Name = ZINC08195480
REMARK  8 active torsions:
REMARK  status: ('A' for Active; 'I' for Inactive)
REMARK    1  A    between atoms: C_1  and  C_2
REMARK    2  A    between atoms: C_5  and  N_8
REMARK    3  A    between atoms: N_8  and  C_9
REMARK    4  A    between atoms: C_14  and  N_15
REMARK    5  A    between atoms: N_15  and  S_16
REMARK    6  A    between atoms: S_16  and  C_19
REMARK    7  A    between atoms: C_20  and  C_26
REMARK    8  A    between atoms: C_24  and  C_25
REMARK                            x       y       z     vdW  Elec       q    Type
REMARK                         _______ _______ _______ _____ _____    ______ ____
ROOT
ATOM      1  C   UNL     1       2.429   4.231   0.254  0.00  0.00    +0.054 A 
ATOM      2  C   UNL     1       3.660   3.596   0.309  0.00  0.00    +0.025 A 
ATOM      3  C   UNL     1       4.821   4.343   0.384  0.00  0.00    +0.002 A 
ATOM      4  C   UNL     1       4.758   5.724   0.414  0.00  0.00    +0.002 A 
ATOM      5  C   UNL     1       3.535   6.366   0.365  0.00  0.00    +0.026 A 
ATOM      6  C   UNL     1       2.366   5.625   0.284  0.00  0.00    +0.069 A 
ENDROOT
BRANCH   1   7
ATOM      7  N   UNL     1       1.252   3.477   0.174  0.00  0.00    -0.313 N 
ATOM      8  H   UNL     1       0.389   3.915   0.243  0.00  0.00    +0.152 HD
BRANCH   7  13
ATOM      9  C   UNL     1       1.529  -2.140  -0.557  0.00  0.00    +0.044 C 
ATOM     10  C   UNL     1       1.455  -0.647  -0.363  0.00  0.00    -0.050 A 
ATOM     11  C   UNL     1       0.560  -0.113   0.545  0.00  0.00    +0.005 A 
ATOM     12  C   UNL     1       0.490   1.254   0.726  0.00  0.00    +0.023 A 
ATOM     13  C   UNL     1       1.320   2.094  -0.006  0.00  0.00    +0.031 A 
ATOM     14  C   UNL     1       2.219   1.553  -0.918  0.00  0.00    +0.023 A 
ATOM     15  C   UNL     1       2.283   0.185  -1.094  0.00  0.00    +0.005 A 
ENDBRANCH   7  13
ENDBRANCH   1   7
BRANCH   6  16
ATOM     16  N   UNL     1       1.126   6.272   0.235  0.00  0.00    -0.214 N 
ATOM     17  H   UNL     1       0.356   5.881   0.677  0.00  0.00    +0.174 HD
BRANCH  16  18
ATOM     18  S   UNL     1       0.973   7.707  -0.579  0.00  0.00    +0.076 S 
ATOM     19  O   UNL     1      -0.397   8.076  -0.497  0.00  0.00    -0.150 OA
ATOM     20  O   UNL     1       2.019   8.550  -0.115  0.00  0.00    -0.150 OA
BRANCH  18  21
ATOM     21  C   UNL     1       1.306   7.380  -2.278  0.00  0.00    +0.151 A 
ATOM     22  C   UNL     1       0.395   7.024  -3.213  0.00  0.00    +0.060 A 
ATOM     23  N   UNL     1       1.047   6.867  -4.384  0.00  0.00    -0.280 N 
ATOM     24  H   UNL     1       0.635   6.606  -5.257  0.00  0.00    +0.189 HD
ATOM     25  N   UNL     1       2.404   7.135  -4.161  0.00  0.00    -0.177 NA
ATOM     26  C   UNL     1       2.557   7.448  -2.900  0.00  0.00    +0.087 A 
ATOM     27  C   UNL     1       3.857   7.815  -2.231  0.00  0.00    +0.069 C 
ATOM     28  C   UNL     1      -1.083   6.837  -2.988  0.00  0.00    +0.067 C 
ENDBRANCH  18  21
ENDBRANCH  16  18
ENDBRANCH   6  16
TORSDOF 5
