REMARK  Name = ZINC58862091
REMARK  10 active torsions:
REMARK  status: ('A' for Active; 'I' for Inactive)
REMARK    1  A    between atoms: C_1  and  C_2
REMARK    2  A    between atoms: C_7  and  N_8
REMARK    3  A    between atoms: N_11  and  N_12
REMARK    4  A    between atoms: C_13  and  C_15
REMARK    5  A    between atoms: C_17  and  C_27
REMARK    6  A    between atoms: N_23  and  C_24
REMARK    7  A    between atoms: C_24  and  C_25
REMARK    8  A    between atoms: C_24  and  C_26
REMARK    9  A    between atoms: C_27  and  C_28
REMARK   10  A    between atoms: C_27  and  C_29
REMARK                            x       y       z     vdW  Elec       q    Type
REMARK                         _______ _______ _______ _____ _____    ______ ____
ROOT
ATOM      1  N   UNL     1      -0.173   1.375   4.750  0.00  0.00    -0.229 N 
ATOM      2  C   UNL     1      -0.272   2.043   5.917  0.00  0.00    +0.261 C 
ATOM      3  O   UNL     1      -0.346   1.430   6.964  0.00  0.00    -0.269 OA
ATOM      4  H   UNL     1      -0.115   1.864   3.915  0.00  0.00    +0.173 HD
ENDROOT
BRANCH   2   5
ATOM      5  C   UNL     1      -0.292   3.521   5.923  0.00  0.00    +0.052 A 
ATOM      6  C   UNL     1      -0.215   4.247   4.735  0.00  0.00    +0.037 A 
ATOM      7  C   UNL     1      -0.236   5.632   4.783  0.00  0.00    +0.047 A 
ATOM      8  N   UNL     1      -0.327   6.283   5.921  0.00  0.00    -0.232 NA
ATOM      9  C   UNL     1      -0.404   5.653   7.085  0.00  0.00    +0.159 A 
ATOM     10  C   UNL     1      -0.395   4.244   7.131  0.00  0.00    +0.051 A 
ATOM     11  C   UNL     1      -0.495   3.872   8.489  0.00  0.00    +0.145 A 
ATOM     12  N   UNL     1      -0.566   4.954   9.211  0.00  0.00    -0.177 NA
ATOM     13  N   UNL     1      -0.503   6.081   8.383  0.00  0.00    -0.244 N 
BRANCH  13  14
ATOM     14  C   UNL     1      -0.553   7.476   8.827  0.00  0.00    +0.103 C 
ATOM     15  C   UNL     1      -1.864   7.727   9.576  0.00  0.00    +0.032 C 
ATOM     16  C   UNL     1       0.628   7.759   9.757  0.00  0.00    +0.032 C 
ENDBRANCH  13  14
BRANCH   7  17
ATOM     17  C   UNL     1      -0.152   6.412   3.496  0.00  0.00    +0.032 C 
ATOM     18  C   UNL     1       1.316   6.587   3.100  0.00  0.00    +0.014 C 
ATOM     19  C   UNL     1      -0.891   5.655   2.391  0.00  0.00    +0.014 C 
ENDBRANCH   7  17
ENDBRANCH   2   5
BRANCH   1  23
ATOM     20  N   UNL     1       0.026  -0.015   2.417  0.00  0.00    -0.268 N 
ATOM     21  C   UNL     1      -0.056  -0.694   3.578  0.00  0.00    +0.320 C 
ATOM     22  O   UNL     1      -0.040  -1.910   3.573  0.00  0.00    -0.251 OA
ATOM     23  N   UNL     1      -0.155  -0.026   4.745  0.00  0.00    -0.218 N 
ATOM     24  H   UNL     1       0.079   0.954   2.425  0.00  0.00    +0.156 HD
ATOM     25  H   UNL     1      -0.214  -0.515   5.580  0.00  0.00    +0.174 HD
BRANCH  20  32
ATOM     26  C   UNL     1      -1.265   1.184   0.182  0.00  0.00    +0.045 C 
ATOM     27  C   UNL     1      -0.585  -0.158   0.085  0.00  0.00    -0.029 A 
ATOM     28  C   UNL     1      -0.570  -0.840  -1.116  0.00  0.00    +0.005 A 
ATOM     29  C   UNL     1       0.054  -2.070  -1.206  0.00  0.00    +0.000 A 
ATOM     30  C   UNL     1       0.665  -2.622  -0.095  0.00  0.00    +0.002 A 
ATOM     31  C   UNL     1       0.654  -1.945   1.108  0.00  0.00    +0.023 A 
ATOM     32  C   UNL     1       0.033  -0.706   1.200  0.00  0.00    +0.038 A 
ENDBRANCH  20  32
ENDBRANCH   1  23
TORSDOF 5
