REMARK  Name = ZINC42953685
REMARK  9 active torsions:
REMARK  status: ('A' for Active; 'I' for Inactive)
REMARK    1  A    between atoms: C_1  and  C_2
REMARK    2  A    between atoms: C_2  and  C_3
REMARK    3  A    between atoms: C_6  and  C_9
REMARK    4  A    between atoms: C_9  and  N_10
REMARK    5  A    between atoms: N_10  and  C_11
REMARK    6  A    between atoms: N_10  and  C_12
REMARK    7  A    between atoms: C_12  and  C_14
REMARK    8  A    between atoms: C_12  and  C_16
REMARK    9  A    between atoms: C_14  and  N_15
REMARK                            x       y       z     vdW  Elec       q    Type
REMARK                         _______ _______ _______ _____ _____    ______ ____
ROOT
ATOM      1  C   UNL     1      -7.749  -1.325  -0.002  0.00  0.00    -0.056 C 
ENDROOT
BRANCH   1   2
ATOM      2  C   UNL     1      -8.032  -2.291  -1.124  0.00  0.00    -0.063 A 
ATOM      3  C   UNL     1      -7.503  -2.064  -2.381  0.00  0.00    +0.003 A 
ATOM      4  C   UNL     1      -7.762  -2.950  -3.410  0.00  0.00    +0.015 A 
ATOM      5  C   UNL     1      -8.550  -4.063  -3.182  0.00  0.00    +0.018 A 
ATOM      6  C   UNL     1      -9.079  -4.290  -1.924  0.00  0.00    +0.015 A 
ATOM      7  C   UNL     1      -8.815  -3.406  -0.894  0.00  0.00    +0.003 A 
ATOM      8 BR   UNL     1      -8.905  -5.275  -4.589  0.00  0.00    -0.050 Br
ENDBRANCH   1   2
BRANCH   1   9
ATOM      9  N   UNL     1      -6.351  -0.881  -0.079  0.00  0.00    +0.384 N 
ATOM     10  C   UNL     1      -6.075   0.062   1.013  0.00  0.00    -0.095 C 
ATOM     11  H   UNL     1      -6.191  -0.425  -0.965  0.00  0.00    -0.081 HD
BRANCH   9  12
ATOM     12  C   UNL     1      -5.460  -2.043   0.041  0.00  0.00    -0.043 C 
BRANCH  12  16
ATOM     13  C   UNL     1      -1.413  -0.804  -0.530  0.00  0.00    -0.048 A 
ATOM     14  C   UNL     1      -1.964  -0.802   0.738  0.00  0.00    +0.004 A 
ATOM     15  C   UNL     1      -3.274  -1.203   0.922  0.00  0.00    +0.002 A 
ATOM     16  C   UNL     1      -4.033  -1.605  -0.161  0.00  0.00    -0.064 A 
ATOM     17  C   UNL     1      -3.482  -1.606  -1.429  0.00  0.00    +0.002 A 
ATOM     18  C   UNL     1      -2.173  -1.202  -1.614  0.00  0.00    +0.004 A 
BRANCH  13  20
ATOM     19  C   UNL     1       0.056   1.141  -0.988  0.00  0.00    +0.009 C 
ATOM     20  C   UNL     1       0.016  -0.367  -0.732  0.00  0.00    +0.032 C 
ENDBRANCH  13  20
ENDBRANCH  12  16
ENDBRANCH   9  12
ENDBRANCH   1   9
BRANCH   1  21
ATOM     21  C   UNL     1      -8.676  -0.114  -0.126  0.00  0.00    -0.098 C 
BRANCH  21  22
ATOM     22  N   UNL     1     -10.070  -0.545   0.047  0.00  0.00    +0.377 N 
ATOM     23  H   UNL     1     -10.162  -1.044   0.920  0.00  0.00    -0.090 HD
ATOM     24  H   UNL     1     -10.673   0.263   0.056  0.00  0.00    -0.090 HD
ATOM     25  H   UNL     1     -10.332  -1.152  -0.716  0.00  0.00    -0.090 HD
ENDBRANCH  21  22
ENDBRANCH   1  21
TORSDOF 7
