REMARK  Name = ZINC06282110
REMARK  9 active torsions:
REMARK  status: ('A' for Active; 'I' for Inactive)
REMARK    1  A    between atoms: C_1  and  C_2
REMARK    2  A    between atoms: C_7  and  C_14
REMARK    3  A    between atoms: C_14  and  C_16
REMARK    4  A    between atoms: C_14  and  N_63
REMARK    5  A    between atoms: N_20  and  C_21
REMARK    6  A    between atoms: C_21  and  C_22
REMARK    7  A    between atoms: C_22  and  O_23
REMARK    8  A    between atoms: O_23  and  C_24
REMARK    9  A    between atoms: N_27  and  C_30
REMARK                            x       y       z     vdW  Elec       q    Type
REMARK                         _______ _______ _______ _____ _____    ______ ____
ROOT
ATOM      1  C   UNL     1      -2.547   1.788   0.023  0.00  0.00    +0.039 C 
ENDROOT
BRANCH   1   8
ATOM      2  C   UNL     1      -5.589   2.346  -7.330  0.00  0.00    +0.044 C 
ATOM      3  C   UNL     1      -5.063   2.012  -5.957  0.00  0.00    -0.048 A 
ATOM      4  C   UNL     1      -5.110   0.701  -5.503  0.00  0.00    +0.004 A 
ATOM      5  C   UNL     1      -4.639   0.378  -4.263  0.00  0.00    +0.010 A 
ATOM      6  C   UNL     1      -4.104   1.376  -3.442  0.00  0.00    -0.001 A 
ATOM      7  C   UNL     1      -3.586   1.064  -2.109  0.00  0.00    +0.017 A 
ATOM      8  C   UNL     1      -3.084   2.074  -1.356  0.00  0.00    +0.011 A 
ATOM      9  C   UNL     1      -3.058   3.392  -1.861  0.00  0.00    +0.251 A 
ATOM     10  O   UNL     1      -2.599   4.284  -1.169  0.00  0.00    -0.268 OA
ATOM     11  N   UNL     1      -3.527   3.687  -3.086  0.00  0.00    -0.322 N 
ATOM     12  H   UNL     1      -3.494   4.604  -3.402  0.00  0.00    +0.169 HD
ATOM     13  C   UNL     1      -4.054   2.707  -3.899  0.00  0.00    +0.049 A 
ATOM     14  C   UNL     1      -4.541   3.012  -5.166  0.00  0.00    +0.029 A 
ENDBRANCH   1   8
BRANCH   1  20
ATOM     15  C   UNL     1      -2.659   2.463   2.346  0.00  0.00    -0.058 C 
ATOM     16  C   UNL     1      -3.312   3.452   3.314  0.00  0.00    +0.086 C 
ATOM     17  N   UNL     1      -4.768   3.255   3.303  0.00  0.00    -0.331 N 
ATOM     18  C   UNL     1      -5.315   3.460   1.954  0.00  0.00    +0.086 C 
ATOM     19  C   UNL     1      -4.661   2.471   0.986  0.00  0.00    -0.058 C 
ATOM     20  N   UNL     1      -3.200   2.695   0.990  0.00  0.00    +0.391 N 
ATOM     21  H   UNL     1      -3.011   3.667   0.717  0.00  0.00    -0.080 HD
BRANCH  17  22
ATOM     22  C   UNL     1      -5.395   4.093   4.231  0.00  0.00    +0.065 A 
ATOM     23  C   UNL     1      -6.766   4.010   4.429  0.00  0.00    +0.026 A 
ATOM     24  C   UNL     1      -7.382   4.836   5.349  0.00  0.00    +0.002 A 
ATOM     25  C   UNL     1      -6.635   5.753   6.066  0.00  0.00    +0.003 A 
ATOM     26  C   UNL     1      -5.269   5.844   5.868  0.00  0.00    +0.040 A 
ATOM     27  C   UNL     1      -4.646   5.016   4.952  0.00  0.00    +0.144 A 
ATOM     28  F   UNL     1      -3.312   5.105   4.759  0.00  0.00    -0.204 F 
ENDBRANCH  17  22
ENDBRANCH   1  20
BRANCH   1  29
ATOM     29  C   UNL     1      -1.061   2.036   0.044  0.00  0.00    +0.143 A 
ATOM     30  N   UNL     1      -0.462   3.202   0.061  0.00  0.00    -0.115 NA
ATOM     31  N   UNL     1       0.809   2.996   0.072  0.00  0.00    -0.023 NA
ATOM     32  N   UNL     1       1.038   1.729   0.067  0.00  0.00    -0.044 NA
ATOM     33  N   UNL     1      -0.090   1.103   0.054  0.00  0.00    -0.228 N 
BRANCH  33  34
ATOM     34  C   UNL     1      -0.280  -0.349   0.044  0.00  0.00    +0.175 C 
BRANCH  34  35
ATOM     35  C   UNL     1      -0.359  -0.863   1.483  0.00  0.00    +0.183 C 
BRANCH  35  36
ATOM     36  O   UNL     1      -0.543  -2.280   1.473  0.00  0.00    -0.381 OA
ATOM     37  C   UNL     1      -0.630  -2.864   2.775  0.00  0.00    +0.194 C 
ENDBRANCH  35  36
ENDBRANCH  34  35
ENDBRANCH  33  34
ENDBRANCH   1  29
TORSDOF 7
