REMARK  Name = ZINC39947216
REMARK  8 active torsions:
REMARK  status: ('A' for Active; 'I' for Inactive)
REMARK    1  A    between atoms: C_1  and  C_2
REMARK    2  A    between atoms: C_2  and  C_4
REMARK    3  A    between atoms: C_2  and  S_19
REMARK    4  A    between atoms: N_9  and  C_12
REMARK    5  A    between atoms: C_12  and  C_13
REMARK    6  A    between atoms: S_19  and  C_20
REMARK    7  A    between atoms: C_24  and  C_29
REMARK    8  A    between atoms: N_25  and  C_26
REMARK                            x       y       z     vdW  Elec       q    Type
REMARK                         _______ _______ _______ _____ _____    ______ ____
ROOT
ATOM      1  C   UNL     1       2.516  -0.044   1.192  0.00  0.00    +0.238 C 
ATOM      2  N   UNL     1       2.388   1.404   0.959  0.00  0.00    -0.237 N 
ATOM      3  N   UNL     1       3.082   1.679  -0.226  0.00  0.00    -0.169 NA
ATOM      4  C   UNL     1       3.606   0.594  -0.731  0.00  0.00    +0.147 C 
ATOM      5  N   UNL     1       3.323  -0.526   0.059  0.00  0.00    -0.282 N 
ATOM      6  H   UNL     1       1.915   2.042   1.516  0.00  0.00    +0.171 HD
ENDROOT
BRANCH   4   7
ATOM      7  C   UNL     1       4.359   0.556  -1.915  0.00  0.00    +0.022 C 
ATOM      8  C   UNL     1       4.761   1.642  -2.694  0.00  0.00    +0.006 A 
ATOM      9  C   UNL     1       4.564   3.033  -2.564  0.00  0.00    +0.010 A 
ATOM     10  C   UNL     1       5.082   3.877  -3.493  0.00  0.00    +0.001 A 
ATOM     11  C   UNL     1       5.812   3.403  -4.585  0.00  0.00    +0.002 A 
ATOM     12  C   UNL     1       6.040   2.079  -4.772  0.00  0.00    +0.026 A 
ATOM     13  C   UNL     1       5.530   1.137  -3.843  0.00  0.00    +0.043 A 
ATOM     14  N   UNL     1       5.612  -0.179  -3.800  0.00  0.00    -0.380 N 
ATOM     15  C   UNL     1       4.909  -0.669  -2.611  0.00  0.00    +0.152 C 
ATOM     16  H   UNL     1       6.070  -0.734  -4.450  0.00  0.00    +0.160 HD
ENDBRANCH   4   7
BRANCH   5  17
ATOM     17  C   UNL     1       3.745  -1.907  -0.190  0.00  0.00    +0.078 C 
ATOM     18  C   UNL     1       3.239  -2.985   0.771  0.00  0.00    +0.024 C 
ATOM     19  C   UNL     1       4.704  -2.545   0.817  0.00  0.00    +0.024 C 
ENDBRANCH   5  17
BRANCH   1  20
ATOM     20  S   UNL     1       0.883  -0.834   1.189  0.00  0.00    -0.106 S 
BRANCH  20  22
ATOM     21  C   UNL     1      -0.027   1.120  -0.495  0.00  0.00    +0.029 C 
ATOM     22  C   UNL     1       0.185  -0.394  -0.426  0.00  0.00    +0.133 C 
BRANCH  22  23
ATOM     23  C   UNL     1      -1.136  -1.095  -0.610  0.00  0.00    +0.228 C 
ATOM     24  O   UNL     1      -1.783  -1.433   0.358  0.00  0.00    -0.274 OA
ATOM     25  N   UNL     1      -1.599  -1.346  -1.851  0.00  0.00    -0.298 N 
ATOM     26  C   UNL     1      -0.827  -0.949  -3.039  0.00  0.00    +0.123 C 
ATOM     27  C   UNL     1      -0.695  -2.165  -3.962  0.00  0.00    +0.103 C 
ATOM     28  N   UNL     1      -2.031  -2.710  -4.242  0.00  0.00    -0.295 NA
ATOM     29  C   UNL     1      -2.676  -3.197  -3.016  0.00  0.00    +0.103 C 
ATOM     30  C   UNL     1      -2.885  -2.029  -2.054  0.00  0.00    +0.123 C 
BRANCH  28  31
ATOM     31  C   UNL     1      -1.965  -3.769  -5.259  0.00  0.00    +0.119 C 
BRANCH  31  32
ATOM     32  C   UNL     1      -3.360  -4.131  -5.698  0.00  0.00    -0.033 A 
ATOM     33  C   UNL     1      -4.058  -5.123  -5.035  0.00  0.00    +0.005 A 
ATOM     34  C   UNL     1      -5.338  -5.455  -5.438  0.00  0.00    +0.000 A 
ATOM     35  C   UNL     1      -5.920  -4.795  -6.503  0.00  0.00    +0.000 A 
ATOM     36  C   UNL     1      -5.223  -3.802  -7.166  0.00  0.00    +0.000 A 
ATOM     37  C   UNL     1      -3.944  -3.467  -6.760  0.00  0.00    +0.005 A 
ENDBRANCH  31  32
ENDBRANCH  28  31
ENDBRANCH  22  23
ENDBRANCH  20  22
ENDBRANCH   1  20
TORSDOF 7
