REMARK  Name = ZINC44879092
REMARK  9 active torsions:
REMARK  status: ('A' for Active; 'I' for Inactive)
REMARK    1  A    between atoms: C_1  and  C_2
REMARK    2  A    between atoms: C_2  and  S_3
REMARK    3  A    between atoms: S_3  and  N_6
REMARK    4  A    between atoms: C_8  and  C_17
REMARK    5  A    between atoms: N_19  and  C_20
REMARK    6  A    between atoms: C_20  and  C_21
REMARK    7  A    between atoms: C_24  and  C_27
REMARK    8  A    between atoms: C_27  and  N_28
REMARK    9  A    between atoms: C_32  and  C_35
REMARK                            x       y       z     vdW  Elec       q    Type
REMARK                         _______ _______ _______ _____ _____    ______ ____
ROOT
ATOM      1  C   UNL     1       3.020  -4.577   0.846  0.00  0.00    +0.256 C 
ATOM      2  O   UNL     1       3.243  -5.746   0.609  0.00  0.00    -0.272 OA
ATOM      3  N   UNL     1       3.866  -3.874   1.624  0.00  0.00    -0.308 N 
ATOM      4  H   UNL     1       3.688  -2.940   1.814  0.00  0.00    +0.149 HD
ENDROOT
BRANCH   1   7
ATOM      5  N   UNL     1       0.998  -2.225  -1.282  0.00  0.00    -0.200 N 
ATOM      6  C   UNL     1       2.223  -2.814  -0.715  0.00  0.00    +0.185 C 
ATOM      7  C   UNL     1       1.796  -3.912   0.270  0.00  0.00    +0.277 C 
ATOM      8  O   UNL     1       1.007  -4.877  -0.429  0.00  0.00    -0.476 OA
ATOM      9  C   UNL     1      -0.015  -4.420  -1.200  0.00  0.00    +0.144 A 
ATOM     10  C   UNL     1      -0.042  -3.099  -1.636  0.00  0.00    +0.093 A 
ATOM     11  C   UNL     1      -1.091  -2.648  -2.420  0.00  0.00    +0.028 A 
ATOM     12  C   UNL     1      -2.116  -3.512  -2.764  0.00  0.00    +0.002 A 
ATOM     13  C   UNL     1      -2.093  -4.822  -2.325  0.00  0.00    +0.004 A 
ATOM     14  C   UNL     1      -1.044  -5.279  -1.554  0.00  0.00    +0.047 A 
BRANCH   5  15
ATOM     15  S   UNL     1       0.851  -0.589  -1.490  0.00  0.00    +0.045 S 
ATOM     16  O   UNL     1       1.846  -0.025  -0.647  0.00  0.00    -0.155 OA
ATOM     17  O   UNL     1      -0.526  -0.318  -1.268  0.00  0.00    -0.155 OA
BRANCH  15  19
ATOM     18  C   UNL     1       0.983   1.158  -3.591  0.00  0.00    +0.030 C 
ATOM     19  C   UNL     1       1.271  -0.301  -3.231  0.00  0.00    +0.185 C 
ENDBRANCH  15  19
ENDBRANCH   5  15
ENDBRANCH   1   7
BRANCH   3  20
ATOM     20  C   UNL     1       5.056  -4.521   2.184  0.00  0.00    +0.139 C 
BRANCH  20  21
ATOM     21  C   UNL     1       5.828  -3.525   3.010  0.00  0.00    -0.030 A 
ATOM     22  C   UNL     1       6.806  -2.747   2.418  0.00  0.00    +0.005 A 
ATOM     23  C   UNL     1       7.514  -1.833   3.176  0.00  0.00    +0.002 A 
ATOM     24  C   UNL     1       7.244  -1.696   4.524  0.00  0.00    -0.064 A 
ATOM     25  C   UNL     1       6.265  -2.473   5.116  0.00  0.00    +0.002 A 
ATOM     26  C   UNL     1       5.554  -3.384   4.357  0.00  0.00    +0.005 A 
BRANCH  24  27
ATOM     27  C   UNL     1       8.017  -0.700   5.350  0.00  0.00    -0.043 C 
BRANCH  27  28
ATOM     28  N   UNL     1       7.324   0.595   5.331  0.00  0.00    +0.383 N 
ATOM     29  C   UNL     1       7.325   1.128   3.963  0.00  0.00    -0.078 C 
ATOM     30  C   UNL     1       6.535   2.438   3.921  0.00  0.00    -0.018 C 
ATOM     31  C   UNL     1       7.186   3.451   4.867  0.00  0.00    -0.001 C 
ATOM     32  C   UNL     1       7.247   2.854   6.276  0.00  0.00    -0.031 C 
ATOM     33  C   UNL     1       8.011   1.529   6.230  0.00  0.00    -0.075 C 
ATOM     34  C   UNL     1       7.966   3.828   7.212  0.00  0.00    +0.005 C 
ATOM     35  H   UNL     1       6.372   0.470   5.640  0.00  0.00    -0.081 HD
ENDBRANCH  27  28
ENDBRANCH  24  27
ENDBRANCH  20  21
ENDBRANCH   3  20
TORSDOF 7
