REMARK  Name = ZINC08637088
REMARK  15 active torsions:
REMARK  status: ('A' for Active; 'I' for Inactive)
REMARK    1  A    between atoms: C_1  and  C_2
REMARK    2  A    between atoms: C_2  and  O_3
REMARK    3  A    between atoms: O_3  and  C_4
REMARK    4  A    between atoms: C_4  and  C_6
REMARK    5  A    between atoms: C_6  and  C_7
REMARK    6  A    between atoms: C_6  and  N_23
REMARK    7  A    between atoms: C_6  and  N_53
REMARK    8  A    between atoms: C_11  and  C_12
REMARK    9  A    between atoms: C_11  and  N_53
REMARK   10  A    between atoms: C_12  and  C_13
REMARK   11  A    between atoms: C_16  and  O_21
REMARK   12  A    between atoms: C_17  and  O_19
REMARK   13  A    between atoms: O_19  and  C_20
REMARK   14  A    between atoms: O_21  and  C_22
REMARK   15  A    between atoms: C_24  and  C_26
REMARK                            x       y       z     vdW  Elec       q    Type
REMARK                         _______ _______ _______ _____ _____    ______ ____
ROOT
ATOM      1  C   UNL     1      -4.591   4.986  -2.691  0.00  0.00    +0.196 C 
ENDROOT
BRANCH   1   2
ATOM      2  C   UNL     1      -3.332   5.598  -3.307  0.00  0.00    +0.406 C 
ATOM      3  F   UNL     1      -2.212   4.862  -2.905  0.00  0.00    -0.170 F 
ATOM      4  F   UNL     1      -3.433   5.567  -4.702  0.00  0.00    -0.170 F 
ATOM      5  F   UNL     1      -3.199   6.922  -2.878  0.00  0.00    -0.170 F 
ENDBRANCH   1   2
BRANCH   1   6
ATOM      6  N   UNL     1      -5.749   5.824  -3.012  0.00  0.00    -0.302 N 
ATOM      7  C   UNL     1      -6.120   5.997  -4.296  0.00  0.00    +0.279 C 
ATOM      8  O   UNL     1      -5.561   5.375  -5.180  0.00  0.00    -0.267 OA
ATOM      9  H   UNL     1      -6.249   6.254  -2.301  0.00  0.00    +0.148 HD
BRANCH   7  10
ATOM     10  C   UNL     1      -7.196   6.937  -4.629  0.00  0.00    +0.189 A 
ATOM     11  C   UNL     1      -7.667   7.206  -5.881  0.00  0.00    +0.054 A 
ATOM     12  C   UNL     1      -8.689   8.157  -5.732  0.00  0.00    +0.042 A 
ATOM     13  C   UNL     1      -8.796   8.422  -4.411  0.00  0.00    +0.196 A 
ATOM     14  O   UNL     1      -7.898   7.681  -3.749  0.00  0.00    -0.458 OA
ENDBRANCH   7  10
ENDBRANCH   1   6
BRANCH   1  15
ATOM     15  N   UNL     1      -4.426   4.911  -1.227  0.00  0.00    +0.407 N 
ATOM     16  H   UNL     1      -4.463   5.859  -0.833  0.00  0.00    -0.081 HD
ATOM     17  H   UNL     1      -3.518   4.485  -1.010  0.00  0.00    -0.081 HD
BRANCH  15  18
ATOM     18  C   UNL     1      -5.501   4.095  -0.631  0.00  0.00    -0.074 C 
BRANCH  18  19
ATOM     19  C   UNL     1      -5.245   3.949   0.871  0.00  0.00    +0.016 C 
BRANCH  19  20
ATOM     20  C   UNL     1      -6.340   3.116   1.487  0.00  0.00    -0.045 A 
ATOM     21  C   UNL     1      -7.482   3.728   1.970  0.00  0.00    +0.007 A 
ATOM     22  C   UNL     1      -8.487   2.969   2.542  0.00  0.00    +0.049 A 
ATOM     23  C   UNL     1      -8.355   1.592   2.622  0.00  0.00    +0.161 A 
ATOM     24  C   UNL     1      -7.208   0.977   2.131  0.00  0.00    +0.162 A 
ATOM     25  C   UNL     1      -6.202   1.743   1.564  0.00  0.00    +0.053 A 
BRANCH  24  26
ATOM     26  O   UNL     1      -7.074  -0.375   2.207  0.00  0.00    -0.491 OA
ATOM     27  C   UNL     1      -5.870  -0.938   1.683  0.00  0.00    +0.277 C 
ENDBRANCH  24  26
BRANCH  23  28
ATOM     28  O   UNL     1      -9.345   0.844   3.178  0.00  0.00    -0.491 OA
ATOM     29  C   UNL     1     -10.494   1.544   3.660  0.00  0.00    +0.277 C 
ENDBRANCH  23  28
ENDBRANCH  19  20
ENDBRANCH  18  19
ENDBRANCH  15  18
ENDBRANCH   1  15
BRANCH   1  30
ATOM     30  C   UNL     1      -4.803   3.602  -3.249  0.00  0.00    +0.322 C 
ATOM     31  O   UNL     1      -5.684   3.402  -4.050  0.00  0.00    -0.250 OA
BRANCH  30  32
ATOM     32  O   UNL     1      -4.011   2.592  -2.856  0.00  0.00    -0.465 OA
BRANCH  32  34
ATOM     33  C   UNL     1      -3.276   0.270  -2.872  0.00  0.00    +0.048 C 
ATOM     34  C   UNL     1      -4.272   1.286  -3.435  0.00  0.00    +0.229 C 
ENDBRANCH  32  34
ENDBRANCH  30  32
ENDBRANCH   1  30
TORSDOF 12
