REMARK  Name = ZINC00045300
REMARK  4 active torsions:
REMARK  status: ('A' for Active; 'I' for Inactive)
REMARK    1  A    between atoms: C_1  and  C_2
REMARK    2  A    between atoms: C_4  and  C_8
REMARK    3  A    between atoms: C_5  and  C_7
REMARK    4  A    between atoms: N_10  and  N_11
REMARK                            x       y       z     vdW  Elec       q    Type
REMARK                         _______ _______ _______ _____ _____    ______ ____
ROOT
ATOM      1  C   UNL     1       3.580   0.586   0.149  0.00  0.00    +0.267 C 
ATOM      2  O   UNL     1       4.163  -0.461   0.357  0.00  0.00    -0.268 OA
ATOM      3  N   UNL     1       4.280   1.718  -0.061  0.00  0.00    -0.203 N 
ATOM      4  H   UNL     1       3.815   2.553  -0.227  0.00  0.00    +0.178 HD
ENDROOT
BRANCH   1   8
ATOM      5  C   UNL     1      -1.256   2.174  -0.208  0.00  0.00    +0.086 C 
ATOM      6  C   UNL     1      -0.016   1.335  -0.029  0.00  0.00    +0.103 A 
ATOM      7  C   UNL     1       1.245   1.786  -0.104  0.00  0.00    +0.057 A 
ATOM      8  C   UNL     1       2.107   0.617   0.129  0.00  0.00    +0.079 A 
ATOM      9  C   UNL     1       1.257  -0.433   0.322  0.00  0.00    +0.114 A 
ATOM     10  O   UNL     1       0.002   0.017   0.224  0.00  0.00    -0.464 OA
ATOM     11  C   UNL     1       1.664  -1.857   0.599  0.00  0.00    +0.087 C 
ENDBRANCH   1   8
BRANCH   3  12
ATOM     12  N   UNL     1       5.681   1.688  -0.042  0.00  0.00    -0.189 NA
ATOM     13  C   UNL     1       6.346   2.778  -0.139  0.00  0.00    +0.037 C 
ATOM     14  C   UNL     1       5.644   4.118  -0.135  0.00  0.00    +0.052 C 
ATOM     15  C   UNL     1       6.315   5.011   0.920  0.00  0.00    +0.006 C 
ATOM     16  C   UNL     1       7.816   5.088   0.636  0.00  0.00    +0.001 C 
ATOM     17  C   UNL     1       8.444   3.701   0.786  0.00  0.00    +0.006 C 
ATOM     18  C   UNL     1       7.853   2.759  -0.268  0.00  0.00    +0.052 C 
ENDBRANCH   3  12
TORSDOF 2
