REMARK  Name = ZINC00928798
REMARK  9 active torsions:
REMARK  status: ('A' for Active; 'I' for Inactive)
REMARK    1  A    between atoms: C_4  and  N_30
REMARK    2  A    between atoms: C_5  and  N_7
REMARK    3  A    between atoms: C_8  and  C_10
REMARK    4  A    between atoms: C_10  and  S_11
REMARK    5  A    between atoms: S_11  and  C_12
REMARK    6  A    between atoms: C_15  and  C_23
REMARK    7  A    between atoms: N_16  and  C_17
REMARK    8  A    between atoms: C_17  and  C_18
REMARK    9  A    between atoms: C_26  and  O_29
REMARK                            x       y       z     vdW  Elec       q    Type
REMARK                         _______ _______ _______ _____ _____    ______ ____
ROOT
ATOM      1  C   UNL     1       4.979   7.226   3.924  0.00  0.00    +0.193 A 
ATOM      2  N   UNL     1       5.600   6.962   2.797  0.00  0.00    -0.122 NA
ATOM      3  N   UNL     1       6.642   7.705   2.683  0.00  0.00    -0.128 NA
ATOM      4  C   UNL     1       6.755   8.483   3.735  0.00  0.00    +0.165 A 
ATOM      5  N   UNL     1       5.693   8.200   4.562  0.00  0.00    -0.295 N 
ENDROOT
BRANCH   4   6
ATOM      6  C   UNL     1       7.822   9.475   3.983  0.00  0.00    +0.020 A 
ATOM      7  C   UNL     1       8.633   9.908   2.932  0.00  0.00    +0.015 A 
ATOM      8  C   UNL     1       9.624  10.837   3.167  0.00  0.00    +0.046 A 
ATOM      9  C   UNL     1       9.823  11.334   4.448  0.00  0.00    +0.117 A 
ATOM     10  C   UNL     1       9.022  10.902   5.497  0.00  0.00    +0.046 A 
ATOM     11  C   UNL     1       8.026   9.977   5.269  0.00  0.00    +0.015 A 
BRANCH   9  12
ATOM     12  O   UNL     1      10.805  12.245   4.676  0.00  0.00    -0.507 OA
ATOM     13  H   UNL     1      11.659  11.855   4.907  0.00  0.00    +0.292 HD
ENDBRANCH   9  12
ENDBRANCH   4   6
BRANCH   1  14
ATOM     14  S   UNL     1       3.503   6.460   4.508  0.00  0.00    -0.077 S 
BRANCH  14  15
ATOM     15  C   UNL     1       3.182   5.315   3.144  0.00  0.00    +0.173 C 
BRANCH  15  17
ATOM     16  N   UNL     1       1.491   3.610   2.549  0.00  0.00    -0.283 N 
ATOM     17  C   UNL     1       1.929   4.529   3.432  0.00  0.00    +0.228 C 
ATOM     18  O   UNL     1       1.314   4.723   4.459  0.00  0.00    -0.275 OA
ATOM     19  H   UNL     1       2.024   3.398   1.766  0.00  0.00    +0.155 HD
BRANCH  16  24
ATOM     20  C   UNL     1      -1.919   2.918   3.743  0.00  0.00    +0.002 A 
ATOM     21  C   UNL     1      -2.152   1.677   3.181  0.00  0.00    +0.002 A 
ATOM     22  C   UNL     1      -1.181   1.072   2.405  0.00  0.00    +0.025 A 
ATOM     23  C   UNL     1       0.034   1.707   2.195  0.00  0.00    +0.051 A 
ATOM     24  C   UNL     1       0.268   2.960   2.761  0.00  0.00    +0.055 A 
ATOM     25  C   UNL     1      -0.713   3.561   3.535  0.00  0.00    +0.025 A 
BRANCH  23  26
ATOM     26  N   UNL     1       1.019   1.096   1.413  0.00  0.00    -0.324 N 
ATOM     27  C   UNL     1       1.485  -0.152   2.034  0.00  0.00    +0.133 C 
ATOM     28  C   UNL     1       2.601  -0.757   1.178  0.00  0.00    +0.178 C 
ATOM     29  O   UNL     1       2.118  -0.961  -0.153  0.00  0.00    -0.377 OA
ATOM     30  C   UNL     1       1.658   0.235  -0.788  0.00  0.00    +0.178 C 
ATOM     31  C   UNL     1       0.531   0.849   0.048  0.00  0.00    +0.133 C 
ENDBRANCH  23  26
ENDBRANCH  16  24
ENDBRANCH  15  17
ENDBRANCH  14  15
ENDBRANCH   1  14
BRANCH   5  32
ATOM     32  C   UNL     1       5.392   8.815   5.857  0.00  0.00    +0.200 C 
BRANCH  32  33
ATOM     33  C   UNL     1       5.915   7.936   6.964  0.00  0.00    +0.125 A 
ATOM     34  C   UNL     1       7.171   7.939   7.444  0.00  0.00    +0.046 A 
ATOM     35  C   UNL     1       7.221   6.967   8.469  0.00  0.00    +0.041 A 
ATOM     36  C   UNL     1       5.993   6.422   8.550  0.00  0.00    +0.195 A 
ATOM     37  O   UNL     1       5.206   7.013   7.636  0.00  0.00    -0.466 OA
ENDBRANCH  32  33
ENDBRANCH   5  32
TORSDOF 9
