REMARK  Name = ZINC28165101
REMARK  3 active torsions:
REMARK  status: ('A' for Active; 'I' for Inactive)
REMARK    1  A    between atoms: C_2  and  C_7
REMARK    2  A    between atoms: C_7  and  S_8
REMARK    3  A    between atoms: S_8  and  C_9
REMARK                            x       y       z     vdW  Elec       q    Type
REMARK                         _______ _______ _______ _____ _____    ______ ____
ROOT
ATOM      1  C   UNL     1      -0.008   1.752   0.012  0.00  0.00    +0.109 A 
ATOM      2  C   UNL     1       1.210   2.488   0.004  0.00  0.00    +0.043 A 
ATOM      3  C   UNL     1       2.589   1.975  -0.011  0.00  0.00    -0.025 A 
ATOM      4  C   UNL     1       3.576   2.886  -0.017  0.00  0.00    -0.004 A 
ATOM      5  S   UNL     1       2.751   4.461  -0.001  0.00  0.00    -0.073 S 
ATOM      6  C   UNL     1       1.074   3.888   0.012  0.00  0.00    +0.113 A 
ATOM      7  N   UNL     1      -0.112   4.466   0.026  0.00  0.00    -0.228 NA
ATOM      8  C   UNL     1      -1.208   3.732   0.033  0.00  0.00    +0.223 A 
ATOM      9  N   UNL     1      -1.156   2.412   0.021  0.00  0.00    -0.229 NA
ATOM     10  C   UNL     1       4.939   2.248  -0.036  0.00  0.00    +0.043 C 
ATOM     11  C   UNL     1       4.679   0.790  -0.476  0.00  0.00    +0.010 C 
ATOM     12  C   UNL     1       3.223   0.580  -0.017  0.00  0.00    +0.037 C 
ENDROOT
BRANCH   1  13
ATOM     13  S   UNL     1       0.012  -0.010   0.002  0.00  0.00    -0.099 S 
BRANCH  13  14
ATOM     14  C   UNL     1      -1.767  -0.344   0.017  0.00  0.00    +0.133 C 
BRANCH  14  16
ATOM     15  C   UNL     1      -2.141  -2.635  -1.125  0.00  0.00    +0.097 A 
ATOM     16  C   UNL     1      -1.998  -1.833   0.011  0.00  0.00    +0.077 A 
ATOM     17  N   UNL     1      -2.109  -2.596   1.069  0.00  0.00    -0.175 NA
ATOM     18  N   UNL     1      -2.314  -3.914   0.642  0.00  0.00    -0.243 N 
ATOM     19  C   UNL     1      -2.330  -3.916  -0.709  0.00  0.00    +0.266 A 
ATOM     20  O   UNL     1      -2.504  -5.000  -1.507  0.00  0.00    -0.266 OA
ATOM     21  H   UNL     1      -2.428  -4.720   1.381  0.00  0.00    +0.192 HD
ENDBRANCH  14  16
ENDBRANCH  13  14
ENDBRANCH   1  13
TORSDOF 3
