REMARK  Name = ZINC57129331
REMARK  5 active torsions:
REMARK  status: ('A' for Active; 'I' for Inactive)
REMARK    1  A    between atoms: C_1  and  C_2
REMARK    2  A    between atoms: C_2  and  C_3
REMARK    3  A    between atoms: C_3  and  C_4
REMARK    4  A    between atoms: C_4  and  N_5
REMARK    5  A    between atoms: C_10  and  C_12
REMARK                            x       y       z     vdW  Elec       q    Type
REMARK                         _______ _______ _______ _____ _____    ______ ____
ROOT
ATOM      1  C   UNL     1      -5.208  -3.473   2.549  0.00  0.00    +0.267 C 
ATOM      2  O   UNL     1      -4.709  -3.280   1.457  0.00  0.00    -0.268 OA
ATOM      3  N   UNL     1      -4.541  -3.123   3.666  0.00  0.00    -0.291 N 
ATOM      4  C   UNL     1      -3.208  -2.506   3.588  0.00  0.00    +0.114 C 
ATOM      5  C   UNL     1      -3.284  -1.080   4.145  0.00  0.00    +0.072 C 
ATOM      6  C   UNL     1      -4.062  -1.098   5.440  0.00  0.00    +0.023 A 
ATOM      7  C   UNL     1      -4.883  -2.102   5.816  0.00  0.00    -0.002 A 
ATOM      8  C   UNL     1      -5.438  -1.742   7.103  0.00  0.00    +0.006 A 
ATOM      9  C   UNL     1      -6.336  -2.384   7.963  0.00  0.00    +0.030 A 
ATOM     10  C   UNL     1      -6.648  -1.734   9.133  0.00  0.00    +0.042 A 
ATOM     11  C   UNL     1      -6.104  -0.500   9.457  0.00  0.00    +0.022 A 
ATOM     12  C   UNL     1      -5.215   0.156   8.624  0.00  0.00    +0.027 A 
ATOM     13  C   UNL     1      -4.880  -0.480   7.430  0.00  0.00    +0.047 A 
ATOM     14  N   UNL     1      -4.054  -0.123   6.404  0.00  0.00    -0.358 N 
ATOM     15  H   UNL     1      -3.538   0.698   6.363  0.00  0.00    +0.166 HD
ATOM     16 CL   UNL     1      -7.757  -2.481  10.240  0.00  0.00    -0.084 Cl
ATOM     17  C   UNL     1      -5.129  -3.342   4.999  0.00  0.00    +0.145 C 
ENDROOT
BRANCH   1  23
ATOM     18  N   UNL     1      -8.169  -4.996   3.965  0.00  0.00    -0.229 N 
ATOM     19  C   UNL     1      -8.978  -5.225   2.913  0.00  0.00    +0.267 A 
ATOM     20  O   UNL     1     -10.071  -5.741   3.080  0.00  0.00    -0.266 OA
ATOM     21  C   UNL     1      -8.553  -4.865   1.615  0.00  0.00    +0.074 A 
ATOM     22  C   UNL     1      -7.323  -4.291   1.483  0.00  0.00    +0.040 A 
ATOM     23  C   UNL     1      -6.547  -4.092   2.650  0.00  0.00    +0.146 A 
ATOM     24  N   UNL     1      -7.016  -4.450   3.824  0.00  0.00    -0.164 NA
BRANCH  18  25
ATOM     25  C   UNL     1      -8.620  -5.374   5.306  0.00  0.00    +0.147 C 
BRANCH  25  26
ATOM     26  C   UNL     1      -8.181  -6.808   5.607  0.00  0.00    +0.023 C 
BRANCH  26  28
ATOM     27  C   UNL     1      -8.213  -8.638   7.308  0.00  0.00    +0.004 C 
ATOM     28  C   UNL     1      -8.652  -7.203   7.008  0.00  0.00    -0.002 C 
ENDBRANCH  26  28
ENDBRANCH  25  26
ENDBRANCH  18  25
ENDBRANCH   1  23
TORSDOF 4
