REMARK  Name = ZINC65365626
REMARK  6 active torsions:
REMARK  status: ('A' for Active; 'I' for Inactive)
REMARK    1  A    between atoms: C_1  and  C_2
REMARK    2  A    between atoms: C_2  and  C_3
REMARK    3  A    between atoms: C_3  and  O_4
REMARK    4  A    between atoms: O_4  and  C_5
REMARK    5  A    between atoms: C_8  and  C_11
REMARK    6  A    between atoms: C_19  and  C_34
REMARK                            x       y       z     vdW  Elec       q    Type
REMARK                         _______ _______ _______ _____ _____    ______ ____
ROOT
ATOM      1  C   UNL     1       3.194  -4.625  -5.357  0.00  0.00    +0.063 C 
ATOM      2  C   UNL     1       4.169  -5.615  -4.710  0.00  0.00    +0.109 C 
ATOM      3  C   UNL     1       4.656  -6.629  -5.707  0.00  0.00    +0.219 C 
ATOM      4  O   UNL     1       5.813  -6.988  -5.662  0.00  0.00    -0.275 OA
ATOM      5  N   UNL     1       3.844  -7.153  -6.650  0.00  0.00    -0.270 N 
ATOM      6  C   UNL     1       2.580  -6.589  -6.816  0.00  0.00    +0.134 A 
ATOM      7  C   UNL     1       2.235  -5.402  -6.223  0.00  0.00    +0.023 A 
ATOM      8  C   UNL     1       0.924  -5.114  -6.573  0.00  0.00    +0.066 A 
ATOM      9  N   UNL     1       0.486  -6.071  -7.357  0.00  0.00    -0.168 NA
ATOM     10  N   UNL     1       1.518  -7.010  -7.532  0.00  0.00    -0.198 N 
ATOM     11  C   UNL     1       1.455  -8.171  -8.312  0.00  0.00    +0.178 A 
ATOM     12  C   UNL     1       0.223  -8.769  -8.576  0.00  0.00    +0.053 A 
ATOM     13  C   UNL     1       0.210  -9.915  -9.352  0.00  0.00    +0.049 A 
ATOM     14  C   UNL     1       1.432 -10.401  -9.821  0.00  0.00    +0.144 A 
ATOM     15  N   UNL     1       2.553  -9.765  -9.518  0.00  0.00    -0.132 NA
ATOM     16  N   UNL     1       2.563  -8.700  -8.803  0.00  0.00    -0.128 NA
ATOM     17  N   UNL     1       1.471 -11.550 -10.605  0.00  0.00    -0.309 N 
ATOM     18  C   UNL     1       2.709 -11.961 -11.287  0.00  0.00    +0.134 C 
ATOM     19  C   UNL     1       2.975 -13.435 -10.960  0.00  0.00    +0.178 C 
ATOM     20  O   UNL     1       1.804 -14.201 -11.254  0.00  0.00    -0.377 OA
ATOM     21  C   UNL     1       0.660 -13.845 -10.474  0.00  0.00    +0.178 C 
ATOM     22  C   UNL     1       0.277 -12.395 -10.771  0.00  0.00    +0.134 C 
ATOM     23  C   UNL     1       0.137  -3.908  -6.128  0.00  0.00    +0.068 C 
ATOM     24  H   UNL     1       4.133  -7.901  -7.197  0.00  0.00    +0.156 HD
ENDROOT
BRANCH   1  28
ATOM     25  C   UNL     1       1.028  -2.542  -2.319  0.00  0.00    +0.121 A 
ATOM     26  C   UNL     1       1.808  -1.837  -3.224  0.00  0.00    +0.046 A 
ATOM     27  C   UNL     1       2.508  -2.513  -4.205  0.00  0.00    +0.008 A 
ATOM     28  C   UNL     1       2.430  -3.891  -4.286  0.00  0.00    -0.039 A 
ATOM     29  C   UNL     1       1.653  -4.596  -3.386  0.00  0.00    +0.008 A 
ATOM     30  C   UNL     1       0.956  -3.925  -2.400  0.00  0.00    +0.046 A 
BRANCH  25  31
ATOM     31  O   UNL     1       0.339  -1.879  -1.353  0.00  0.00    -0.492 OA
BRANCH  31  32
ATOM     32  C   UNL     1       0.460  -0.456  -1.331  0.00  0.00    +0.229 C 
BRANCH  32  34
ATOM     33  C   UNL     1      -0.250   1.634  -0.159  0.00  0.00    +0.007 C 
ATOM     34  C   UNL     1      -0.380   0.109  -0.183  0.00  0.00    +0.038 C 
ENDBRANCH  32  34
ENDBRANCH  31  32
ENDBRANCH  25  31
ENDBRANCH   1  28
TORSDOF 4
