REMARK  Name = ZINC66284333
REMARK  7 active torsions:
REMARK  status: ('A' for Active; 'I' for Inactive)
REMARK    1  A    between atoms: C_1  and  C_2
REMARK    2  A    between atoms: C_5  and  N_12
REMARK    3  A    between atoms: C_13  and  C_15
REMARK    4  A    between atoms: C_15  and  C_16
REMARK    5  A    between atoms: C_16  and  C_18
REMARK    6  A    between atoms: C_16  and  N_19
REMARK    7  A    between atoms: C_20  and  C_22
REMARK                            x       y       z     vdW  Elec       q    Type
REMARK                         _______ _______ _______ _____ _____    ______ ____
ROOT
ATOM      1  N   UNL     1       0.057  -4.196  -0.095  0.00  0.00    -0.285 N 
ATOM      2  C   UNL     1      -0.042  -4.834  -1.278  0.00  0.00    +0.219 C 
ATOM      3  O   UNL     1      -0.055  -4.198  -2.310  0.00  0.00    -0.275 OA
ATOM      4  H   UNL     1       0.134  -4.707   0.727  0.00  0.00    +0.155 HD
ENDROOT
BRANCH   1   9
ATOM      5  C   UNL     1       0.061   1.503   0.015  0.00  0.00    +0.046 C 
ATOM      6  C   UNL     1       0.051  -0.004   0.003  0.00  0.00    -0.024 A 
ATOM      7  C   UNL     1       0.631  -0.680  -1.027  0.00  0.00    +0.007 A 
ATOM      8  C   UNL     1       0.636  -2.071  -1.063  0.00  0.00    +0.024 A 
ATOM      9  C   UNL     1       0.050  -2.802  -0.051  0.00  0.00    +0.043 A 
ATOM     10  C   UNL     1      -0.558  -2.126   1.027  0.00  0.00    +0.022 A 
ATOM     11  C   UNL     1      -0.552  -0.710   1.058  0.00  0.00    +0.076 A 
ATOM     12  N   UNL     1      -1.122  -0.065   2.081  0.00  0.00    -0.255 NA
ATOM     13  C   UNL     1      -1.687  -0.717   3.068  0.00  0.00    +0.111 A 
ATOM     14  C   UNL     1      -1.721  -2.109   3.102  0.00  0.00    +0.020 A 
ATOM     15  C   UNL     1      -1.168  -2.829   2.080  0.00  0.00    +0.013 A 
ENDBRANCH   1   9
BRANCH   2  16
ATOM     16  C   UNL     1      -0.136  -6.338  -1.317  0.00  0.00    +0.118 C 
BRANCH  16  17
ATOM     17  C   UNL     1      -0.238  -6.804  -2.771  0.00  0.00    +0.079 C 
ATOM     18  C   UNL     1      -0.208  -8.333  -2.819  0.00  0.00    +0.028 C 
BRANCH  17  19
ATOM     19  N   UNL     1      -1.494  -6.322  -3.352  0.00  0.00    -0.312 N 
ATOM     20  C   UNL     1      -1.599  -6.153  -4.684  0.00  0.00    +0.216 C 
ATOM     21  O   UNL     1      -0.654  -6.400  -5.404  0.00  0.00    -0.276 OA
ATOM     22  H   UNL     1      -2.250  -6.124  -2.776  0.00  0.00    +0.149 HD
BRANCH  20  23
ATOM     23  C   UNL     1      -2.891  -5.656  -5.282  0.00  0.00    +0.075 C 
ATOM     24  C   UNL     1      -4.018  -6.634  -4.943  0.00  0.00    +0.013 C 
ATOM     25  C   UNL     1      -5.329  -6.130  -5.549  0.00  0.00    +0.001 C 
ATOM     26  C   UNL     1      -5.182  -6.027  -7.069  0.00  0.00    +0.000 C 
ATOM     27  C   UNL     1      -4.055  -5.050  -7.407  0.00  0.00    +0.001 C 
ATOM     28  C   UNL     1      -2.744  -5.554  -6.801  0.00  0.00    +0.013 C 
ENDBRANCH  20  23
ENDBRANCH  17  19
ENDBRANCH  16  17
ENDBRANCH   2  16
TORSDOF 5
