REMARK  Name = ZINC21739099
REMARK  8 active torsions:
REMARK  status: ('A' for Active; 'I' for Inactive)
REMARK    1  A    between atoms: C_1  and  C_2
REMARK    2  A    between atoms: C_5  and  N_8
REMARK    3  A    between atoms: C_12  and  S_13
REMARK    4  A    between atoms: S_13  and  C_14
REMARK    5  A    between atoms: C_14  and  C_15
REMARK    6  A    between atoms: N_20  and  C_21
REMARK    7  A    between atoms: C_25  and  C_28
REMARK    8  A    between atoms: C_26  and  C_27
REMARK                            x       y       z     vdW  Elec       q    Type
REMARK                         _______ _______ _______ _____ _____    ______ ____
ROOT
ATOM      1  S   UNL     1       0.925   3.893   0.051  0.00  0.00    -0.076 S 
ENDROOT
BRANCH   1   6
ATOM      2  N   UNL     1       2.773   5.990   0.067  0.00  0.00    -0.259 N 
ATOM      3  C   UNL     1       4.130   6.162   0.069  0.00  0.00    +0.225 A 
ATOM      4  N   UNL     1       4.688   4.976   0.059  0.00  0.00    -0.112 NA
ATOM      5  N   UNL     1       3.668   4.016   0.056  0.00  0.00    -0.120 NA
ATOM      6  C   UNL     1       2.518   4.645   0.056  0.00  0.00    +0.198 A 
ATOM      7  N   UNL     1       4.800   7.379   0.080  0.00  0.00    -0.299 N 
ATOM      8  C   UNL     1       4.497   8.142   1.317  0.00  0.00    +0.108 C 
ATOM      9  C   UNL     1       5.673   9.147   1.410  0.00  0.00    +0.020 C 
ATOM     10  C   UNL     1       6.878   8.316   0.915  0.00  0.00    +0.020 C 
ATOM     11  C   UNL     1       6.265   7.178   0.078  0.00  0.00    +0.108 C 
BRANCH   2  16
ATOM     12  C   UNL     1      -1.115  10.127   0.103  0.00  0.00    +0.044 C 
ATOM     13  C   UNL     1      -0.083   9.029   0.094  0.00  0.00    -0.050 A 
ATOM     14  C   UNL     1       0.021   8.170   1.172  0.00  0.00    +0.005 A 
ATOM     15  C   UNL     1       0.966   7.162   1.166  0.00  0.00    +0.026 A 
ATOM     16  C   UNL     1       1.812   7.013   0.076  0.00  0.00    +0.052 A 
ATOM     17  C   UNL     1       1.710   7.880  -1.003  0.00  0.00    +0.026 A 
ATOM     18  C   UNL     1       0.759   8.882  -0.994  0.00  0.00    +0.005 A 
ENDBRANCH   2  16
ENDBRANCH   1   6
BRANCH   1  19
ATOM     19  C   UNL     1       1.280   2.114   0.036  0.00  0.00    +0.173 C 
BRANCH  19  20
ATOM     20  C   UNL     1      -0.015   1.343   0.030  0.00  0.00    +0.231 C 
ATOM     21  O   UNL     1      -1.073   1.935   0.030  0.00  0.00    -0.274 OA
ATOM     22  N   UNL     1       0.003  -0.004   0.018  0.00  0.00    -0.239 N 
ATOM     23  C   UNL     1      -1.155  -0.694   0.013  0.00  0.00    +0.310 C 
ATOM     24  O   UNL     1      -2.216  -0.100   0.018  0.00  0.00    -0.252 OA
ATOM     25  N   UNL     1      -1.137  -2.041   0.002  0.00  0.00    -0.269 N 
ATOM     26  H   UNL     1       0.963  -0.542   0.014  0.00  0.00    +0.159 HD
ATOM     27  H   UNL     1      -0.182  -2.578  -0.096  0.00  0.00    +0.156 HD
BRANCH  25  28
ATOM     28  C   UNL     1      -2.334  -2.758   0.115  0.00  0.00    +0.038 A 
ATOM     29  C   UNL     1      -3.435  -2.181   0.735  0.00  0.00    +0.023 A 
ATOM     30  C   UNL     1      -4.614  -2.891   0.845  0.00  0.00    +0.002 A 
ATOM     31  C   UNL     1      -4.700  -4.175   0.340  0.00  0.00    +0.004 A 
ATOM     32  C   UNL     1      -3.606  -4.753  -0.278  0.00  0.00    -0.046 A 
ATOM     33  C   UNL     1      -2.425  -4.045  -0.397  0.00  0.00    -0.026 A 
ATOM     34  C   UNL     1      -1.235  -4.673  -1.075  0.00  0.00    +0.046 C 
ATOM     35  C   UNL     1      -3.704  -6.152  -0.827  0.00  0.00    +0.044 C 
ENDBRANCH  25  28
ENDBRANCH  19  20
ENDBRANCH   1  19
TORSDOF 5
