REMARK  Name = ZINC34868903
REMARK  14 active torsions:
REMARK  status: ('A' for Active; 'I' for Inactive)
REMARK    1  A    between atoms: C_1  and  C_2
REMARK    2  A    between atoms: C_2  and  C_3
REMARK    3  A    between atoms: C_3  and  C_4
REMARK    4  A    between atoms: C_4  and  N_5
REMARK    5  A    between atoms: C_13  and  C_15
REMARK    6  A    between atoms: C_16  and  C_18
REMARK    7  A    between atoms: C_18  and  C_20
REMARK    8  A    between atoms: C_18  and  N_25
REMARK    9  A    between atoms: C_20  and  C_22
REMARK   10  A    between atoms: C_20  and  C_23
REMARK   11  A    between atoms: C_23  and  C_24
REMARK   12  A    between atoms: N_25  and  S_26
REMARK   13  A    between atoms: S_26  and  C_29
REMARK   14  A    between atoms: C_33  and  N_35
REMARK                            x       y       z     vdW  Elec       q    Type
REMARK                         _______ _______ _______ _____ _____    ______ ____
ROOT
ATOM      1  C   UNL     1       5.456  -4.433   7.166  0.00  0.00    +0.165 C 
ENDROOT
BRANCH   1  12
ATOM      2  N   UNL     1      -0.956  -3.623   5.572  0.00  0.00    -0.299 N 
ATOM      3  C   UNL     1      -0.514  -4.881   5.768  0.00  0.00    +0.303 C 
ATOM      4  O   UNL     1      -1.225  -5.827   5.488  0.00  0.00    -0.253 OA
ATOM      5  N   UNL     1       0.717  -5.091   6.276  0.00  0.00    -0.280 N 
ATOM      6  C   UNL     1       1.543  -3.962   6.726  0.00  0.00    +0.128 C 
ATOM      7  C   UNL     1       2.890  -4.017   5.994  0.00  0.00    +0.127 C 
ATOM      8  N   UNL     1       3.430  -5.379   6.107  0.00  0.00    -0.297 N 
ATOM      9  C   UNL     1       2.604  -6.508   5.657  0.00  0.00    +0.130 C 
ATOM     10  C   UNL     1       1.255  -6.453   6.394  0.00  0.00    +0.092 C 
ATOM     11  C   UNL     1       0.280  -7.447   5.760  0.00  0.00    +0.030 C 
ATOM     12  C   UNL     1       4.661  -5.589   6.615  0.00  0.00    +0.235 C 
ATOM     13  O   UNL     1       5.129  -6.707   6.627  0.00  0.00    -0.274 OA
ATOM     14  H   UNL     1      -0.420  -2.869   5.863  0.00  0.00    +0.150 HD
BRANCH   2  15
ATOM     15  C   UNL     1      -2.248  -3.395   4.919  0.00  0.00    +0.106 C 
BRANCH  15  16
ATOM     16  C   UNL     1      -2.510  -1.891   4.820  0.00  0.00    +0.018 C 
BRANCH  16  18
ATOM     17  C   UNL     1      -4.121  -0.148   4.039  0.00  0.00    +0.004 C 
ATOM     18  C   UNL     1      -3.859  -1.652   4.138  0.00  0.00    -0.002 C 
ENDBRANCH  16  18
ENDBRANCH  15  16
ENDBRANCH   2  15
ENDBRANCH   1  12
BRANCH   1  19
ATOM     19  C   UNL     1       5.834  -3.485   6.027  0.00  0.00    +0.013 C 
ATOM     20  C   UNL     1       6.508  -2.238   6.604  0.00  0.00    +0.009 C 
BRANCH  19  21
ATOM     21  C   UNL     1       6.800  -4.192   5.074  0.00  0.00    +0.002 C 
ATOM     22  C   UNL     1       7.080  -3.290   3.870  0.00  0.00    +0.004 C 
ENDBRANCH  19  21
ENDBRANCH   1  19
BRANCH   1  23
ATOM     23  N   UNL     1       6.673  -4.939   7.806  0.00  0.00    -0.178 NA
ATOM     24  H   UNL     1       7.297  -5.483   7.299  0.00  0.00    +0.149 HD
BRANCH  23  25
ATOM     25  S   UNL     1       6.985  -4.581   9.392  0.00  0.00    +0.059 S 
ATOM     26  O   UNL     1       8.210  -5.221   9.720  0.00  0.00    -0.153 OA
ATOM     27  O   UNL     1       6.794  -3.180   9.538  0.00  0.00    -0.153 OA
BRANCH  25  28
ATOM     28  C   UNL     1       5.735  -5.363  10.357  0.00  0.00    +0.108 A 
ATOM     29  C   UNL     1       4.561  -4.690  10.644  0.00  0.00    +0.030 A 
ATOM     30  C   UNL     1       3.581  -5.303  11.401  0.00  0.00    +0.024 A 
ATOM     31  C   UNL     1       3.774  -6.590  11.872  0.00  0.00    +0.071 A 
ATOM     32  C   UNL     1       4.948  -7.262  11.585  0.00  0.00    +0.146 A 
ATOM     33  C   UNL     1       5.926  -6.650  10.823  0.00  0.00    +0.062 A 
ATOM     34 CL   UNL     1       2.542  -7.360  12.823  0.00  0.00    -0.081 Cl
BRANCH  32  35
ATOM     35  N   UNL     1       5.155  -8.638  12.088  0.00  0.00    +0.058 N 
ATOM     36  O   UNL     1       6.181  -9.226  11.837  0.00  0.00    -0.126 OA
ATOM     37  O   UNL     1       4.298  -9.175  12.750  0.00  0.00    -0.126 OA
ENDBRANCH  32  35
ENDBRANCH  25  28
ENDBRANCH  23  25
ENDBRANCH   1  23
TORSDOF 10
