REMARK  Name = ZINC12602805
REMARK  7 active torsions:
REMARK  status: ('A' for Active; 'I' for Inactive)
REMARK    1  A    between atoms: C_1  and  N_2
REMARK    2  A    between atoms: C_3  and  C_14
REMARK    3  A    between atoms: C_5  and  C_7
REMARK    4  A    between atoms: C_22  and  C_24
REMARK    5  A    between atoms: C_24  and  N_25
REMARK    6  A    between atoms: N_28  and  C_29
REMARK    7  A    between atoms: C_33  and  C_35
REMARK                            x       y       z     vdW  Elec       q    Type
REMARK                         _______ _______ _______ _____ _____    ______ ____
ROOT
ATOM      1  C   UNL     1       3.630   0.616   0.238  0.00  0.00    +0.024 C 
ATOM      2  C   UNL     1       4.002   0.661   1.723  0.00  0.00    -0.068 C 
ATOM      3  C   UNL     1       6.047  -0.570   1.302  0.00  0.00    -0.078 C 
ATOM      4  C   UNL     1       5.734  -0.646  -0.195  0.00  0.00    -0.015 C 
ATOM      5  C   UNL     1       4.211  -0.660  -0.382  0.00  0.00    -0.007 C 
ATOM      6  C   UNL     1       3.638  -1.872   0.364  0.00  0.00    -0.010 C 
ATOM      7  C   UNL     1       4.010  -1.762   1.845  0.00  0.00    -0.051 C 
ATOM      8  N   UNL     1       4.797  -0.534   2.090  0.00  0.00    +0.383 N 
ATOM      9  H   UNL     1       5.033  -0.483   3.088  0.00  0.00    -0.081 HD
ENDROOT
BRANCH   1  12
ATOM     10  C   UNL     1       1.629   2.499   1.666  0.00  0.00    +0.172 C 
ATOM     11  N   UNL     1       1.268   1.438   0.722  0.00  0.00    -0.271 N 
ATOM     12  C   UNL     1       2.130   0.611   0.092  0.00  0.00    +0.041 A 
ATOM     13  C   UNL     1       1.411  -0.222  -0.692  0.00  0.00    +0.053 A 
ATOM     14  C   UNL     1       0.051   0.107  -0.537  0.00  0.00    +0.093 A 
ATOM     15  N   UNL     1      -0.030   1.107   0.314  0.00  0.00    -0.171 NA
BRANCH  14  16
ATOM     16  C   UNL     1      -1.091  -0.556  -1.216  0.00  0.00    +0.002 A 
ATOM     17  C   UNL     1      -0.861  -1.605  -2.104  0.00  0.00    +0.013 A 
ATOM     18  C   UNL     1      -1.926  -2.224  -2.727  0.00  0.00    +0.039 A 
ATOM     19  C   UNL     1      -3.220  -1.795  -2.481  0.00  0.00    +0.123 A 
ATOM     20  C   UNL     1      -3.452  -0.748  -1.604  0.00  0.00    +0.039 A 
ATOM     21  C   UNL     1      -2.394  -0.128  -0.971  0.00  0.00    +0.013 A 
ATOM     22  F   UNL     1      -4.259  -2.399  -3.099  0.00  0.00    -0.205 F 
ENDBRANCH  14  16
ENDBRANCH   1  12
BRANCH   7  23
ATOM     23  C   UNL     1       2.735  -1.712   2.689  0.00  0.00    +0.090 C 
BRANCH  23  24
ATOM     24  N   UNL     1       3.087  -1.484   4.093  0.00  0.00    -0.301 N 
ATOM     25  C   UNL     1       2.118  -1.403   5.026  0.00  0.00    +0.304 C 
ATOM     26  O   UNL     1       0.952  -1.519   4.703  0.00  0.00    -0.253 OA
ATOM     27  N   UNL     1       2.442  -1.193   6.318  0.00  0.00    -0.269 N 
ATOM     28  H   UNL     1       4.017  -1.391   4.351  0.00  0.00    +0.150 HD
ATOM     29  H   UNL     1       3.365  -1.026   6.565  0.00  0.00    +0.156 HD
BRANCH  27  30
ATOM     30  C   UNL     1       1.447  -1.217   7.302  0.00  0.00    +0.036 A 
ATOM     31  C   UNL     1       1.539  -0.376   8.404  0.00  0.00    +0.023 A 
ATOM     32  C   UNL     1       0.557  -0.392   9.376  0.00  0.00    +0.003 A 
ATOM     33  C   UNL     1      -0.517  -1.251   9.264  0.00  0.00    +0.019 A 
ATOM     34  C   UNL     1      -0.617  -2.105   8.164  0.00  0.00    +0.054 A 
ATOM     35  C   UNL     1       0.373  -2.084   7.179  0.00  0.00    +0.042 A 
BRANCH  34  36
ATOM     36  C   UNL     1      -1.730  -2.998   8.045  0.00  0.00    +0.099 C 
ATOM     37  N   UNL     1      -2.613  -3.707   7.951  0.00  0.00    -0.191 NA
ENDBRANCH  34  36
ENDBRANCH  27  30
ENDBRANCH  23  24
ENDBRANCH   7  23
TORSDOF 6
