REMARK  Name = ZINC44360719
REMARK  9 active torsions:
REMARK  status: ('A' for Active; 'I' for Inactive)
REMARK    1  A    between atoms: C_1  and  C_2
REMARK    2  A    between atoms: C_2  and  O_3
REMARK    3  A    between atoms: O_3  and  C_4
REMARK    4  A    between atoms: C_4  and  C_6
REMARK    5  A    between atoms: C_6  and  C_8
REMARK    6  A    between atoms: C_6  and  N_28
REMARK    7  A    between atoms: C_8  and  C_9
REMARK    8  A    between atoms: C_10  and  C_19
REMARK    9  A    between atoms: C_22  and  N_25
REMARK                            x       y       z     vdW  Elec       q    Type
REMARK                         _______ _______ _______ _____ _____    ______ ____
ROOT
ATOM      1  C   UNL     1       3.462  -2.817  -3.734  0.00  0.00    +0.050 A 
ATOM      2  C   UNL     1       4.120  -4.000  -3.886  0.00  0.00    +0.093 A 
ATOM      3  N   UNL     1       4.893  -3.914  -4.980  0.00  0.00    -0.228 NA
ATOM      4  C   UNL     1       4.745  -2.714  -5.523  0.00  0.00    +0.139 A 
ATOM      5  N   UNL     1       3.848  -2.007  -4.764  0.00  0.00    -0.302 N 
ATOM      6  C   UNL     1       3.508  -0.730  -5.108  0.00  0.00    +0.108 A 
ATOM      7  C   UNL     1       4.045  -0.145  -6.201  0.00  0.00    +0.034 A 
ATOM      8  C   UNL     1       4.964  -0.846  -7.000  0.00  0.00    +0.020 A 
ATOM      9  C   UNL     1       5.318  -2.116  -6.663  0.00  0.00    +0.048 A 
ATOM     10 BR   UNL     1       3.557   1.624  -6.658  0.00  0.00    -0.049 Br
ENDROOT
BRANCH   2  11
ATOM     11  C   UNL     1       4.002  -5.181  -2.996  0.00  0.00    +0.002 A 
ATOM     12  C   UNL     1       3.896  -6.460  -3.541  0.00  0.00    +0.012 A 
ATOM     13  C   UNL     1       3.787  -7.555  -2.708  0.00  0.00    +0.033 A 
ATOM     14  C   UNL     1       3.781  -7.385  -1.335  0.00  0.00    +0.126 A 
ATOM     15  C   UNL     1       3.885  -6.119  -0.789  0.00  0.00    +0.033 A 
ATOM     16  C   UNL     1       4.001  -5.017  -1.613  0.00  0.00    +0.012 A 
BRANCH  14  17
ATOM     17  N   UNL     1       3.664  -8.564  -0.447  0.00  0.00    +0.056 N 
ATOM     18  O   UNL     1       3.572  -9.672  -0.922  0.00  0.00    -0.126 OA
ATOM     19  O   UNL     1       3.659  -8.418   0.753  0.00  0.00    -0.126 OA
ENDBRANCH  14  17
ENDBRANCH   2  11
BRANCH   1  20
ATOM     20  C   UNL     1       2.487  -2.469  -2.638  0.00  0.00    +0.051 C 
BRANCH  20  21
ATOM     21  C   UNL     1       1.060  -2.730  -3.123  0.00  0.00    +0.042 C 
BRANCH  21  22
ATOM     22  N   UNL     1       0.879  -4.168  -3.362  0.00  0.00    +0.387 N 
ATOM     23  H   UNL     1       1.041  -4.674  -2.505  0.00  0.00    -0.089 HD
ATOM     24  H   UNL     1      -0.062  -4.340  -3.682  0.00  0.00    -0.089 HD
ATOM     25  H   UNL     1       1.535  -4.477  -4.064  0.00  0.00    -0.089 HD
ENDBRANCH  21  22
BRANCH  21  26
ATOM     26  C   UNL     1       0.081  -2.267  -2.075  0.00  0.00    +0.293 C 
ATOM     27  O   UNL     1      -0.427  -3.069  -1.327  0.00  0.00    -0.253 OA
BRANCH  26  28
ATOM     28  O   UNL     1      -0.228  -0.965  -1.973  0.00  0.00    -0.466 OA
BRANCH  28  30
ATOM     29  C   UNL     1      -1.388   0.915  -0.994  0.00  0.00    +0.048 C 
ATOM     30  C   UNL     1      -1.163  -0.598  -0.957  0.00  0.00    +0.228 C 
ENDBRANCH  28  30
ENDBRANCH  26  28
ENDBRANCH  21  26
ENDBRANCH  20  21
ENDBRANCH   1  20
TORSDOF 8
