REMARK  Name = ZINC08845478
REMARK  9 active torsions:
REMARK  status: ('A' for Active; 'I' for Inactive)
REMARK    1  A    between atoms: C_1  and  C_2
REMARK    2  A    between atoms: C_2  and  O_3
REMARK    3  A    between atoms: O_3  and  C_4
REMARK    4  A    between atoms: C_6  and  C_11
REMARK    5  A    between atoms: C_9  and  O_10
REMARK    6  A    between atoms: C_14  and  C_32
REMARK    7  A    between atoms: N_21  and  C_22
REMARK    8  A    between atoms: C_22  and  C_23
REMARK    9  A    between atoms: C_37  and  O_38
REMARK                            x       y       z     vdW  Elec       q    Type
REMARK                         _______ _______ _______ _____ _____    ______ ____
ROOT
ATOM      1  C   UNL     1       0.227  -4.852  -0.401  0.00  0.00    +0.142 C 
ATOM      2  C   UNL     1       0.887  -5.193  -1.708  0.00  0.00    +0.035 A 
ATOM      3  C   UNL     1       1.516  -4.729  -2.869  0.00  0.00    +0.102 A 
ATOM      4  N   UNL     1       1.834  -5.784  -3.593  0.00  0.00    -0.173 NA
ATOM      5  N   UNL     1       1.469  -6.867  -3.005  0.00  0.00    -0.272 N 
ATOM      6  H   UNL     1       1.602  -7.763  -3.354  0.00  0.00    +0.189 HD
ATOM      7  C   UNL     1       0.868  -6.571  -1.815  0.00  0.00    +0.126 A 
ATOM      8  C   UNL     1       0.217  -7.123  -0.622  0.00  0.00    +0.266 C 
ATOM      9  O   UNL     1       0.044  -8.308  -0.411  0.00  0.00    -0.268 OA
ATOM     10  N   UNL     1      -0.159  -6.131   0.209  0.00  0.00    -0.281 N 
ENDROOT
BRANCH   3  11
ATOM     11  C   UNL     1       1.776  -3.311  -3.220  0.00  0.00    +0.047 A 
ATOM     12  C   UNL     1       1.500  -2.302  -2.301  0.00  0.00    +0.052 A 
ATOM     13  C   UNL     1       1.745  -0.982  -2.633  0.00  0.00    +0.124 A 
ATOM     14  C   UNL     1       2.262  -0.661  -3.877  0.00  0.00    +0.042 A 
ATOM     15  C   UNL     1       2.538  -1.657  -4.795  0.00  0.00    +0.049 A 
ATOM     16  C   UNL     1       2.303  -2.984  -4.472  0.00  0.00    +0.126 A 
ATOM     17  F   UNL     1       1.478  -0.003  -1.741  0.00  0.00    -0.205 F 
BRANCH  16  18
ATOM     18  O   UNL     1       2.579  -3.964  -5.372  0.00  0.00    -0.506 OA
ATOM     19  H   UNL     1       1.841  -4.178  -5.959  0.00  0.00    +0.292 HD
ENDBRANCH  16  18
ENDBRANCH   3  11
BRANCH   1  22
ATOM     20  C   UNL     1      -2.206  -1.963  -0.301  0.00  0.00    +0.162 A 
ATOM     21  C   UNL     1      -1.083  -2.744  -0.079  0.00  0.00    +0.055 A 
ATOM     22  C   UNL     1      -0.995  -4.004  -0.643  0.00  0.00    -0.019 A 
ATOM     23  C   UNL     1      -2.025  -4.487  -1.428  0.00  0.00    +0.009 A 
ATOM     24  C   UNL     1      -3.148  -3.712  -1.654  0.00  0.00    +0.049 A 
ATOM     25  C   UNL     1      -3.245  -2.451  -1.087  0.00  0.00    +0.158 A 
BRANCH  25  26
ATOM     26  O   UNL     1      -4.352  -1.691  -1.303  0.00  0.00    -0.503 OA
ATOM     27  H   UNL     1      -4.293  -1.123  -2.083  0.00  0.00    +0.292 HD
ENDBRANCH  25  26
BRANCH  20  28
ATOM     28  O   UNL     1      -2.294  -0.724   0.253  0.00  0.00    -0.489 OA
BRANCH  28  30
ATOM     29  C   UNL     1      -1.397   1.185   1.431  0.00  0.00    +0.048 C 
ATOM     30  C   UNL     1      -1.160  -0.260   0.988  0.00  0.00    +0.226 C 
ENDBRANCH  28  30
ENDBRANCH  20  28
ENDBRANCH   1  22
BRANCH  10  31
ATOM     31  C   UNL     1      -0.835  -6.299   1.497  0.00  0.00    +0.144 C 
BRANCH  31  32
ATOM     32  C   UNL     1      -2.328  -6.288   1.286  0.00  0.00    -0.026 A 
ATOM     33  C   UNL     1      -3.022  -5.093   1.332  0.00  0.00    +0.009 A 
ATOM     34  C   UNL     1      -4.390  -5.078   1.139  0.00  0.00    +0.050 A 
ATOM     35  C   UNL     1      -5.070  -6.261   0.898  0.00  0.00    +0.166 A 
ATOM     36  C   UNL     1      -4.371  -7.464   0.852  0.00  0.00    +0.167 A 
ATOM     37  C   UNL     1      -2.998  -7.471   1.041  0.00  0.00    +0.054 A 
ATOM     38  O   UNL     1      -5.255  -8.474   0.603  0.00  0.00    -0.453 OA
ATOM     39  C   UNL     1      -6.554  -7.929   0.903  0.00  0.00    +0.466 C 
ATOM     40  O   UNL     1      -6.393  -6.516   0.679  0.00  0.00    -0.453 OA
ENDBRANCH  31  32
ENDBRANCH  10  31
TORSDOF 8
