REMARK  Name = ZINC39665460
REMARK  9 active torsions:
REMARK  status: ('A' for Active; 'I' for Inactive)
REMARK    1  A    between atoms: C_1  and  C_2
REMARK    2  A    between atoms: C_7  and  C_8
REMARK    3  A    between atoms: C_8  and  C_9
REMARK    4  A    between atoms: C_13  and  C_22
REMARK    5  A    between atoms: N_24  and  C_25
REMARK    6  A    between atoms: C_25  and  C_26
REMARK    7  A    between atoms: C_26  and  C_28
REMARK    8  A    between atoms: C_26  and  O_29
REMARK    9  A    between atoms: O_29  and  C_30
REMARK                            x       y       z     vdW  Elec       q    Type
REMARK                         _______ _______ _______ _____ _____    ______ ____
ROOT
ATOM      1  C   UNL     1       0.668   0.130   2.701  0.00  0.00    +0.220 C 
ATOM      2  O   UNL     1      -0.115  -0.464   1.990  0.00  0.00    -0.275 OA
ATOM      3  N   UNL     1       0.251   0.661   3.868  0.00  0.00    -0.300 N 
ATOM      4  C   UNL     1       1.051   1.419   4.858  0.00  0.00    +0.121 C 
ATOM      5  C   UNL     1       0.109   2.545   5.341  0.00  0.00    +0.100 C 
ATOM      6  C   UNL     1      -1.308   2.013   5.072  0.00  0.00    -0.004 C 
ATOM      7  C   UNL     1      -1.113   0.625   4.446  0.00  0.00    +0.115 C 
ATOM      8  C   UNL     1      -2.039   2.928   4.094  0.00  0.00    -0.010 C 
ATOM      9  C   UNL     1      -3.465   2.410   3.886  0.00  0.00    -0.082 C 
ATOM     10  N   UNL     1      -4.168   2.377   5.175  0.00  0.00    +0.379 N 
ATOM     11  C   UNL     1      -3.512   1.425   6.079  0.00  0.00    -0.082 C 
ATOM     12  C   UNL     1      -2.088   1.901   6.378  0.00  0.00    -0.010 C 
ATOM     13  H   UNL     1      -4.152   3.297   5.588  0.00  0.00    -0.086 HD
ATOM     14  H   UNL     1      -5.125   2.094   5.027  0.00  0.00    -0.086 HD
ENDROOT
BRANCH   5  15
ATOM     15  C   UNL     1       0.356   3.808   4.557  0.00  0.00    +0.218 C 
ATOM     16  O   UNL     1       0.756   3.744   3.413  0.00  0.00    -0.275 OA
ATOM     17  N   UNL     1       0.133   5.009   5.126  0.00  0.00    -0.312 N 
ATOM     18  H   UNL     1      -0.187   5.061   6.040  0.00  0.00    +0.149 HD
BRANCH  17  19
ATOM     19  C   UNL     1       0.372   6.237   4.363  0.00  0.00    +0.148 C 
BRANCH  19  20
ATOM     20  C   UNL     1       0.043   7.451   5.234  0.00  0.00    +0.187 C 
ATOM     21  C   UNL     1       0.173   8.727   4.401  0.00  0.00    +0.053 C 
BRANCH  20  22
ATOM     22  O   UNL     1       0.951   7.507   6.336  0.00  0.00    -0.488 OA
BRANCH  22  23
ATOM     23  C   UNL     1       0.526   8.153   7.454  0.00  0.00    +0.121 A 
ATOM     24  C   UNL     1      -0.696   8.809   7.455  0.00  0.00    +0.045 A 
ATOM     25  C   UNL     1      -1.126   9.464   8.592  0.00  0.00    +0.004 A 
ATOM     26  C   UNL     1      -0.339   9.467   9.729  0.00  0.00    +0.000 A 
ATOM     27  C   UNL     1       0.880   8.814   9.731  0.00  0.00    +0.004 A 
ATOM     28  C   UNL     1       1.311   8.152   8.598  0.00  0.00    +0.045 A 
ENDBRANCH  22  23
ENDBRANCH  20  22
ENDBRANCH  19  20
ENDBRANCH  17  19
ENDBRANCH   5  15
BRANCH   1  29
ATOM     29  C   UNL     1       2.108   0.272   2.281  0.00  0.00    +0.131 C 
BRANCH  29  36
ATOM     30  C   UNL     1       1.540   1.698  -0.167  0.00  0.00    +0.044 C 
ATOM     31  C   UNL     1       2.041   0.277  -0.221  0.00  0.00    -0.047 A 
ATOM     32  C   UNL     1       2.233  -0.342  -1.442  0.00  0.00    +0.003 A 
ATOM     33  C   UNL     1       2.692  -1.645  -1.492  0.00  0.00    +0.000 A 
ATOM     34  C   UNL     1       2.959  -2.329  -0.320  0.00  0.00    +0.000 A 
ATOM     35  C   UNL     1       2.767  -1.709   0.900  0.00  0.00    +0.004 A 
ATOM     36  C   UNL     1       2.312  -0.405   0.950  0.00  0.00    -0.036 A 
ENDBRANCH  29  36
ENDBRANCH   1  29
TORSDOF 7
