REMARK  Name = ZINC09612394
REMARK  10 active torsions:
REMARK  status: ('A' for Active; 'I' for Inactive)
REMARK    1  A    between atoms: C_1  and  C_2
REMARK    2  A    between atoms: C_2  and  N_31
REMARK    3  A    between atoms: C_3  and  C_4
REMARK    4  A    between atoms: C_3  and  C_6
REMARK    5  A    between atoms: C_6  and  C_8
REMARK    6  A    between atoms: C_8  and  O_9
REMARK    7  A    between atoms: O_9  and  C_10
REMARK    8  A    between atoms: C_10  and  C_12
REMARK    9  A    between atoms: C_15  and  S_18
REMARK   10  A    between atoms: S_18  and  N_21
REMARK                            x       y       z     vdW  Elec       q    Type
REMARK                         _______ _______ _______ _____ _____    ______ ____
ROOT
ATOM      1  C   UNL     1      -1.301   2.104   0.038  0.00  0.00    +0.059 A 
ATOM      2  C   UNL     1      -1.287   3.498  -0.036  0.00  0.00    +0.017 A 
ATOM      3  C   UNL     1      -2.476   4.196  -0.071  0.00  0.00    +0.029 A 
ATOM      4  C   UNL     1      -3.682   3.518  -0.021  0.00  0.00    +0.109 A 
ATOM      5  C   UNL     1      -3.703   2.137   0.058  0.00  0.00    +0.029 A 
ATOM      6  C   UNL     1      -2.521   1.426   0.088  0.00  0.00    +0.017 A 
ENDROOT
BRANCH   4   7
ATOM      7  S   UNL     1      -5.196   4.418  -0.059  0.00  0.00    +0.075 S 
ATOM      8  O   UNL     1      -4.913   5.662  -0.685  0.00  0.00    -0.150 OA
ATOM      9  O   UNL     1      -6.186   3.526  -0.551  0.00  0.00    -0.150 OA
BRANCH   7  10
ATOM     10  N   UNL     1      -5.603   4.759   1.510  0.00  0.00    -0.203 N 
ATOM     11  C   UNL     1      -6.525   3.886   2.248  0.00  0.00    +0.132 C 
ATOM     12  C   UNL     1      -7.523   4.774   2.993  0.00  0.00    +0.025 C 
ATOM     13  C   UNL     1      -6.766   5.628   4.011  0.00  0.00    +0.038 C 
ATOM     14  C   UNL     1      -5.611   6.334   3.350  0.00  0.00    -0.025 A 
ATOM     15  C   UNL     1      -5.078   5.886   2.152  0.00  0.00    +0.054 A 
ATOM     16  C   UNL     1      -4.008   6.559   1.572  0.00  0.00    +0.025 A 
ATOM     17  C   UNL     1      -3.478   7.675   2.188  0.00  0.00    +0.002 A 
ATOM     18  C   UNL     1      -4.012   8.123   3.382  0.00  0.00    +0.000 A 
ATOM     19  C   UNL     1      -5.075   7.455   3.960  0.00  0.00    +0.005 A 
ENDBRANCH   7  10
ENDBRANCH   4   7
BRANCH   1  20
ATOM     20  C   UNL     1      -0.032   1.349   0.069  0.00  0.00    +0.340 C 
ATOM     21  O   UNL     1      -0.048   0.136   0.139  0.00  0.00    -0.245 OA
BRANCH  20  22
ATOM     22  O   UNL     1       1.143   2.005   0.015  0.00  0.00    -0.453 OA
BRANCH  22  23
ATOM     23  C   UNL     1       2.351   1.199   0.044  0.00  0.00    +0.312 C 
BRANCH  23  24
ATOM     24  C   UNL     1       3.557   2.099  -0.024  0.00  0.00    +0.212 C 
ATOM     25  O   UNL     1       3.414   3.303  -0.091  0.00  0.00    -0.288 OA
BRANCH  24  28
ATOM     26  C   UNL     1       5.311   2.787   2.114  0.00  0.00    +0.061 C 
ATOM     27  C   UNL     1       5.758   1.908   0.974  0.00  0.00    +0.019 C 
ATOM     28  C   UNL     1       4.858   1.541  -0.011  0.00  0.00    +0.114 C 
BRANCH  27  29
ATOM     29  N   UNL     1       7.036   1.479   0.914  0.00  0.00    -0.360 N 
ATOM     30  H   UNL     1       7.362   0.837   0.082  0.00  0.00    +0.142 HD
ATOM     31  H   UNL     1       7.752   1.771   1.696  0.00  0.00    +0.142 HD
ENDBRANCH  27  29
BRANCH  28  32
ATOM     32  C   UNL     1       5.243   0.596  -1.016  0.00  0.00    +0.104 C 
ATOM     33  N   UNL     1       5.548  -0.153  -1.814  0.00  0.00    -0.191 NA
ENDBRANCH  28  32
ENDBRANCH  24  28
ENDBRANCH  23  24
ENDBRANCH  22  23
ENDBRANCH  20  22
ENDBRANCH   1  20
TORSDOF 9
