REMARK  Name = ZINC13024263
REMARK  13 active torsions:
REMARK  status: ('A' for Active; 'I' for Inactive)
REMARK    1  A    between atoms: C_1  and  C_2
REMARK    2  A    between atoms: C_2  and  C_3
REMARK    3  A    between atoms: C_3  and  C_4
REMARK    4  A    between atoms: C_3  and  C_5
REMARK    5  A    between atoms: C_3  and  N_6
REMARK    6  A    between atoms: C_7  and  C_9
REMARK    7  A    between atoms: C_9  and  C_11
REMARK    8  A    between atoms: C_9  and  N_18
REMARK    9  A    between atoms: N_18  and  C_19
REMARK   10  A    between atoms: C_23  and  C_25
REMARK   11  A    between atoms: C_25  and  C_27
REMARK   12  A    between atoms: C_28  and  C_30
REMARK   13  A    between atoms: C_30  and  N_31
REMARK                            x       y       z     vdW  Elec       q    Type
REMARK                         _______ _______ _______ _____ _____    ______ ____
ROOT
ATOM      1  N   UNL     1      -5.674   3.271  -1.689  0.00  0.00    -0.254 N 
ATOM      2  C   UNL     1      -4.418   3.477  -1.248  0.00  0.00    +0.242 C 
ATOM      3  O   UNL     1      -3.559   3.855  -2.016  0.00  0.00    -0.273 OA
ENDROOT
BRANCH   1   4
ATOM      4  C   UNL     1      -6.689   2.941  -0.783  0.00  0.00    +0.038 A 
ATOM      5  C   UNL     1      -7.200   1.648  -0.754  0.00  0.00    +0.023 A 
ATOM      6  C   UNL     1      -8.202   1.315   0.138  0.00  0.00    +0.002 A 
ATOM      7  C   UNL     1      -8.703   2.263   1.007  0.00  0.00    +0.011 A 
ATOM      8  C   UNL     1      -8.196   3.566   0.987  0.00  0.00    +0.019 A 
ATOM      9  C   UNL     1      -7.179   3.900   0.087  0.00  0.00    +0.035 A 
BRANCH   8  10
ATOM     10  C   UNL     1      -8.727   4.580   1.912  0.00  0.00    +0.160 C 
ATOM     11  O   UNL     1      -8.286   5.709   1.892  0.00  0.00    -0.292 OA
ATOM     12  C   UNL     1      -9.819   4.215   2.884  0.00  0.00    +0.091 C 
ENDBRANCH   8  10
ENDBRANCH   1   4
BRANCH   1  13
ATOM     13  C   UNL     1      -5.978   3.393  -3.117  0.00  0.00    +0.200 C 
BRANCH  13  14
ATOM     14  C   UNL     1      -5.285   2.291  -3.874  0.00  0.00    +0.017 A 
ATOM     15  C   UNL     1      -4.966   1.107  -3.235  0.00  0.00    +0.009 A 
ATOM     16  C   UNL     1      -4.335   0.093  -3.931  0.00  0.00    +0.001 A 
ATOM     17  C   UNL     1      -4.011   0.266  -5.264  0.00  0.00    +0.003 A 
ATOM     18  C   UNL     1      -4.324   1.450  -5.904  0.00  0.00    +0.039 A 
ATOM     19  C   UNL     1      -4.961   2.465  -5.209  0.00  0.00    +0.129 A 
ATOM     20  F   UNL     1      -5.267   3.623  -5.833  0.00  0.00    -0.205 F 
ENDBRANCH  13  14
BRANCH  13  22
ATOM     21  N   UNL     1      -7.968   3.192  -4.572  0.00  0.00    -0.308 N 
ATOM     22  C   UNL     1      -7.467   3.286  -3.325  0.00  0.00    +0.239 C 
ATOM     23  O   UNL     1      -8.214   3.284  -2.369  0.00  0.00    -0.273 OA
ATOM     24  H   UNL     1      -7.371   3.194  -5.336  0.00  0.00    +0.149 HD
BRANCH  21  25
ATOM     25  C   UNL     1      -9.415   3.088  -4.774  0.00  0.00    +0.029 C 
ATOM     26  C   UNL     1      -9.940   1.835  -4.070  0.00  0.00    +0.031 C 
ATOM     27  C   UNL     1     -10.102   4.325  -4.192  0.00  0.00    +0.031 C 
BRANCH  25  29
ATOM     28  C   UNL     1     -11.228   2.886  -6.482  0.00  0.00    +0.006 C 
ATOM     29  C   UNL     1      -9.716   2.995  -6.271  0.00  0.00    +0.022 C 
ENDBRANCH  25  29
ENDBRANCH  21  25
ENDBRANCH  13  22
ENDBRANCH   1  13
BRANCH   2  30
ATOM     30  C   UNL     1      -4.079   3.237   0.201  0.00  0.00    +0.242 C 
BRANCH  30  31
ATOM     31  N   UNL     1      -2.638   3.409   0.401  0.00  0.00    -0.235 N 
ATOM     32  C   UNL     1      -1.672   2.437   0.299  0.00  0.00    +0.090 A 
ATOM     33  C   UNL     1      -1.694   1.080  -0.003  0.00  0.00    +0.029 A 
ATOM     34  C   UNL     1      -0.528   0.368  -0.020  0.00  0.00    +0.002 A 
ATOM     35  C   UNL     1       0.684   0.990   0.252  0.00  0.00    +0.002 A 
ATOM     36  C   UNL     1       0.734   2.321   0.546  0.00  0.00    +0.032 A 
ATOM     37  C   UNL     1      -0.449   3.073   0.575  0.00  0.00    +0.113 A 
ATOM     38  N   UNL     1      -0.710   4.371   0.827  0.00  0.00    -0.129 NA
ATOM     39  N   UNL     1      -1.973   4.599   0.734  0.00  0.00    -0.064 NA
ENDBRANCH  30  31
ENDBRANCH   2  30
TORSDOF 9
