REMARK  Name = ZINC16686002
REMARK  14 active torsions:
REMARK  status: ('A' for Active; 'I' for Inactive)
REMARK    1  A    between atoms: C_1  and  C_2
REMARK    2  A    between atoms: C_2  and  C_3
REMARK    3  A    between atoms: C_3  and  C_5
REMARK    4  A    between atoms: C_3  and  N_63
REMARK    5  A    between atoms: C_8  and  S_17
REMARK    6  A    between atoms: N_9  and  C_10
REMARK    7  A    between atoms: C_10  and  C_11
REMARK    8  A    between atoms: S_17  and  C_18
REMARK    9  A    between atoms: C_18  and  C_19
REMARK   10  A    between atoms: C_19  and  C_21
REMARK   11  A    between atoms: C_22  and  N_33
REMARK   12  A    between atoms: N_23  and  C_30
REMARK   13  A    between atoms: C_34  and  N_63
REMARK   14  A    between atoms: C_35  and  N_63
REMARK                            x       y       z     vdW  Elec       q    Type
REMARK                         _______ _______ _______ _____ _____    ______ ____
ROOT
ATOM      1  C   UNL     1      -7.192   4.332  -0.035  0.00  0.00    +0.121 A 
ATOM      2  N   UNL     1      -6.027   4.909   0.061  0.00  0.00    -0.135 NA
ATOM      3  N   UNL     1      -5.092   4.037  -0.072  0.00  0.00    -0.123 NA
ATOM      4  C   UNL     1      -5.614   2.849  -0.270  0.00  0.00    +0.192 A 
ATOM      5  N   UNL     1      -6.971   3.000  -0.249  0.00  0.00    -0.303 N 
ENDROOT
BRANCH   1   6
ATOM      6  C   UNL     1      -8.535   5.009   0.070  0.00  0.00    +0.000 C 
BRANCH   6   9
ATOM      7  C   UNL     1      -8.257   5.133   2.473  0.00  0.00    -0.096 C 
ATOM      8  C   UNL     1      -7.609   7.005   1.081  0.00  0.00    -0.096 C 
ATOM      9  N   UNL     1      -8.575   5.899   1.249  0.00  0.00    +0.383 N 
ATOM     10  H   UNL     1      -9.520   6.292   1.338  0.00  0.00    -0.082 HD
ENDBRANCH   6   9
BRANCH   6  12
ATOM     11  C   UNL     1     -10.194   6.439  -1.132  0.00  0.00    +0.002 C 
ATOM     12  C   UNL     1      -8.788   5.839  -1.190  0.00  0.00    -0.011 C 
ENDBRANCH   6  12
ENDBRANCH   1   6
BRANCH   5  13
ATOM     13  C   UNL     1      -7.980   1.952  -0.420  0.00  0.00    +0.160 C 
BRANCH  13  14
ATOM     14  C   UNL     1      -8.330   1.367   0.924  0.00  0.00    -0.028 A 
ATOM     15  C   UNL     1      -7.627   0.281   1.409  0.00  0.00    +0.005 A 
ATOM     16  C   UNL     1      -7.945  -0.253   2.644  0.00  0.00    +0.000 A 
ATOM     17  C   UNL     1      -8.973   0.294   3.389  0.00  0.00    +0.000 A 
ATOM     18  C   UNL     1      -9.680   1.377   2.901  0.00  0.00    +0.000 A 
ATOM     19  C   UNL     1      -9.359   1.913   1.668  0.00  0.00    +0.005 A 
ENDBRANCH  13  14
ENDBRANCH   5  13
BRANCH   4  20
ATOM     20  S   UNL     1      -4.731   1.343  -0.509  0.00  0.00    -0.078 S 
BRANCH  20  21
ATOM     21  C   UNL     1      -3.031   1.956  -0.406  0.00  0.00    +0.157 C 
BRANCH  21  22
ATOM     22  C   UNL     1      -2.071   0.809  -0.588  0.00  0.00    +0.182 C 
ATOM     23  O   UNL     1      -2.495  -0.315  -0.769  0.00  0.00    -0.291 OA
BRANCH  22  24
ATOM     24  C   UNL     1      -0.679   1.040  -0.553  0.00  0.00    +0.120 A 
ATOM     25  C   UNL     1       0.235  -0.026  -0.604  0.00  0.00    +0.116 A 
ATOM     26  N   UNL     1       1.573   0.249  -0.572  0.00  0.00    -0.278 N 
ATOM     27  C   UNL     1       2.024   1.510  -0.482  0.00  0.00    +0.331 A 
ATOM     28  O   UNL     1       3.224   1.701  -0.452  0.00  0.00    -0.246 OA
ATOM     29  N   UNL     1       1.198   2.567  -0.425  0.00  0.00    -0.274 N 
ATOM     30  H   UNL     1       1.581   3.489  -0.359  0.00  0.00    +0.173 HD
ATOM     31  C   UNL     1      -0.140   2.403  -0.455  0.00  0.00    +0.266 A 
ATOM     32  O   UNL     1      -0.885   3.364  -0.403  0.00  0.00    -0.267 OA
BRANCH  26  33
ATOM     33  C   UNL     1       2.534  -0.855  -0.631  0.00  0.00    +0.094 C 
ATOM     34  C   UNL     1       3.709  -0.718  -1.601  0.00  0.00    +0.027 C 
ATOM     35  C   UNL     1       2.571  -1.692  -1.911  0.00  0.00    +0.027 C 
ENDBRANCH  26  33
BRANCH  25  36
ATOM     36  N   UNL     1      -0.205  -1.310  -0.690  0.00  0.00    -0.344 N 
ATOM     37  H   UNL     1      -1.148  -1.492  -0.826  0.00  0.00    +0.144 HD
ATOM     38  H   UNL     1       0.424  -2.045  -0.614  0.00  0.00    +0.144 HD
ENDBRANCH  25  36
ENDBRANCH  22  24
ENDBRANCH  21  22
ENDBRANCH  20  21
ENDBRANCH   4  20
TORSDOF 11
