REMARK  Name = ZINC12586439
REMARK  10 active torsions:
REMARK  status: ('A' for Active; 'I' for Inactive)
REMARK    1  A    between atoms: C_1  and  C_2
REMARK    2  A    between atoms: C_2  and  N_48
REMARK    3  A    between atoms: C_3  and  C_4
REMARK    4  A    between atoms: C_3  and  N_48
REMARK    5  A    between atoms: C_4  and  N_5
REMARK    6  A    between atoms: C_10  and  C_11
REMARK    7  A    between atoms: C_10  and  N_48
REMARK    8  A    between atoms: C_12  and  C_26
REMARK    9  A    between atoms: C_14  and  C_16
REMARK   10  A    between atoms: C_19  and  C_22
REMARK                            x       y       z     vdW  Elec       q    Type
REMARK                         _______ _______ _______ _____ _____    ______ ____
ROOT
ATOM      1  C   UNL     1       0.583   1.973   0.169  0.00  0.00    +0.066 A 
ATOM      2  C   UNL     1      -0.722   1.779   0.433  0.00  0.00    +0.124 A 
ATOM      3  O   UNL     1      -0.936   0.449   0.434  0.00  0.00    -0.440 OA
ATOM      4  C   UNL     1       0.236  -0.155   0.171  0.00  0.00    +0.228 A 
ATOM      5  N   UNL     1       1.154   0.769   0.011  0.00  0.00    -0.216 NA
ATOM      6  C   UNL     1      -1.753   2.851   0.677  0.00  0.00    +0.088 C 
ENDROOT
BRANCH   4   7
ATOM      7  C   UNL     1       0.454  -1.614   0.078  0.00  0.00    +0.037 A 
ATOM      8  C   UNL     1       1.724  -2.116  -0.208  0.00  0.00    +0.014 A 
ATOM      9  C   UNL     1       1.922  -3.479  -0.288  0.00  0.00    +0.013 A 
ATOM     10  C   UNL     1       0.862  -4.347  -0.096  0.00  0.00    +0.055 A 
ATOM     11  C   UNL     1      -0.401  -3.856   0.182  0.00  0.00    +0.013 A 
ATOM     12  C   UNL     1      -0.611  -2.495   0.271  0.00  0.00    +0.014 A 
BRANCH  10  13
ATOM     13  C   UNL     1       1.084  -5.835  -0.191  0.00  0.00    +0.417 C 
ATOM     14  F   UNL     1       0.885  -6.253  -1.512  0.00  0.00    -0.166 F 
ATOM     15  F   UNL     1       2.393  -6.137   0.201  0.00  0.00    -0.166 F 
ATOM     16  F   UNL     1       0.181  -6.496   0.648  0.00  0.00    -0.166 F 
ENDBRANCH  10  13
ENDBRANCH   4   7
BRANCH   1  17
ATOM     17  C   UNL     1       1.280   3.305   0.067  0.00  0.00    -0.019 C 
BRANCH  17  18
ATOM     18  N   UNL     1       1.766   3.693   1.408  0.00  0.00    +0.384 N 
ATOM     19  H   UNL     1       0.989   3.627   2.076  0.00  0.00    -0.081 HD
BRANCH  18  21
ATOM     20  C   UNL     1       4.023   2.846   0.861  0.00  0.00    -0.017 C 
ATOM     21  C   UNL     1       2.847   2.780   1.837  0.00  0.00    -0.082 C 
ENDBRANCH  18  21
BRANCH  18  22
ATOM     22  C   UNL     1       2.261   5.085   1.383  0.00  0.00    -0.055 C 
BRANCH  22  23
ATOM     23  C   UNL     1       2.413   5.579   2.823  0.00  0.00    +0.125 C 
BRANCH  23  24
ATOM     24  N   UNL     1       2.878   6.968   2.816  0.00  0.00    -0.273 N 
ATOM     25  C   UNL     1       2.279   8.009   3.430  0.00  0.00    +0.108 A 
ATOM     26  C   UNL     1       3.019   9.115   3.185  0.00  0.00    +0.041 A 
ATOM     27  C   UNL     1       4.108   8.737   2.393  0.00  0.00    +0.134 A 
ATOM     28  N   UNL     1       4.028   7.449   2.176  0.00  0.00    -0.180 NA
ENDBRANCH  23  24
ENDBRANCH  22  23
ENDBRANCH  18  22
ENDBRANCH  17  18
ENDBRANCH   1  17
TORSDOF 8
