REMARK  Name = ZINC32881957
REMARK  6 active torsions:
REMARK  status: ('A' for Active; 'I' for Inactive)
REMARK    1  A    between atoms: C_4  and  S_7
REMARK    2  A    between atoms: S_7  and  N_10
REMARK    3  A    between atoms: N_10  and  C_11
REMARK    4  A    between atoms: C_11  and  C_13
REMARK    5  A    between atoms: C_11  and  C_28
REMARK    6  A    between atoms: C_13  and  C_14
REMARK                            x       y       z     vdW  Elec       q    Type
REMARK                         _______ _______ _______ _____ _____    ______ ____
ROOT
ATOM      1  C   UNL     1      -5.559   7.403  -0.931  0.00  0.00    +0.115 C 
ENDROOT
BRANCH   1   2
ATOM      2  C   UNL     1      -5.959   8.067  -2.224  0.00  0.00    -0.028 A 
ATOM      3  C   UNL     1      -6.934   7.496  -3.021  0.00  0.00    +0.006 A 
ATOM      4  C   UNL     1      -7.305   8.107  -4.204  0.00  0.00    +0.020 A 
ATOM      5  C   UNL     1      -6.693   9.284  -4.595  0.00  0.00    +0.041 A 
ATOM      6  C   UNL     1      -5.714   9.852  -3.800  0.00  0.00    +0.020 A 
ATOM      7  C   UNL     1      -5.347   9.243  -2.615  0.00  0.00    +0.006 A 
ATOM      8 CL   UNL     1      -7.154  10.048  -6.085  0.00  0.00    -0.084 Cl
ENDBRANCH   1   2
BRANCH   1   9
ATOM      9  N   UNL     1      -6.753   6.884  -0.259  0.00  0.00    -0.182 NA
ATOM     10  H   UNL     1      -7.241   5.972  -0.633  0.00  0.00    +0.149 HD
BRANCH   9  11
ATOM     11  S   UNL     1      -7.511   7.791   0.900  0.00  0.00    +0.059 S 
ATOM     12  O   UNL     1      -8.633   7.037   1.337  0.00  0.00    -0.153 OA
ATOM     13  O   UNL     1      -6.499   8.237   1.793  0.00  0.00    -0.153 OA
BRANCH  11  17
ATOM     14  C   UNL     1      -9.149  11.482  -1.146  0.00  0.00    +0.000 A 
ATOM     15  C   UNL     1      -9.924  10.341  -1.053  0.00  0.00    +0.002 A 
ATOM     16  C   UNL     1      -9.424   9.214  -0.428  0.00  0.00    +0.028 A 
ATOM     17  C   UNL     1      -8.148   9.228   0.104  0.00  0.00    +0.105 A 
ATOM     18  C   UNL     1      -7.375  10.370   0.016  0.00  0.00    +0.028 A 
ATOM     19  C   UNL     1      -7.873  11.495  -0.614  0.00  0.00    +0.002 A 
ENDBRANCH  11  17
ENDBRANCH   9  11
ENDBRANCH   1   9
BRANCH   1  20
ATOM     20  C   UNL     1      -4.597   6.251  -1.226  0.00  0.00    +0.121 C 
BRANCH  20  21
ATOM     21  C   UNL     1      -4.101   5.666   0.071  0.00  0.00    +0.217 C 
ATOM     22  O   UNL     1      -4.480   6.126   1.128  0.00  0.00    -0.276 OA
ATOM     23  N   UNL     1      -3.237   4.631   0.058  0.00  0.00    -0.301 N 
ATOM     24  C   UNL     1      -2.745   4.051   1.315  0.00  0.00    +0.110 C 
ATOM     25  C   UNL     1      -1.213   4.052   1.291  0.00  0.00    +0.054 C 
ATOM     26  C   UNL     1      -0.725   3.352   0.027  0.00  0.00    +0.115 C 
ATOM     27  C   UNL     1      -1.237   4.066  -1.220  0.00  0.00    +0.054 C 
ATOM     28  C   UNL     1      -2.769   4.064  -1.214  0.00  0.00    +0.110 C 
ATOM     29  C   UNL     1       0.785   3.285   0.012  0.00  0.00    +0.244 C 
ATOM     30  O   UNL     1       1.561   4.217   0.010  0.00  0.00    -0.273 OA
ATOM     31  N   UNL     1       1.088   1.971   0.002  0.00  0.00    -0.238 N 
ATOM     32  C   UNL     1      -0.014   1.211   0.009  0.00  0.00    +0.307 C 
ATOM     33  O   UNL     1       0.002  -0.004   0.002  0.00  0.00    -0.252 OA
ATOM     34  N   UNL     1      -1.144   1.945   0.018  0.00  0.00    -0.285 N 
ATOM     35  H   UNL     1       2.140   1.648  -0.009  0.00  0.00    +0.159 HD
ATOM     36  H   UNL     1      -2.214   1.690   0.019  0.00  0.00    +0.151 HD
ENDBRANCH  20  21
ENDBRANCH   1  20
TORSDOF 6
