REMARK  Name = ZINC39920293
REMARK  7 active torsions:
REMARK  status: ('A' for Active; 'I' for Inactive)
REMARK    1  A    between atoms: C_1  and  C_2
REMARK    2  A    between atoms: C_2  and  C_4
REMARK    3  A    between atoms: C_2  and  O_26
REMARK    4  A    between atoms: N_6  and  N_7
REMARK    5  A    between atoms: C_8  and  C_19
REMARK    6  A    between atoms: C_22  and  O_25
REMARK    7  A    between atoms: O_26  and  C_27
REMARK                            x       y       z     vdW  Elec       q    Type
REMARK                         _______ _______ _______ _____ _____    ______ ____
ROOT
ATOM      1  N   UNL     1      -3.416  -0.323   0.024  0.00  0.00    -0.191 N 
ATOM      2  C   UNL     1      -4.048  -1.600  -0.308  0.00  0.00    +0.212 C 
ATOM      3  N   UNL     1      -5.485  -1.412  -0.540  0.00  0.00    -0.320 N 
ATOM      4  C   UNL     1      -6.201  -0.612   0.343  0.00  0.00    +0.041 A 
ATOM      5  C   UNL     1      -7.544  -0.826   0.603  0.00  0.00    +0.024 A 
ATOM      6  C   UNL     1      -8.208  -0.003   1.492  0.00  0.00    +0.002 A 
ATOM      7  C   UNL     1      -7.541   1.034   2.126  0.00  0.00    +0.001 A 
ATOM      8  C   UNL     1      -6.203   1.261   1.877  0.00  0.00    +0.015 A 
ATOM      9  C   UNL     1      -5.522   0.441   0.982  0.00  0.00    +0.059 A 
ATOM     10  C   UNL     1      -4.093   0.643   0.678  0.00  0.00    +0.266 C 
ATOM     11  O   UNL     1      -3.533   1.670   1.009  0.00  0.00    -0.268 OA
ATOM     12  H   UNL     1      -5.925  -1.837  -1.293  0.00  0.00    +0.148 HD
ENDROOT
BRANCH   2  13
ATOM     13  C   UNL     1      -3.852  -2.565   0.834  0.00  0.00    -0.008 A 
ATOM     14  C   UNL     1      -3.281  -3.802   0.602  0.00  0.00    +0.011 A 
ATOM     15  C   UNL     1      -3.101  -4.688   1.647  0.00  0.00    +0.046 A 
ATOM     16  C   UNL     1      -3.494  -4.335   2.929  0.00  0.00    +0.117 A 
ATOM     17  C   UNL     1      -4.067  -3.092   3.159  0.00  0.00    +0.046 A 
ATOM     18  C   UNL     1      -4.240  -2.208   2.112  0.00  0.00    +0.011 A 
BRANCH  16  19
ATOM     19  O   UNL     1      -3.318  -5.205   3.959  0.00  0.00    -0.507 OA
ATOM     20  H   UNL     1      -2.467  -5.116   4.408  0.00  0.00    +0.292 HD
ENDBRANCH  16  19
ENDBRANCH   2  13
BRANCH   1  23
ATOM     21  C   UNL     1      -1.109  -0.165   0.591  0.00  0.00    +0.270 C 
ATOM     22  O   UNL     1      -1.377  -0.502   1.725  0.00  0.00    -0.270 OA
ATOM     23  N   UNL     1      -2.081  -0.102  -0.341  0.00  0.00    -0.227 N 
ATOM     24  H   UNL     1      -1.857   0.098  -1.263  0.00  0.00    +0.173 HD
BRANCH  21  26
ATOM     25  C   UNL     1       0.391   1.663  -0.155  0.00  0.00    +0.062 C 
ATOM     26  C   UNL     1       0.310   0.182   0.223  0.00  0.00    +0.257 C 
BRANCH  26  27
ATOM     27  O   UNL     1       1.167  -0.072   1.339  0.00  0.00    -0.480 OA
BRANCH  27  28
ATOM     28  C   UNL     1       2.475  -0.319   1.068  0.00  0.00    +0.122 A 
ATOM     29  C   UNL     1       3.338  -0.689   2.089  0.00  0.00    +0.045 A 
ATOM     30  C   UNL     1       4.668  -0.941   1.811  0.00  0.00    +0.004 A 
ATOM     31  C   UNL     1       5.139  -0.824   0.516  0.00  0.00    +0.000 A 
ATOM     32  C   UNL     1       4.281  -0.455  -0.503  0.00  0.00    +0.004 A 
ATOM     33  C   UNL     1       2.949  -0.208  -0.232  0.00  0.00    +0.045 A 
ENDBRANCH  27  28
ENDBRANCH  26  27
ENDBRANCH  21  26
ENDBRANCH   1  23
TORSDOF 6
