REMARK  Name = ZINC01899053
REMARK  7 active torsions:
REMARK  status: ('A' for Active; 'I' for Inactive)
REMARK    1  A    between atoms: C_1  and  C_2
REMARK    2  A    between atoms: C_4  and  C_43
REMARK    3  A    between atoms: C_6  and  N_8
REMARK    4  A    between atoms: C_22  and  C_31
REMARK    5  A    between atoms: N_24  and  C_25
REMARK    6  A    between atoms: C_32  and  C_34
REMARK    7  A    between atoms: C_38  and  N_40
REMARK                            x       y       z     vdW  Elec       q    Type
REMARK                         _______ _______ _______ _____ _____    ______ ____
ROOT
ATOM      1  N   UNL     1       0.052  -2.797   2.391  0.00  0.00    -0.297 N 
ATOM      2  C   UNL     1       0.153  -2.117   3.591  0.00  0.00    +0.164 C 
ATOM      3  N   UNL     1       0.130  -0.807   3.605  0.00  0.00    -0.227 NA
ATOM      4  C   UNL     1       0.226  -0.105   4.762  0.00  0.00    +0.087 A 
ATOM      5  C   UNL     1       0.197   1.294   4.737  0.00  0.00    +0.030 A 
ATOM      6  C   UNL     1       0.294   2.005   5.911  0.00  0.00    +0.002 A 
ATOM      7  C   UNL     1       0.420   1.344   7.124  0.00  0.00    +0.002 A 
ATOM      8  C   UNL     1       0.450  -0.034   7.169  0.00  0.00    +0.025 A 
ATOM      9  C   UNL     1       0.353  -0.770   5.995  0.00  0.00    +0.062 A 
ATOM     10  N   UNL     1       0.382  -2.152   6.027  0.00  0.00    -0.269 N 
ATOM     11  C   UNL     1       0.280  -2.867   4.854  0.00  0.00    +0.169 C 
ATOM     12  N   UNL     1       0.297  -4.177   4.837  0.00  0.00    -0.209 NA
ATOM     13  C   UNL     1       0.409  -4.955   5.936  0.00  0.00    +0.164 A 
ATOM     14  C   UNL     1       0.517  -4.390   7.196  0.00  0.00    +0.044 A 
ATOM     15  C   UNL     1       0.617  -5.416   8.124  0.00  0.00    +0.068 A 
ATOM     16  N   UNL     1       0.575  -6.561   7.486  0.00  0.00    -0.169 NA
ATOM     17  N   UNL     1       0.445  -6.312   6.114  0.00  0.00    -0.214 N 
ATOM     18  C   UNL     1       0.753  -5.244   9.615  0.00  0.00    +0.068 C 
ATOM     19  C   UNL     1       0.515  -2.881   7.296  0.00  0.00    +0.146 C 
ATOM     20  H   UNL     1      -0.010  -3.765   2.386  0.00  0.00    +0.154 HD
ENDROOT
BRANCH   1  26
ATOM     21  C   UNL     1      -1.497  -2.382  -2.256  0.00  0.00    +0.044 C 
ATOM     22  C   UNL     1      -0.703  -1.866  -1.084  0.00  0.00    -0.048 A 
ATOM     23  C   UNL     1       0.015  -0.689  -1.200  0.00  0.00    +0.006 A 
ATOM     24  C   UNL     1       0.745  -0.211  -0.128  0.00  0.00    -0.048 A 
ATOM     25  C   UNL     1       0.759  -0.907   1.065  0.00  0.00    +0.026 A 
ATOM     26  C   UNL     1       0.039  -2.089   1.186  0.00  0.00    +0.033 A 
ATOM     27  C   UNL     1      -0.697  -2.564   0.108  0.00  0.00    +0.026 A 
ATOM     28  C   UNL     1       1.525   1.071  -0.260  0.00  0.00    +0.044 C 
ENDBRANCH   1  26
BRANCH  17  29
ATOM     29  C   UNL     1       0.366  -7.278   5.104  0.00  0.00    +0.068 A 
ATOM     30  C   UNL     1      -0.427  -7.054   3.986  0.00  0.00    +0.028 A 
ATOM     31  C   UNL     1      -0.502  -8.009   2.991  0.00  0.00    +0.002 A 
ATOM     32  C   UNL     1       0.210  -9.188   3.108  0.00  0.00    +0.000 A 
ATOM     33  C   UNL     1       1.001  -9.415   4.220  0.00  0.00    +0.002 A 
ATOM     34  C   UNL     1       1.086  -8.461   5.215  0.00  0.00    +0.028 A 
ENDBRANCH  17  29
BRANCH  19  35
ATOM     35  C   UNL     1      -0.633  -2.484   8.189  0.00  0.00    -0.020 A 
ATOM     36  C   UNL     1      -1.899  -2.325   7.657  0.00  0.00    +0.006 A 
ATOM     37  C   UNL     1      -2.952  -1.961   8.476  0.00  0.00    +0.003 A 
ATOM     38  C   UNL     1      -2.738  -1.756   9.826  0.00  0.00    +0.033 A 
ATOM     39  C   UNL     1      -1.473  -1.916  10.358  0.00  0.00    +0.127 A 
ATOM     40  C   UNL     1      -0.421  -2.284   9.540  0.00  0.00    +0.038 A 
BRANCH  39  41
ATOM     41  N   UNL     1      -1.244  -1.696  11.804  0.00  0.00    +0.056 N 
ATOM     42  O   UNL     1      -2.165  -1.376  12.519  0.00  0.00    -0.126 OA
ATOM     43  O   UNL     1      -0.137  -1.835  12.269  0.00  0.00    -0.126 OA
ENDBRANCH  39  41
ENDBRANCH  19  35
TORSDOF 4
