REMARK  Name = ZINC56768146
REMARK  5 active torsions:
REMARK  status: ('A' for Active; 'I' for Inactive)
REMARK    1  A    between atoms: C_1  and  C_2
REMARK    2  A    between atoms: C_5  and  S_22
REMARK    3  A    between atoms: C_6  and  N_8
REMARK    4  A    between atoms: C_15  and  C_17
REMARK    5  A    between atoms: S_22  and  C_25
REMARK                            x       y       z     vdW  Elec       q    Type
REMARK                         _______ _______ _______ _____ _____    ______ ____
ROOT
ATOM      1  N   UNL     1       0.316  -3.139   2.455  0.00  0.00    -0.268 N 
ATOM      2  C   UNL     1       0.336  -2.370   3.562  0.00  0.00    +0.307 C 
ATOM      3  O   UNL     1       0.336  -1.158   3.460  0.00  0.00    -0.252 OA
ATOM      4  N   UNL     1       0.356  -2.943   4.781  0.00  0.00    -0.282 N 
ATOM      5  C   UNL     1       0.469  -4.389   5.049  0.00  0.00    +0.110 C 
ATOM      6  C   UNL     1      -0.159  -4.582   6.452  0.00  0.00    +0.021 C 
ATOM      7  C   UNL     1       0.307  -3.295   7.182  0.00  0.00    +0.024 C 
ATOM      8  C   UNL     1       0.277  -2.231   6.065  0.00  0.00    +0.081 C 
ATOM      9  H   UNL     1       0.249  -4.104   2.536  0.00  0.00    +0.156 HD
ENDROOT
BRANCH   1  15
ATOM     10  C   UNL     1      -0.760   0.615  -0.532  0.00  0.00    +0.044 C 
ATOM     11  C   UNL     1      -0.121  -0.728  -0.286  0.00  0.00    -0.049 A 
ATOM     12  C   UNL     1       0.541  -1.376  -1.313  0.00  0.00    +0.005 A 
ATOM     13  C   UNL     1       1.129  -2.607  -1.091  0.00  0.00    +0.029 A 
ATOM     14  C   UNL     1       1.056  -3.195   0.157  0.00  0.00    +0.109 A 
ATOM     15  C   UNL     1       0.392  -2.547   1.190  0.00  0.00    +0.060 A 
ATOM     16  C   UNL     1      -0.193  -1.307   0.965  0.00  0.00    +0.028 A 
BRANCH  14  17
ATOM     17  S   UNL     1       1.805  -4.765   0.438  0.00  0.00    -0.004 S 
ATOM     18  O   UNL     1       0.784  -5.551   1.037  0.00  0.00    -0.170 OA
ATOM     19  O   UNL     1       2.359  -5.132  -0.818  0.00  0.00    -0.170 OA
ATOM     20  C   UNL     1       3.128  -4.442   1.635  0.00  0.00    +0.200 C 
ENDBRANCH  14  17
ENDBRANCH   1  15
BRANCH   8  21
ATOM     21  C   UNL     1       1.471  -1.286   6.210  0.00  0.00    +0.010 C 
ATOM     22  C   UNL     1       1.500  -0.662   7.627  0.00  0.00    +0.005 C 
ATOM     23  C   UNL     1       2.989  -0.275   7.800  0.00  0.00    +0.000 C 
ATOM     24  C   UNL     1       3.761  -1.428   7.127  0.00  0.00    +0.000 C 
ATOM     25  C   UNL     1       2.796  -2.071   6.115  0.00  0.00    +0.005 C 
ENDBRANCH   8  21
TORSDOF 3
