REMARK  Name = ZINC07505245
REMARK  5 active torsions:
REMARK  status: ('A' for Active; 'I' for Inactive)
REMARK    1  A    between atoms: C_4  and  N_17
REMARK    2  A    between atoms: C_5  and  C_7
REMARK    3  A    between atoms: N_9  and  C_10
REMARK    4  A    between atoms: N_17  and  S_18
REMARK    5  A    between atoms: S_18  and  C_21
REMARK                            x       y       z     vdW  Elec       q    Type
REMARK                         _______ _______ _______ _____ _____    ______ ____
ROOT
ATOM      1  C   UNL     1      -0.017   1.373   0.033  0.00  0.00    +0.001 A 
ATOM      2  C   UNL     1       1.169   2.090   0.024  0.00  0.00    +0.002 A 
ATOM      3  C   UNL     1       2.382   1.433  -0.001  0.00  0.00    +0.027 A 
ATOM      4  C   UNL     1       2.422   0.044  -0.017  0.00  0.00    +0.086 A 
ATOM      5  C   UNL     1       1.222  -0.685  -0.007  0.00  0.00    +0.061 A 
ATOM      6  C   UNL     1       0.002  -0.004   0.018  0.00  0.00    +0.015 A 
ENDROOT
BRANCH   5   7
ATOM      7  C   UNL     1       1.250  -2.158  -0.025  0.00  0.00    +0.250 C 
ATOM      8  O   UNL     1       2.314  -2.747  -0.047  0.00  0.00    -0.270 OA
ATOM      9  N   UNL     1       0.095  -2.854  -0.015  0.00  0.00    -0.281 N 
ATOM     10  H   UNL     1      -0.751  -2.388   0.070  0.00  0.00    +0.155 HD
BRANCH   9  11
ATOM     11  C   UNL     1       0.118  -4.249  -0.130  0.00  0.00    +0.034 A 
ATOM     12  C   UNL     1      -0.889  -4.906  -0.825  0.00  0.00    +0.026 A 
ATOM     13  C   UNL     1      -0.865  -6.282  -0.936  0.00  0.00    +0.040 A 
ATOM     14  C   UNL     1       0.162  -7.007  -0.355  0.00  0.00    +0.124 A 
ATOM     15  C   UNL     1       1.167  -6.354   0.339  0.00  0.00    +0.040 A 
ATOM     16  C   UNL     1       1.150  -4.977   0.447  0.00  0.00    +0.026 A 
ATOM     17  F   UNL     1       0.183  -8.353  -0.465  0.00  0.00    -0.205 F 
ENDBRANCH   9  11
ENDBRANCH   5   7
BRANCH   4  18
ATOM     18  N   UNL     1       3.642  -0.619  -0.043  0.00  0.00    -0.097 NA
BRANCH  18  19
ATOM     19  S   UNL     1       5.054   0.245  -0.054  0.00  0.00    +0.094 S 
ATOM     20  O   UNL     1       5.095   0.940  -1.293  0.00  0.00    -0.148 OA
ATOM     21  O   UNL     1       5.132   0.913   1.197  0.00  0.00    -0.148 OA
BRANCH  19  22
ATOM     22  C   UNL     1       6.377  -0.919  -0.087  0.00  0.00    +0.145 A 
ATOM     23  C   UNL     1       7.217  -0.980  -1.183  0.00  0.00    +0.032 A 
ATOM     24  C   UNL     1       8.254  -1.893  -1.209  0.00  0.00    +0.002 A 
ATOM     25  C   UNL     1       8.453  -2.746  -0.139  0.00  0.00    +0.003 A 
ATOM     26  C   UNL     1       7.615  -2.687   0.958  0.00  0.00    +0.040 A 
ATOM     27  C   UNL     1       6.578  -1.769   0.987  0.00  0.00    +0.150 A 
ATOM     28  F   UNL     1       5.761  -1.707   2.061  0.00  0.00    -0.203 F 
ENDBRANCH  19  22
ENDBRANCH  18  19
ENDBRANCH   4  18
TORSDOF 5
