REMARK  Name = ZINC55476926
REMARK  10 active torsions:
REMARK  status: ('A' for Active; 'I' for Inactive)
REMARK    1  A    between atoms: C_1  and  C_2
REMARK    2  A    between atoms: C_2  and  C_3
REMARK    3  A    between atoms: C_2  and  N_18
REMARK    4  A    between atoms: N_5  and  C_6
REMARK    5  A    between atoms: N_13  and  C_15
REMARK    6  A    between atoms: C_19  and  O_21
REMARK    7  A    between atoms: O_21  and  C_22
REMARK    8  A    between atoms: C_22  and  C_23
REMARK    9  A    between atoms: C_22  and  C_24
REMARK   10  A    between atoms: C_22  and  C_25
REMARK                            x       y       z     vdW  Elec       q    Type
REMARK                         _______ _______ _______ _____ _____    ______ ____
ROOT
ATOM      1  C   UNL     1      -1.412  -0.526   0.013  0.00  0.00    +0.233 C 
ATOM      2  O   UNL     1      -1.790  -1.233   0.922  0.00  0.00    -0.274 OA
ATOM      3  N   UNL     1      -2.256  -0.206  -0.988  0.00  0.00    -0.311 N 
ATOM      4  H   UNL     1      -1.953   0.360  -1.716  0.00  0.00    +0.149 HD
ENDROOT
BRANCH   3   5
ATOM      5  C   UNL     1      -3.627  -0.712  -0.978  0.00  0.00    +0.076 C 
ATOM      6  C   UNL     1      -3.687  -2.097  -1.627  0.00  0.00    -0.007 C 
ATOM      7  C   UNL     1      -5.103  -2.649  -1.484  0.00  0.00    +0.003 C 
ATOM      8  C   UNL     1      -6.138  -1.734  -2.124  0.00  0.00    +0.001 C 
ATOM      9  C   UNL     1      -5.981  -0.282  -1.698  0.00  0.00    +0.003 C 
ATOM     10  C   UNL     1      -4.542   0.210  -1.787  0.00  0.00    -0.007 C 
ATOM     11  C   UNL     1      -4.059   0.279  -3.229  0.00  0.00    -0.073 C 
ATOM     12  N   UNL     1      -3.976  -1.031  -3.866  0.00  0.00    +0.382 N 
ATOM     13  C   UNL     1      -3.253  -2.024  -3.080  0.00  0.00    -0.073 C 
ATOM     14  H   UNL     1      -4.898  -1.366  -4.097  0.00  0.00    -0.081 HD
BRANCH  12  15
ATOM     15  C   UNL     1      -3.271  -0.867  -5.145  0.00  0.00    -0.069 C 
ATOM     16  C   UNL     1      -4.082  -1.060  -6.428  0.00  0.00    -0.017 C 
ATOM     17  C   UNL     1      -3.061  -2.117  -6.002  0.00  0.00    -0.017 C 
ENDBRANCH  12  15
ENDBRANCH   3   5
BRANCH   1  19
ATOM     18  C   UNL     1      -0.019   1.526   0.010  0.00  0.00    +0.038 C 
ATOM     19  C   UNL     1       0.002  -0.004   0.002  0.00  0.00    +0.159 C 
BRANCH  19  20
ATOM     20  N   UNL     1       0.711  -0.489   1.189  0.00  0.00    -0.270 N 
ATOM     21  C   UNL     1       2.054  -0.600   1.174  0.00  0.00    +0.401 C 
ATOM     22  O   UNL     1       2.677  -0.297   0.175  0.00  0.00    -0.226 OA
ATOM     23  H   UNL     1       0.213  -0.731   1.986  0.00  0.00    +0.153 HD
BRANCH  21  24
ATOM     24  O   UNL     1       2.705  -1.046   2.264  0.00  0.00    -0.445 OA
BRANCH  24  25
ATOM     25  C   UNL     1       4.128  -1.138   2.178  0.00  0.00    +0.107 C 
ATOM     26  C   UNL     1       4.712   0.247   1.888  0.00  0.00    +0.055 C 
ATOM     27  C   UNL     1       4.687  -1.659   3.503  0.00  0.00    +0.055 C 
ATOM     28  C   UNL     1       4.510  -2.098   1.050  0.00  0.00    +0.055 C 
ENDBRANCH  24  25
ENDBRANCH  21  24
ENDBRANCH  19  20
ENDBRANCH   1  19
TORSDOF 6
