REMARK  Name = ZINC17012018
REMARK  5 active torsions:
REMARK  status: ('A' for Active; 'I' for Inactive)
REMARK    1  A    between atoms: C_1  and  C_2
REMARK    2  A    between atoms: C_4  and  N_17
REMARK    3  A    between atoms: C_9  and  C_12
REMARK    4  A    between atoms: C_18  and  C_20
REMARK    5  A    between atoms: N_25  and  C_27
REMARK                            x       y       z     vdW  Elec       q    Type
REMARK                         _______ _______ _______ _____ _____    ______ ____
ROOT
ATOM      1  C   UNL     1       3.993   2.575   6.439  0.00  0.00    +0.067 C 
ATOM      2  C   UNL     1       3.009   3.063   5.407  0.00  0.00    +0.062 A 
ATOM      3  C   UNL     1       2.861   2.551   4.115  0.00  0.00    +0.068 A 
ATOM      4  C   UNL     1       1.876   3.258   3.496  0.00  0.00    +0.131 A 
ATOM      5  N   UNL     1       1.416   4.182   4.385  0.00  0.00    -0.194 N 
ATOM      6  N   UNL     1       2.146   4.033   5.572  0.00  0.00    -0.168 NA
ATOM      7  C   UNL     1       0.402   5.109   4.156  0.00  0.00    +0.196 A 
ATOM      8  N   UNL     1      -0.090   6.025   4.968  0.00  0.00    -0.221 NA
ATOM      9  C   UNL     1      -1.066   6.834   4.583  0.00  0.00    +0.087 A 
ATOM     10  C   UNL     1      -1.574   6.715   3.317  0.00  0.00    +0.077 A 
ATOM     11  S   UNL     1      -0.573   5.376   2.682  0.00  0.00    -0.056 S 
ENDROOT
BRANCH   9  12
ATOM     12  C   UNL     1      -1.601   7.853   5.511  0.00  0.00    +0.038 A 
ATOM     13  C   UNL     1      -1.235   8.122   6.802  0.00  0.00    +0.017 A 
ATOM     14  C   UNL     1      -1.881   9.136   7.476  0.00  0.00    +0.008 A 
ATOM     15  C   UNL     1      -2.865   9.827   6.847  0.00  0.00    +0.046 A 
ATOM     16  S   UNL     1      -2.899   9.049   5.240  0.00  0.00    -0.095 S 
ENDBRANCH   9  12
BRANCH   4  17
ATOM     17  N   UNL     1       1.419   3.068   2.193  0.00  0.00    -0.270 N 
ATOM     18  C   UNL     1       1.968   2.112   1.418  0.00  0.00    +0.223 C 
ATOM     19  O   UNL     1       2.860   1.416   1.855  0.00  0.00    -0.275 OA
ATOM     20  H   UNL     1       0.705   3.625   1.844  0.00  0.00    +0.156 HD
BRANCH  18  21
ATOM     21  C   UNL     1       1.473   1.907   0.010  0.00  0.00    +0.102 C 
ATOM     22  C   UNL     1      -0.021   1.508   0.001  0.00  0.00    +0.110 C 
ATOM     23  C   UNL     1      -0.002  -0.004  -0.013  0.00  0.00    +0.221 C 
ATOM     24  O   UNL     1      -0.949  -0.713   0.255  0.00  0.00    -0.275 OA
ATOM     25  N   UNL     1       1.217  -0.448  -0.365  0.00  0.00    -0.271 N 
ATOM     26  C   UNL     1       2.133   0.667  -0.633  0.00  0.00    +0.127 C 
BRANCH  25  27
ATOM     27  C   UNL     1       1.567  -1.799  -0.464  0.00  0.00    +0.036 A 
ATOM     28  C   UNL     1       0.668  -2.781  -0.069  0.00  0.00    +0.023 A 
ATOM     29  C   UNL     1       1.014  -4.114  -0.174  0.00  0.00    +0.002 A 
ATOM     30  C   UNL     1       2.259  -4.471  -0.659  0.00  0.00    +0.000 A 
ATOM     31  C   UNL     1       3.159  -3.495  -1.048  0.00  0.00    +0.002 A 
ATOM     32  C   UNL     1       2.816  -2.160  -0.952  0.00  0.00    +0.023 A 
ENDBRANCH  25  27
ENDBRANCH  18  21
ENDBRANCH   4  17
TORSDOF 4
