REMARK  Name = ZINC01111802
REMARK  4 active torsions:
REMARK  status: ('A' for Active; 'I' for Inactive)
REMARK    1  A    between atoms: C_1  and  C_2
REMARK    2  A    between atoms: C_4  and  N_16
REMARK    3  A    between atoms: C_7  and  N_8
REMARK    4  A    between atoms: C_9  and  C_11
REMARK                            x       y       z     vdW  Elec       q    Type
REMARK                         _______ _______ _______ _____ _____    ______ ____
ROOT
ATOM      1  C   UNL     1      -4.678  -4.729   0.031  0.00  0.00    +0.046 C 
ATOM      2  C   UNL     1      -3.171  -4.711   0.021  0.00  0.00    -0.027 A 
ATOM      3  C   UNL     1      -2.495  -3.507   0.035  0.00  0.00    +0.029 A 
ATOM      4  C   UNL     1      -1.107  -3.490   0.020  0.00  0.00    +0.045 A 
ATOM      5  C   UNL     1      -0.398  -4.684   0.003  0.00  0.00    +0.026 A 
ATOM      6  C   UNL     1      -1.073  -5.888  -0.004  0.00  0.00    +0.025 A 
ATOM      7  C   UNL     1      -2.462  -5.905   0.005  0.00  0.00    +0.037 A 
ENDROOT
BRANCH   4   8
ATOM      8  N   UNL     1      -0.421  -2.266   0.028  0.00  0.00    -0.202 N 
ATOM      9  C   UNL     1      -1.016  -1.060   0.045  0.00  0.00    +0.258 C 
ATOM     10  O   UNL     1      -2.214  -0.860   0.056  0.00  0.00    -0.269 OA
ATOM     11  C   UNL     1       0.033  -0.018   0.049  0.00  0.00    +0.050 A 
ATOM     12  C   UNL     1       0.020   1.368   0.064  0.00  0.00    +0.014 A 
ATOM     13  C   UNL     1       1.217   2.066   0.063  0.00  0.00    +0.001 A 
ATOM     14  C   UNL     1       2.423   1.390   0.049  0.00  0.00    +0.001 A 
ATOM     15  C   UNL     1       2.451   0.004   0.033  0.00  0.00    +0.014 A 
ATOM     16  C   UNL     1       1.262  -0.707   0.033  0.00  0.00    +0.050 A 
ATOM     17  C   UNL     1       0.919  -2.145   0.020  0.00  0.00    +0.258 C 
ATOM     18  O   UNL     1       1.714  -3.063   0.005  0.00  0.00    -0.269 OA
ENDBRANCH   4   8
BRANCH   7  19
ATOM     19  N   UNL     1      -3.147  -7.126  -0.003  0.00  0.00    -0.281 N 
ATOM     20  C   UNL     1      -2.644  -8.176  -0.682  0.00  0.00    +0.255 C 
ATOM     21  O   UNL     1      -1.556  -8.088  -1.220  0.00  0.00    -0.269 OA
ATOM     22  H   UNL     1      -3.983  -7.216   0.481  0.00  0.00    +0.155 HD
BRANCH  20  23
ATOM     23  C   UNL     1      -3.409  -9.423  -0.773  0.00  0.00    +0.074 A 
ATOM     24  C   UNL     1      -3.077 -10.606  -1.415  0.00  0.00    +0.021 A 
ATOM     25  C   UNL     1      -3.986 -11.633  -1.342  0.00  0.00    +0.008 A 
ATOM     26  C   UNL     1      -5.145 -11.445  -0.658  0.00  0.00    +0.046 A 
ATOM     27  S   UNL     1      -5.004  -9.817  -0.079  0.00  0.00    -0.092 S 
ENDBRANCH  20  23
ENDBRANCH   7  19
TORSDOF 3
