REMARK  Name = ZINC45819219
REMARK  6 active torsions:
REMARK  status: ('A' for Active; 'I' for Inactive)
REMARK    1  A    between atoms: N_13  and  C_14
REMARK    2  A    between atoms: C_14  and  C_15
REMARK    3  A    between atoms: N_17  and  C_18
REMARK    4  A    between atoms: C_18  and  C_19
REMARK    5  A    between atoms: C_19  and  C_21
REMARK    6  A    between atoms: C_19  and  N_28
REMARK                            x       y       z     vdW  Elec       q    Type
REMARK                         _______ _______ _______ _____ _____    ______ ____
ROOT
ATOM      1  C   UNL     1       4.663   1.780   3.932  0.00  0.00    +0.233 C 
ATOM      2  O   UNL     1       4.328   0.669   3.580  0.00  0.00    -0.274 OA
ATOM      3  N   UNL     1       5.929   2.198   3.730  0.00  0.00    -0.315 N 
ATOM      4  H   UNL     1       6.197   3.086   4.011  0.00  0.00    +0.149 HD
ENDROOT
BRANCH   1   5
ATOM      5  C   UNL     1       3.665   2.695   4.595  0.00  0.00    +0.222 C 
BRANCH   5  18
ATOM      6  C   UNL     1       1.432  -0.274   8.046  0.00  0.00    +0.001 A 
ATOM      7  C   UNL     1       2.661   0.364   7.967  0.00  0.00    +0.002 A 
ATOM      8  C   UNL     1       2.989   1.126   6.864  0.00  0.00    +0.027 A 
ATOM      9  C   UNL     1       2.082   1.257   5.824  0.00  0.00    +0.059 A 
ATOM     10  C   UNL     1       0.836   0.612   5.902  0.00  0.00    +0.063 A 
ATOM     11  C   UNL     1       0.517  -0.155   7.021  0.00  0.00    +0.015 A 
ATOM     12  C   UNL     1      -0.104   0.772   4.779  0.00  0.00    +0.262 A 
ATOM     13  O   UNL     1      -1.195   0.235   4.797  0.00  0.00    -0.267 OA
ATOM     14  N   UNL     1       0.277   1.530   3.728  0.00  0.00    -0.274 N 
ATOM     15  H   UNL     1      -0.330   1.647   2.981  0.00  0.00    +0.173 HD
ATOM     16  C   UNL     1       1.479   2.127   3.700  0.00  0.00    +0.330 A 
ATOM     17  O   UNL     1       1.772   2.799   2.730  0.00  0.00    -0.246 OA
ATOM     18  N   UNL     1       2.373   2.013   4.697  0.00  0.00    -0.285 N 
ENDBRANCH   5  18
ENDBRANCH   1   5
BRANCH   3  19
ATOM     19  C   UNL     1       6.899   1.309   3.085  0.00  0.00    +0.093 C 
BRANCH  19  20
ATOM     20  C   UNL     1       8.213   2.062   2.865  0.00  0.00    -0.019 C 
BRANCH  20  21
ATOM     21  C   UNL     1       8.823   2.409   4.198  0.00  0.00    -0.041 A 
ATOM     22  C   UNL     1       8.586   3.646   4.767  0.00  0.00    +0.003 A 
ATOM     23  C   UNL     1       9.146   3.964   5.990  0.00  0.00    +0.000 A 
ATOM     24  C   UNL     1       9.943   3.044   6.646  0.00  0.00    +0.001 A 
ATOM     25  C   UNL     1      10.181   1.807   6.078  0.00  0.00    +0.020 A 
ATOM     26  C   UNL     1       9.617   1.486   4.856  0.00  0.00    +0.043 A 
ATOM     27 CL   UNL     1       9.910  -0.070   4.146  0.00  0.00    -0.083 Cl
ENDBRANCH  20  21
BRANCH  20  28
ATOM     28  N   UNL     1       7.949   3.296   2.112  0.00  0.00    +0.385 N 
ATOM     29  C   UNL     1       9.226   3.988   1.800  0.00  0.00    -0.078 C 
ATOM     30  C   UNL     1       8.858   4.882   0.589  0.00  0.00    -0.020 C 
ATOM     31  C   UNL     1       7.880   3.993  -0.213  0.00  0.00    -0.020 C 
ATOM     32  C   UNL     1       7.335   2.974   0.805  0.00  0.00    -0.078 C 
ATOM     33  H   UNL     1       7.343   3.904   2.641  0.00  0.00    -0.081 HD
ENDBRANCH  20  28
ENDBRANCH  19  20
ENDBRANCH   3  19
TORSDOF 6
