REMARK  Name = ZINC01563249
REMARK  2 active torsions:
REMARK  status: ('A' for Active; 'I' for Inactive)
REMARK    1  A    between atoms: C_10  and  C_14
REMARK    2  A    between atoms: C_14  and  C_15
REMARK                            x       y       z     vdW  Elec       q    Type
REMARK                         _______ _______ _______ _____ _____    ______ ____
ROOT
ATOM      1  C   UNL     1       2.396   0.040  -0.024  0.00  0.00    +0.053 A 
ATOM      2  C   UNL     1       1.207  -0.674  -0.017  0.00  0.00    -0.044 A 
ATOM      3  C   UNL     1       0.002  -0.004   0.002  0.00  0.00    -0.054 A 
ATOM      4  C   UNL     1      -0.017   1.384   0.010  0.00  0.00    +0.051 A 
ATOM      5  C   UNL     1       1.166   2.101   0.002  0.00  0.00    +0.166 A 
ATOM      6  C   UNL     1       2.383   1.423  -0.014  0.00  0.00    +0.167 A 
ATOM      7  O   UNL     1       3.393   2.341  -0.017  0.00  0.00    -0.453 OA
ATOM      8  C   UNL     1       2.791   3.578   0.409  0.00  0.00    +0.466 C 
ATOM      9  O   UNL     1       1.414   3.443   0.008  0.00  0.00    -0.453 OA
ATOM     10  C   UNL     1      -1.314  -0.737   0.022  0.00  0.00    -0.036 C 
ATOM     11  C   UNL     1      -0.069  -2.767   0.397  0.00  0.00    -0.077 C 
ATOM     12  C   UNL     1       1.275  -2.179  -0.034  0.00  0.00    +0.016 C 
ATOM     13  N   UNL     1      -1.135  -2.133  -0.401  0.00  0.00    +0.384 N 
ATOM     14  H   UNL     1      -0.877  -2.157  -1.395  0.00  0.00    -0.085 HD
ATOM     15  H   UNL     1      -2.014  -2.645  -0.263  0.00  0.00    -0.085 HD
ENDROOT
BRANCH  10  16
ATOM     16  C   UNL     1      -2.291  -0.046  -0.931  0.00  0.00    +0.025 C 
BRANCH  16  17
ATOM     17  C   UNL     1      -3.645  -0.700  -0.823  0.00  0.00    -0.031 A 
ATOM     18  C   UNL     1      -4.637  -0.110  -0.062  0.00  0.00    +0.054 A 
ATOM     19  C   UNL     1      -5.882  -0.708   0.038  0.00  0.00    +0.167 A 
ATOM     20  C   UNL     1      -6.132  -1.905  -0.630  0.00  0.00    +0.167 A 
ATOM     21  C   UNL     1      -5.133  -2.491  -1.390  0.00  0.00    +0.065 A 
ATOM     22  C   UNL     1      -3.894  -1.885  -1.490  0.00  0.00    +0.025 A 
ATOM     23 BR   UNL     1      -2.535  -2.683  -2.536  0.00  0.00    -0.050 Br
ATOM     24  O   UNL     1      -7.418  -2.286  -0.376  0.00  0.00    -0.453 OA
ATOM     25  C   UNL     1      -7.823  -1.528   0.778  0.00  0.00    +0.466 C 
ATOM     26  O   UNL     1      -7.012  -0.340   0.709  0.00  0.00    -0.453 OA
ENDBRANCH  16  17
ENDBRANCH  10  16
TORSDOF 2
