REMARK  Name = ZINC37392196
REMARK  2 active torsions:
REMARK  status: ('A' for Active; 'I' for Inactive)
REMARK    1  A    between atoms: C_8  and  N_13
REMARK    2  A    between atoms: N_13  and  C_14
REMARK                            x       y       z     vdW  Elec       q    Type
REMARK                         _______ _______ _______ _____ _____    ______ ____
ROOT
ATOM      1  C   UNL     1      -0.017   1.379   0.010  0.00  0.00    +0.022 A 
ATOM      2  C   UNL     1       1.164   2.093   0.002  0.00  0.00    +0.025 A 
ATOM      3  C   UNL     1       2.386   1.424  -0.013  0.00  0.00    +0.039 A 
ATOM      4  C   UNL     1       2.392   0.034  -0.021  0.00  0.00    +0.004 A 
ATOM      5  C   UNL     1       1.213  -0.676  -0.013  0.00  0.00    +0.027 A 
ATOM      6  C   UNL     1       0.002  -0.004   0.002  0.00  0.00    +0.041 A 
ATOM      7 CL   UNL     1      -1.488  -0.895   0.012  0.00  0.00    -0.084 Cl
ATOM      8  C   UNL     1       3.844  -0.384  -0.037  0.00  0.00    +0.190 C 
ATOM      9  C   UNL     1       4.605   0.924  -0.037  0.00  0.00    +0.242 C 
ATOM     10  O   UNL     1       5.811   1.057  -0.048  0.00  0.00    -0.273 OA
ATOM     11  N   UNL     1       3.694   1.912  -0.023  0.00  0.00    -0.283 N 
ATOM     12  H   UNL     1       3.919   2.855  -0.020  0.00  0.00    +0.155 HD
ENDROOT
BRANCH   8  13
ATOM     13  N   UNL     1       4.143  -1.155  -1.246  0.00  0.00    -0.328 N 
ATOM     14  H   UNL     1       3.603  -1.035  -2.043  0.00  0.00    +0.147 HD
BRANCH  13  15
ATOM     15  C   UNL     1       5.205  -2.063  -1.252  0.00  0.00    +0.047 A 
ATOM     16  C   UNL     1       5.975  -2.241  -0.110  0.00  0.00    +0.025 A 
ATOM     17  C   UNL     1       7.024  -3.139  -0.118  0.00  0.00    +0.017 A 
ATOM     18  C   UNL     1       7.309  -3.863  -1.262  0.00  0.00    +0.019 A 
ATOM     19  C   UNL     1       6.544  -3.689  -2.402  0.00  0.00    +0.037 A 
ATOM     20  C   UNL     1       5.490  -2.795  -2.399  0.00  0.00    +0.063 A 
ATOM     21 CL   UNL     1       4.526  -2.582  -3.827  0.00  0.00    -0.082 Cl
ATOM     22 BR   UNL     1       8.746  -5.092  -1.269  0.00  0.00    -0.050 Br
ENDBRANCH  13  15
ENDBRANCH   8  13
TORSDOF 2
