REMARK  Name = ZINC67105900
REMARK  8 active torsions:
REMARK  status: ('A' for Active; 'I' for Inactive)
REMARK    1  A    between atoms: C_1  and  C_2
REMARK    2  A    between atoms: C_2  and  C_4
REMARK    3  A    between atoms: C_2  and  N_18
REMARK    4  A    between atoms: C_4  and  C_5
REMARK    5  A    between atoms: N_7  and  N_8
REMARK    6  A    between atoms: C_9  and  C_11
REMARK    7  A    between atoms: C_16  and  O_17
REMARK    8  A    between atoms: C_19  and  C_21
REMARK                            x       y       z     vdW  Elec       q    Type
REMARK                         _______ _______ _______ _____ _____    ______ ____
ROOT
ATOM      1  C   UNL     1       0.870  -2.011   1.172  0.00  0.00    +0.231 C 
ATOM      2  O   UNL     1       0.414  -2.615   0.224  0.00  0.00    -0.274 OA
ATOM      3  N   UNL     1       1.491  -2.681   2.163  0.00  0.00    -0.234 N 
ATOM      4  H   UNL     1       1.855  -2.198   2.921  0.00  0.00    +0.173 HD
ENDROOT
BRANCH   3   5
ATOM      5  N   UNL     1       1.610  -4.075   2.098  0.00  0.00    -0.230 N 
ATOM      6  C   UNL     1       2.231  -4.745   3.089  0.00  0.00    +0.264 C 
ATOM      7  O   UNL     1       2.688  -4.140   4.039  0.00  0.00    -0.269 OA
ATOM      8  H   UNL     1       1.245  -4.559   1.340  0.00  0.00    +0.173 HD
BRANCH   6   9
ATOM      9  C   UNL     1       2.356  -6.214   3.021  0.00  0.00    +0.079 A 
ATOM     10  C   UNL     1       1.837  -6.913   1.928  0.00  0.00    +0.017 A 
ATOM     11  C   UNL     1       1.958  -8.285   1.871  0.00  0.00    +0.001 A 
ATOM     12  C   UNL     1       2.591  -8.975   2.892  0.00  0.00    +0.004 A 
ATOM     13  C   UNL     1       3.107  -8.296   3.977  0.00  0.00    +0.046 A 
ATOM     14  C   UNL     1       3.001  -6.915   4.049  0.00  0.00    +0.129 A 
BRANCH  14  15
ATOM     15  O   UNL     1       3.514  -6.246   5.112  0.00  0.00    -0.506 OA
ATOM     16  H   UNL     1       2.893  -6.137   5.845  0.00  0.00    +0.292 HD
ENDBRANCH  14  15
ENDBRANCH   6   9
ENDBRANCH   3   5
BRANCH   1  17
ATOM     17  C   UNL     1       0.742  -0.511   1.242  0.00  0.00    +0.119 C 
BRANCH  17  19
ATOM     18  C   UNL     1      -0.019   1.526   0.010  0.00  0.00    +0.028 C 
ATOM     19  C   UNL     1       0.002  -0.004   0.002  0.00  0.00    +0.079 C 
BRANCH  19  20
ATOM     20  N   UNL     1      -1.372  -0.511   0.012  0.00  0.00    -0.312 N 
ATOM     21  C   UNL     1      -2.051  -0.643  -1.145  0.00  0.00    +0.216 C 
ATOM     22  O   UNL     1      -1.524  -0.341  -2.194  0.00  0.00    -0.276 OA
ATOM     23  H   UNL     1      -1.794  -0.752   0.852  0.00  0.00    +0.149 HD
BRANCH  21  24
ATOM     24  C   UNL     1      -3.465  -1.164  -1.134  0.00  0.00    +0.075 C 
ATOM     25  C   UNL     1      -3.485  -2.571  -0.532  0.00  0.00    +0.013 C 
ATOM     26  C   UNL     1      -4.920  -3.100  -0.521  0.00  0.00    +0.001 C 
ATOM     27  C   UNL     1      -5.456  -3.151  -1.953  0.00  0.00    +0.000 C 
ATOM     28  C   UNL     1      -5.436  -1.745  -2.555  0.00  0.00    +0.001 C 
ATOM     29  C   UNL     1      -4.000  -1.215  -2.566  0.00  0.00    +0.013 C 
ENDBRANCH  21  24
ENDBRANCH  19  20
ENDBRANCH  17  19
ENDBRANCH   1  17
TORSDOF 7
