REMARK  Name = ZINC02066523
REMARK  3 active torsions:
REMARK  status: ('A' for Active; 'I' for Inactive)
REMARK    1  A    between atoms: C_1  and  C_2
REMARK    2  A    between atoms: C_9  and  C_13
REMARK    3  A    between atoms: C_9  and  O_17
REMARK                            x       y       z     vdW  Elec       q    Type
REMARK                         _______ _______ _______ _____ _____    ______ ____
ROOT
ATOM      1  C   UNL     1      -1.333   2.112   0.020  0.00  0.00    +0.044 C 
ATOM      2  C   UNL     1      -0.017   1.379   0.010  0.00  0.00    -0.047 A 
ATOM      3  C   UNL     1       0.002  -0.004   0.002  0.00  0.00    +0.005 A 
ATOM      4  C   UNL     1       1.207  -0.683  -0.018  0.00  0.00    +0.027 A 
ATOM      5  C   UNL     1       2.397   0.025  -0.036  0.00  0.00    +0.076 A 
ATOM      6  C   UNL     1       2.379   1.419  -0.015  0.00  0.00    +0.146 A 
ATOM      7  C   UNL     1       1.169   2.091   0.002  0.00  0.00    +0.051 A 
ATOM      8  O   UNL     1       3.550   2.109  -0.004  0.00  0.00    -0.444 OA
ATOM      9  C   UNL     1       4.661   1.513  -0.678  0.00  0.00    +0.386 C 
ATOM     10  C   UNL     1       4.755   0.054  -0.308  0.00  0.00    +0.299 C 
ATOM     11  O   UNL     1       5.837  -0.488  -0.232  0.00  0.00    -0.268 OA
ATOM     12  N   UNL     1       3.627  -0.646  -0.062  0.00  0.00    -0.277 N 
ATOM     13  H   UNL     1       3.668  -1.603   0.095  0.00  0.00    +0.155 HD
ENDROOT
BRANCH   9  14
ATOM     14  C   UNL     1       4.470   1.644  -2.190  0.00  0.00    +0.466 C 
ATOM     15  F   UNL     1       3.292   0.991  -2.569  0.00  0.00    -0.164 F 
ATOM     16  F   UNL     1       4.383   2.998  -2.533  0.00  0.00    -0.164 F 
ATOM     17  F   UNL     1       5.558   1.064  -2.850  0.00  0.00    -0.164 F 
ENDBRANCH   9  14
BRANCH   9  18
ATOM     18  O   UNL     1       5.865   2.179  -0.292  0.00  0.00    -0.342 OA
ATOM     19  H   UNL     1       5.875   3.124  -0.499  0.00  0.00    +0.215 HD
ENDBRANCH   9  18
TORSDOF 2
