REMARK  Name = ZINC58949932
REMARK  8 active torsions:
REMARK  status: ('A' for Active; 'I' for Inactive)
REMARK    1  A    between atoms: C_1  and  C_2
REMARK    2  A    between atoms: C_2  and  C_3
REMARK    3  A    between atoms: C_2  and  C_4
REMARK    4  A    between atoms: C_7  and  C_10
REMARK    5  A    between atoms: C_15  and  C_19
REMARK    6  A    between atoms: C_15  and  C_20
REMARK    7  A    between atoms: C_22  and  N_27
REMARK    8  A    between atoms: C_23  and  C_24
REMARK                            x       y       z     vdW  Elec       q    Type
REMARK                         _______ _______ _______ _____ _____    ______ ____
ROOT
ATOM      1  C   UNL     1       2.897  -1.923   4.802  0.00  0.00    +0.096 C 
ATOM      2  C   UNL     1       2.142  -1.477   6.031  0.00  0.00    +0.045 C 
ATOM      3  C   UNL     1       1.248  -2.292   6.620  0.00  0.00    +0.115 C 
ATOM      4  C   UNL     1       0.486  -1.845   7.845  0.00  0.00    +0.081 C 
ATOM      5  C   UNL     1       1.344  -0.877   8.661  0.00  0.00    -0.021 C 
ATOM      6  C   UNL     1       1.707   0.318   7.772  0.00  0.00    +0.086 C 
ATOM      7  C   UNL     1       2.403  -0.189   6.538  0.00  0.00    +0.164 C 
ATOM      8  O   UNL     1       3.204   0.526   5.969  0.00  0.00    -0.292 OA
ATOM      9  C   UNL     1       2.621  -1.583   9.120  0.00  0.00    +0.012 C 
ATOM     10  C   UNL     1       0.554  -0.391   9.878  0.00  0.00    +0.012 C 
ATOM     11  O   UNL     1       1.005  -3.526   6.136  0.00  0.00    -0.446 OA
ATOM     12  C   UNL     1       1.902  -4.133   5.344  0.00  0.00    +0.193 C 
ATOM     13  C   UNL     1       2.837  -3.419   4.673  0.00  0.00    +0.083 C 
ENDROOT
BRANCH   1  17
ATOM     14  C   UNL     1       1.150  -0.135   1.339  0.00  0.00    -0.045 A 
ATOM     15  C   UNL     1       2.472   0.118   1.655  0.00  0.00    +0.004 A 
ATOM     16  C   UNL     1       3.037  -0.461   2.775  0.00  0.00    +0.005 A 
ATOM     17  C   UNL     1       2.280  -1.292   3.581  0.00  0.00    -0.035 A 
ATOM     18  C   UNL     1       0.958  -1.543   3.265  0.00  0.00    +0.005 A 
ATOM     19  C   UNL     1       0.392  -0.961   2.147  0.00  0.00    +0.004 A 
BRANCH  14  21
ATOM     20  C   UNL     1       0.606   2.019   0.238  0.00  0.00    +0.012 C 
ATOM     21  C   UNL     1       0.533   0.496   0.117  0.00  0.00    +0.013 C 
ATOM     22  C   UNL     1       1.298   0.047  -1.130  0.00  0.00    +0.012 C 
ENDBRANCH  14  21
ENDBRANCH   1  17
BRANCH  13  23
ATOM     23  C   UNL     1       3.759  -4.087   3.848  0.00  0.00    +0.243 C 
ATOM     24  O   UNL     1       4.894  -4.291   4.243  0.00  0.00    -0.271 OA
ATOM     25  N   UNL     1       3.388  -4.500   2.620  0.00  0.00    -0.325 N 
ATOM     26  H   UNL     1       2.485  -4.338   2.305  0.00  0.00    +0.145 HD
ATOM     27  H   UNL     1       4.024  -4.961   2.050  0.00  0.00    +0.145 HD
ENDBRANCH  13  23
BRANCH  12  28
ATOM     28  N   UNL     1       1.870  -5.497   5.212  0.00  0.00    -0.329 N 
ATOM     29  H   UNL     1       1.258  -6.022   5.750  0.00  0.00    +0.145 HD
ATOM     30  H   UNL     1       2.461  -5.936   4.580  0.00  0.00    +0.145 HD
ENDBRANCH  12  28
TORSDOF 4
