REMARK  Name = ZINC45681731
REMARK  10 active torsions:
REMARK  status: ('A' for Active; 'I' for Inactive)
REMARK    1  A    between atoms: C_1  and  C_2
REMARK    2  A    between atoms: C_2  and  C_4
REMARK    3  A    between atoms: C_2  and  N_10
REMARK    4  A    between atoms: N_6  and  C_7
REMARK    5  A    between atoms: N_13  and  C_16
REMARK    6  A    between atoms: C_16  and  C_17
REMARK    7  A    between atoms: N_19  and  C_20
REMARK    8  A    between atoms: C_21  and  C_29
REMARK    9  A    between atoms: C_29  and  O_31
REMARK   10  A    between atoms: O_31  and  C_32
REMARK                            x       y       z     vdW  Elec       q    Type
REMARK                         _______ _______ _______ _____ _____    ______ ____
ROOT
ATOM      1  C   UNL     1      -2.859  -3.675   3.177  0.00  0.00    +0.180 C 
ENDROOT
BRANCH   1   5
ATOM      2  N   UNL     1      -0.960  -0.979   0.533  0.00  0.00    +0.389 N 
ATOM      3  C   UNL     1      -0.258  -2.224   0.872  0.00  0.00    -0.062 C 
ATOM      4  C   UNL     1      -1.262  -3.247   1.408  0.00  0.00    +0.066 C 
ATOM      5  N   UNL     1      -1.926  -2.699   2.599  0.00  0.00    -0.298 NA
ATOM      6  C   UNL     1      -2.613  -1.439   2.281  0.00  0.00    +0.066 C 
ATOM      7  C   UNL     1      -1.597  -0.431   1.738  0.00  0.00    -0.062 C 
ATOM      8  H   UNL     1      -1.665  -1.170  -0.163  0.00  0.00    -0.081 HD
BRANCH   2  10
ATOM      9  C   UNL     1      -0.721   1.308  -0.310  0.00  0.00    -0.004 C 
ATOM     10  C   UNL     1       0.002  -0.004   0.002  0.00  0.00    +0.016 C 
BRANCH  10  11
ATOM     11  C   UNL     1       0.624  -0.547  -1.259  0.00  0.00    +0.199 C 
ATOM     12  O   UNL     1       0.008  -1.333  -1.948  0.00  0.00    -0.278 OA
ATOM     13  N   UNL     1       1.863  -0.160  -1.620  0.00  0.00    -0.314 N 
ATOM     14  H   UNL     1       2.355   0.468  -1.069  0.00  0.00    +0.149 HD
BRANCH  13  15
ATOM     15  C   UNL     1       2.467  -0.688  -2.846  0.00  0.00    +0.073 C 
ATOM     16  C   UNL     1       3.932  -1.124  -2.780  0.00  0.00    +0.024 C 
ATOM     17  C   UNL     1       3.548   0.158  -3.522  0.00  0.00    +0.024 C 
ENDBRANCH  13  15
ENDBRANCH  10  11
ENDBRANCH   2  10
ENDBRANCH   1   5
BRANCH   1  18
ATOM     18  C   UNL     1      -3.334  -3.183   4.520  0.00  0.00    +0.232 C 
ATOM     19  O   UNL     1      -2.934  -2.123   4.953  0.00  0.00    -0.274 OA
ATOM     20  N   UNL     1      -4.202  -3.920   5.240  0.00  0.00    -0.278 N 
ATOM     21  H   UNL     1      -4.522  -4.768   4.894  0.00  0.00    +0.155 HD
BRANCH  20  22
ATOM     22  C   UNL     1      -4.638  -3.467   6.475  0.00  0.00    +0.086 A 
ATOM     23  C   UNL     1      -5.517  -4.088   7.350  0.00  0.00    +0.091 A 
ATOM     24  C   UNL     1      -5.815  -3.398   8.594  0.00  0.00    -0.021 A 
ATOM     25  C   UNL     1      -5.180  -2.215   8.735  0.00  0.00    -0.004 A 
ATOM     26  S   UNL     1      -4.218  -2.043   7.260  0.00  0.00    -0.077 S 
ATOM     27  C   UNL     1      -5.279  -1.274   9.895  0.00  0.00    +0.043 C 
ATOM     28  C   UNL     1      -6.501  -1.671  10.736  0.00  0.00    +0.005 C 
ATOM     29  C   UNL     1      -6.465  -3.183  10.977  0.00  0.00    +0.005 C 
ATOM     30  C   UNL     1      -6.752  -3.926   9.670  0.00  0.00    +0.037 C 
BRANCH  23  31
ATOM     31  C   UNL     1      -6.121  -5.384   7.033  0.00  0.00    +0.342 C 
ATOM     32  O   UNL     1      -5.563  -6.413   7.366  0.00  0.00    -0.245 OA
BRANCH  31  33
ATOM     33  O   UNL     1      -7.295  -5.438   6.371  0.00  0.00    -0.464 OA
ATOM     34  C   UNL     1      -7.825  -6.736   6.096  0.00  0.00    +0.280 C 
ENDBRANCH  31  33
ENDBRANCH  23  31
ENDBRANCH  20  22
ENDBRANCH   1  18
TORSDOF 8
