REMARK  Name = ZINC36801596
REMARK  6 active torsions:
REMARK  status: ('A' for Active; 'I' for Inactive)
REMARK    1  A    between atoms: C_1  and  C_2
REMARK    2  A    between atoms: C_2  and  C_31
REMARK    3  A    between atoms: C_13  and  C_15
REMARK    4  A    between atoms: C_15  and  S_16
REMARK    5  A    between atoms: S_16  and  C_17
REMARK    6  A    between atoms: C_23  and  C_27
REMARK                            x       y       z     vdW  Elec       q    Type
REMARK                         _______ _______ _______ _____ _____    ______ ____
ROOT
ATOM      1  C   UNL     1       0.002   1.577   0.026  0.00  0.00    +0.042 C 
ATOM      2  C   UNL     1      -0.194   0.069   0.202  0.00  0.00    +0.113 C 
ATOM      3  C   UNL     1      -1.638  -0.216   0.527  0.00  0.00    +0.241 C 
ATOM      4  O   UNL     1      -2.506   0.506   0.085  0.00  0.00    -0.273 OA
ATOM      5  N   UNL     1      -1.975  -1.264   1.303  0.00  0.00    -0.282 N 
ATOM      6  C   UNL     1      -0.991  -2.083   1.866  0.00  0.00    +0.055 A 
ATOM      7  C   UNL     1      -1.320  -3.313   2.414  0.00  0.00    +0.025 A 
ATOM      8  C   UNL     1      -0.332  -4.105   2.970  0.00  0.00    +0.002 A 
ATOM      9  C   UNL     1       0.983  -3.677   2.983  0.00  0.00    +0.002 A 
ATOM     10  C   UNL     1       1.321  -2.451   2.437  0.00  0.00    +0.025 A 
ATOM     11  C   UNL     1       0.338  -1.655   1.877  0.00  0.00    +0.059 A 
ATOM     12  N   UNL     1       0.650  -0.411   1.306  0.00  0.00    -0.255 N 
ATOM     13  C   UNL     1       1.691   0.318   1.753  0.00  0.00    +0.231 C 
ATOM     14  O   UNL     1       1.903   1.419   1.292  0.00  0.00    -0.274 OA
ATOM     15  C   UNL     1       0.194  -0.651  -1.091  0.00  0.00    +0.042 C 
ATOM     16  H   UNL     1      -2.911  -1.453   1.473  0.00  0.00    +0.155 HD
ENDROOT
BRANCH  13  17
ATOM     17  C   UNL     1       2.592  -0.234   2.828  0.00  0.00    +0.173 C 
BRANCH  17  18
ATOM     18  S   UNL     1       3.542   1.118   3.575  0.00  0.00    -0.076 S 
BRANCH  18  19
ATOM     19  C   UNL     1       4.532   0.320   4.795  0.00  0.00    +0.196 A 
ATOM     20  N   UNL     1       4.551  -0.966   5.063  0.00  0.00    -0.122 NA
ATOM     21  N   UNL     1       5.387  -1.212   6.010  0.00  0.00    -0.127 NA
ATOM     22  C   UNL     1       5.956  -0.088   6.404  0.00  0.00    +0.180 A 
ATOM     23  N   UNL     1       5.426   0.922   5.630  0.00  0.00    -0.276 N 
ATOM     24  C   UNL     1       5.832   2.216   5.808  0.00  0.00    +0.107 A 
ATOM     25  C   UNL     1       6.759   2.520   6.738  0.00  0.00    +0.073 A 
ATOM     26  C   UNL     1       7.322   1.510   7.541  0.00  0.00    +0.037 A 
ATOM     27  C   UNL     1       6.922   0.219   7.384  0.00  0.00    +0.086 A 
ATOM     28 CL   UNL     1       7.609  -1.038   8.366  0.00  0.00    -0.080 Cl
BRANCH  25  29
ATOM     29  C   UNL     1       7.196   3.951   6.920  0.00  0.00    +0.419 C 
ATOM     30  F   UNL     1       6.452   4.538   7.949  0.00  0.00    -0.166 F 
ATOM     31  F   UNL     1       8.556   3.985   7.249  0.00  0.00    -0.166 F 
ATOM     32  F   UNL     1       6.986   4.657   5.731  0.00  0.00    -0.166 F 
ENDBRANCH  25  29
ENDBRANCH  18  19
ENDBRANCH  17  18
ENDBRANCH  13  17
TORSDOF 4
