REMARK  Name = ZINC03181029
REMARK  7 active torsions:
REMARK  status: ('A' for Active; 'I' for Inactive)
REMARK    1  A    between atoms: C_7  and  C_11
REMARK    2  A    between atoms: C_11  and  C_12
REMARK    3  A    between atoms: C_12  and  C_14
REMARK    4  A    between atoms: C_12  and  N_29
REMARK    5  A    between atoms: N_16  and  N_17
REMARK    6  A    between atoms: C_18  and  C_19
REMARK    7  A    between atoms: C_30  and  C_32
REMARK                            x       y       z     vdW  Elec       q    Type
REMARK                         _______ _______ _______ _____ _____    ______ ____
ROOT
ATOM      1  C   UNL     1      -8.482  -0.959   0.044  0.00  0.00    +0.165 C 
ENDROOT
BRANCH   1   2
ATOM      2  C   UNL     1      -7.185  -0.192   0.042  0.00  0.00    +0.253 C 
ATOM      3  O   UNL     1      -7.197   1.021   0.050  0.00  0.00    -0.272 OA
ATOM      4  N   UNL     1      -6.011  -0.854   0.031  0.00  0.00    -0.205 N 
ATOM      5  H   UNL     1      -6.001  -1.824   0.024  0.00  0.00    +0.177 HD
BRANCH   4   6
ATOM      6  N   UNL     1      -4.805  -0.141   0.028  0.00  0.00    -0.188 NA
ATOM      7  C   UNL     1      -3.674  -0.778   0.018  0.00  0.00    +0.138 C 
BRANCH   7   8
ATOM      8  C   UNL     1      -2.405  -0.028   0.015  0.00  0.00    -0.002 A 
ATOM      9  C   UNL     1      -2.417   1.369   0.025  0.00  0.00    +0.013 A 
ATOM     10  C   UNL     1      -1.228   2.067   0.019  0.00  0.00    +0.050 A 
ATOM     11  C   UNL     1      -0.017   1.388   0.010  0.00  0.00    +0.162 A 
ATOM     12  C   UNL     1       0.002  -0.004   0.002  0.00  0.00    +0.163 A 
ATOM     13  C   UNL     1      -1.187  -0.712   0.004  0.00  0.00    +0.059 A 
ATOM     14  O   UNL     1       1.181  -0.685  -0.006  0.00  0.00    -0.485 OA
ATOM     15  C   UNL     1       2.348   0.054  -0.386  0.00  0.00    +0.270 C 
ATOM     16  C   UNL     1       2.334   1.392   0.366  0.00  0.00    +0.270 C 
ATOM     17  O   UNL     1       1.144   2.099   0.002  0.00  0.00    -0.485 OA
ENDBRANCH   7   8
ENDBRANCH   4   6
ENDBRANCH   1   2
BRANCH   1  18
ATOM     18  N   UNL     1      -9.605  -0.018   0.057  0.00  0.00    -0.300 N 
ATOM     19  C   UNL     1     -10.798  -0.400   0.554  0.00  0.00    +0.245 C 
ATOM     20  O   UNL     1     -10.942  -1.525   0.993  0.00  0.00    -0.270 OA
ATOM     21  H   UNL     1      -9.490   0.879  -0.293  0.00  0.00    +0.150 HD
BRANCH  19  22
ATOM     22  C   UNL     1     -11.931   0.549   0.567  0.00  0.00    +0.037 A 
ATOM     23  C   UNL     1     -11.767   1.843   0.069  0.00  0.00    +0.014 A 
ATOM     24  C   UNL     1     -12.830   2.721   0.077  0.00  0.00    +0.021 A 
ATOM     25  C   UNL     1     -14.055   2.326   0.590  0.00  0.00    +0.041 A 
ATOM     26  C   UNL     1     -14.222   1.046   1.091  0.00  0.00    +0.021 A 
ATOM     27  C   UNL     1     -13.168   0.156   1.082  0.00  0.00    +0.014 A 
ATOM     28 CL   UNL     1     -15.386   3.441   0.604  0.00  0.00    -0.084 Cl
ENDBRANCH  19  22
ENDBRANCH   1  18
BRANCH   1  29
ATOM     29  C   UNL     1      -8.561  -1.831  -1.210  0.00  0.00    +0.069 C 
BRANCH  29  36
ATOM     30  C   UNL     1     -13.035  -1.097  -2.401  0.00  0.00    +0.001 A 
ATOM     31  C   UNL     1     -13.846  -2.198  -2.162  0.00  0.00    +0.002 A 
ATOM     32  C   UNL     1     -13.322  -3.354  -1.627  0.00  0.00    +0.026 A 
ATOM     33  C   UNL     1     -11.966  -3.422  -1.324  0.00  0.00    +0.047 A 
ATOM     34  C   UNL     1     -11.149  -2.301  -1.562  0.00  0.00    +0.003 A 
ATOM     35  C   UNL     1     -11.701  -1.141  -2.110  0.00  0.00    +0.010 A 
ATOM     36  C   UNL     1      -9.799  -2.689  -1.148  0.00  0.00    -0.020 A 
ATOM     37  C   UNL     1      -9.874  -3.951  -0.698  0.00  0.00    +0.087 A 
ATOM     38  N   UNL     1     -11.161  -4.406  -0.795  0.00  0.00    -0.360 N 
ATOM     39  H   UNL     1     -11.461  -5.290  -0.531  0.00  0.00    +0.165 HD
ENDBRANCH  29  36
ENDBRANCH   1  29
TORSDOF 7
