REMARK  Name = ZINC40043670
REMARK  11 active torsions:
REMARK  status: ('A' for Active; 'I' for Inactive)
REMARK    1  A    between atoms: C_1  and  C_2
REMARK    2  A    between atoms: C_2  and  C_3
REMARK    3  A    between atoms: N_16  and  C_28
REMARK    4  A    between atoms: C_17  and  C_19
REMARK    5  A    between atoms: C_22  and  N_25
REMARK    6  A    between atoms: C_28  and  C_29
REMARK    7  A    between atoms: C_29  and  C_30
REMARK    8  A    between atoms: C_33  and  O_38
REMARK    9  A    between atoms: C_34  and  O_36
REMARK   10  A    between atoms: O_36  and  C_37
REMARK   11  A    between atoms: O_38  and  C_39
REMARK                            x       y       z     vdW  Elec       q    Type
REMARK                         _______ _______ _______ _____ _____    ______ ____
ROOT
ATOM      1  C   UNL     1       0.707  -0.490  -1.238  0.00  0.00    -0.047 A 
ATOM      2  C   UNL     1      -0.016  -0.719  -2.400  0.00  0.00    +0.007 A 
ATOM      3  C   UNL     1       0.609  -1.166  -3.543  0.00  0.00    +0.047 A 
ATOM      4  C   UNL     1       1.985  -1.393  -3.544  0.00  0.00    +0.139 A 
ATOM      5  C   UNL     1       2.707  -1.153  -2.364  0.00  0.00    +0.065 A 
ATOM      6  C   UNL     1       2.058  -0.699  -1.216  0.00  0.00    +0.019 A 
ATOM      7  C   UNL     1       4.175  -1.377  -2.359  0.00  0.00    +0.199 A 
ATOM      8  O   UNL     1       4.850  -1.357  -1.345  0.00  0.00    -0.287 OA
ATOM      9  C   UNL     1       4.734  -1.627  -3.692  0.00  0.00    +0.072 A 
ATOM     10  C   UNL     1       3.921  -1.838  -4.769  0.00  0.00    +0.199 A 
ATOM     11  O   UNL     1       2.576  -1.839  -4.675  0.00  0.00    -0.450 OA
ATOM     12  C   UNL     1       4.769  -2.048  -5.955  0.00  0.00    +0.283 C 
ATOM     13  O   UNL     1       4.356  -2.259  -7.078  0.00  0.00    -0.267 OA
ATOM     14  N   UNL     1       6.072  -1.972  -5.613  0.00  0.00    -0.283 N 
ATOM     15  C   UNL     1       6.148  -1.704  -4.167  0.00  0.00    +0.144 C 
ENDROOT
BRANCH  15  16
ATOM     16  C   UNL     1       6.852  -0.395  -3.918  0.00  0.00    -0.022 A 
ATOM     17  C   UNL     1       6.638   0.678  -4.763  0.00  0.00    +0.008 A 
ATOM     18  C   UNL     1       7.284   1.878  -4.534  0.00  0.00    +0.033 A 
ATOM     19  C   UNL     1       8.144   2.006  -3.459  0.00  0.00    +0.126 A 
ATOM     20  C   UNL     1       8.358   0.933  -2.614  0.00  0.00    +0.033 A 
ATOM     21  C   UNL     1       7.709  -0.266  -2.840  0.00  0.00    +0.008 A 
BRANCH  19  22
ATOM     22  N   UNL     1       8.837   3.291  -3.215  0.00  0.00    +0.056 N 
ATOM     23  O   UNL     1       8.650   4.229  -3.954  0.00  0.00    -0.126 OA
ATOM     24  O   UNL     1       9.590   3.403  -2.275  0.00  0.00    -0.126 OA
ENDBRANCH  19  22
ENDBRANCH  15  16
BRANCH   1  26
ATOM     25  C   UNL     1      -0.019   1.526   0.010  0.00  0.00    +0.009 C 
ATOM     26  C   UNL     1       0.002  -0.004   0.002  0.00  0.00    +0.032 C 
ENDBRANCH   1  26
BRANCH  14  27
ATOM     27  C   UNL     1       7.211  -2.129  -6.520  0.00  0.00    +0.114 C 
BRANCH  27  28
ATOM     28  C   UNL     1       7.594  -0.765  -7.099  0.00  0.00    +0.054 C 
BRANCH  28  29
ATOM     29  C   UNL     1       8.766  -0.926  -8.032  0.00  0.00    -0.042 A 
ATOM     30  C   UNL     1      10.056  -0.830  -7.543  0.00  0.00    +0.007 A 
ATOM     31  C   UNL     1      11.134  -0.977  -8.396  0.00  0.00    +0.049 A 
ATOM     32  C   UNL     1      10.923  -1.223  -9.743  0.00  0.00    +0.161 A 
ATOM     33  C   UNL     1       9.625  -1.321 -10.235  0.00  0.00    +0.162 A 
ATOM     34  C   UNL     1       8.549  -1.177  -9.374  0.00  0.00    +0.053 A 
BRANCH  33  35
ATOM     35  O   UNL     1       9.414  -1.562 -11.557  0.00  0.00    -0.491 OA
ATOM     36  C   UNL     1       8.055  -1.649 -11.991  0.00  0.00    +0.277 C 
ENDBRANCH  33  35
BRANCH  32  37
ATOM     37  O   UNL     1      11.983  -1.367 -10.583  0.00  0.00    -0.491 OA
ATOM     38  C   UNL     1      13.287  -1.254 -10.009  0.00  0.00    +0.277 C 
ENDBRANCH  32  37
ENDBRANCH  28  29
ENDBRANCH  27  28
ENDBRANCH  14  27
TORSDOF 8
