REMARK  Name = ZINC06196296
REMARK  15 active torsions:
REMARK  status: ('A' for Active; 'I' for Inactive)
REMARK    1  A    between atoms: C_1  and  C_2
REMARK    2  A    between atoms: C_2  and  O_3
REMARK    3  A    between atoms: O_3  and  C_4
REMARK    4  A    between atoms: C_7  and  C_10
REMARK    5  A    between atoms: C_10  and  N_73
REMARK    6  A    between atoms: C_11  and  C_12
REMARK    7  A    between atoms: C_11  and  N_73
REMARK    8  A    between atoms: C_17  and  C_19
REMARK    9  A    between atoms: C_17  and  C_32
REMARK   10  A    between atoms: C_17  and  N_73
REMARK   11  A    between atoms: C_25  and  C_31
REMARK   12  A    between atoms: N_36  and  C_37
REMARK   13  A    between atoms: C_37  and  C_38
REMARK   14  A    between atoms: C_37  and  C_39
REMARK   15  A    between atoms: C_37  and  C_40
REMARK                            x       y       z     vdW  Elec       q    Type
REMARK                         _______ _______ _______ _____ _____    ______ ____
ROOT
ATOM      1  C   UNL     1      -0.186  -2.905   3.512  0.00  0.00    +0.040 C 
ENDROOT
BRANCH   1   2
ATOM      2  C   UNL     1      -0.310  -2.269   2.151  0.00  0.00    +0.011 A 
ATOM      3  C   UNL     1      -0.138  -3.021   1.036  0.00  0.00    +0.017 A 
ATOM      4  C   UNL     1      -0.265  -2.374  -0.271  0.00  0.00    -0.001 A 
ATOM      5  C   UNL     1      -0.098  -3.098  -1.456  0.00  0.00    +0.010 A 
ATOM      6  C   UNL     1      -0.223  -2.464  -2.660  0.00  0.00    +0.001 A 
ATOM      7  C   UNL     1      -0.519  -1.109  -2.717  0.00  0.00    +0.005 A 
ATOM      8  C   UNL     1      -0.682  -0.375  -1.562  0.00  0.00    -0.026 A 
ATOM      9  C   UNL     1      -0.560  -0.999  -0.325  0.00  0.00    +0.052 A 
ATOM     10  N   UNL     1      -0.722  -0.290   0.846  0.00  0.00    -0.322 N 
ATOM     11  H   UNL     1      -0.930   0.688   0.805  0.00  0.00    +0.169 HD
ATOM     12  C   UNL     1      -0.605  -0.893   2.042  0.00  0.00    +0.251 A 
ATOM     13  O   UNL     1      -0.756  -0.235   3.057  0.00  0.00    -0.268 OA
ATOM     14  C   UNL     1      -0.998   1.097  -1.640  0.00  0.00    +0.046 C 
ENDBRANCH   1   2
BRANCH   1  15
ATOM     15  C   UNL     1       0.998  -2.317   4.235  0.00  0.00    +0.143 A 
ATOM     16  N   UNL     1       1.062  -1.135   4.800  0.00  0.00    -0.115 NA
ATOM     17  N   UNL     1       2.236  -1.004   5.313  0.00  0.00    -0.023 NA
ATOM     18  N   UNL     1       2.925  -2.067   5.084  0.00  0.00    -0.043 NA
ATOM     19  N   UNL     1       2.196  -2.900   4.421  0.00  0.00    -0.225 N 
BRANCH  19  20
ATOM     20  C   UNL     1       2.598  -4.231   3.959  0.00  0.00    +0.059 C 
ATOM     21  C   UNL     1       2.373  -4.335   2.449  0.00  0.00    +0.036 C 
ATOM     22  C   UNL     1       4.079  -4.454   4.271  0.00  0.00    +0.036 C 
ATOM     23  C   UNL     1       1.760  -5.293   4.675  0.00  0.00    +0.036 C 
ENDBRANCH  19  20
ENDBRANCH   1  15
BRANCH   1  24
ATOM     24  N   UNL     1      -1.409  -2.620   4.292  0.00  0.00    +0.397 N 
ATOM     25  H   UNL     1      -1.416  -1.627   4.552  0.00  0.00    -0.079 HD
BRANCH  24  26
ATOM     26  C   UNL     1      -1.425  -3.439   5.523  0.00  0.00    -0.041 C 
BRANCH  26  30
ATOM     27  C   UNL     1       0.811  -1.402   8.542  0.00  0.00    +0.121 A 
ATOM     28  C   UNL     1      -0.502  -1.036   8.284  0.00  0.00    +0.046 A 
ATOM     29  C   UNL     1      -1.222  -1.696   7.307  0.00  0.00    +0.005 A 
ATOM     30  C   UNL     1      -0.636  -2.720   6.588  0.00  0.00    -0.064 A 
ATOM     31  C   UNL     1       0.670  -3.091   6.847  0.00  0.00    +0.005 A 
ATOM     32  C   UNL     1       1.397  -2.430   7.818  0.00  0.00    +0.046 A 
BRANCH  27  33
ATOM     33  O   UNL     1       1.522  -0.754   9.502  0.00  0.00    -0.492 OA
BRANCH  33  35
ATOM     34  C   UNL     1       3.504  -0.344  10.823  0.00  0.00    +0.048 C 
ATOM     35  C   UNL     1       2.869  -1.184   9.713  0.00  0.00    +0.225 C 
ENDBRANCH  33  35
ENDBRANCH  27  33
ENDBRANCH  26  30
ENDBRANCH  24  26
BRANCH  24  36
ATOM     36  C   UNL     1      -2.607  -2.911   3.477  0.00  0.00    -0.001 C 
BRANCH  36  37
ATOM     37  C   UNL     1      -3.805  -2.272   4.132  0.00  0.00    +0.089 A 
ATOM     38  C   UNL     1      -4.276  -1.038   3.876  0.00  0.00    +0.042 A 
ATOM     39  C   UNL     1      -5.403  -0.849   4.708  0.00  0.00    +0.041 A 
ATOM     40  C   UNL     1      -5.553  -1.978   5.423  0.00  0.00    +0.195 A 
ATOM     41  O   UNL     1      -4.586  -2.839   5.065  0.00  0.00    -0.470 OA
ENDBRANCH  36  37
ENDBRANCH  24  36
ENDBRANCH   1  24
TORSDOF 10
