REMARK  Name = ZINC11933520
REMARK  2 active torsions:
REMARK  status: ('A' for Active; 'I' for Inactive)
REMARK    1  A    between atoms: C_11  and  C_27
REMARK    2  A    between atoms: C_16  and  C_18
REMARK                            x       y       z     vdW  Elec       q    Type
REMARK                         _______ _______ _______ _____ _____    ______ ____
ROOT
ATOM      1  C   UNL     1       1.660   0.662   2.858  0.00  0.00    +0.001 A 
ATOM      2  C   UNL     1       2.985   0.336   3.114  0.00  0.00    +0.002 A 
ATOM      3  C   UNL     1       3.998   1.213   2.794  0.00  0.00    +0.026 A 
ATOM      4  C   UNL     1       3.694   2.438   2.208  0.00  0.00    +0.047 A 
ATOM      5  C   UNL     1       2.348   2.764   1.950  0.00  0.00    +0.003 A 
ATOM      6  C   UNL     1       1.338   1.859   2.284  0.00  0.00    +0.010 A 
ATOM      7  C   UNL     1       2.369   4.092   1.343  0.00  0.00    -0.015 A 
ATOM      8  C   UNL     1       3.657   4.479   1.272  0.00  0.00    +0.046 A 
ATOM      9  N   UNL     1       4.461   3.501   1.784  0.00  0.00    -0.356 N 
ATOM     10  H   UNL     1       5.428   3.548   1.841  0.00  0.00    +0.166 HD
ATOM     11  C   UNL     1       4.097   5.810   0.704  0.00  0.00    +0.156 C 
ATOM     12  N   UNL     1       2.931   6.410   0.033  0.00  0.00    -0.285 N 
ATOM     13  C   UNL     1       1.632   6.370   0.720  0.00  0.00    +0.114 C 
ATOM     14  C   UNL     1       1.193   4.908   0.871  0.00  0.00    +0.056 C 
ATOM     15  C   UNL     1       3.052   6.981  -1.182  0.00  0.00    +0.248 C 
ATOM     16  O   UNL     1       2.115   7.586  -1.666  0.00  0.00    -0.270 OA
ENDROOT
BRANCH  15  17
ATOM     17  C   UNL     1       4.323   6.873  -1.925  0.00  0.00    +0.041 A 
ATOM     18  C   UNL     1       5.108   5.723  -1.807  0.00  0.00    +0.017 A 
ATOM     19  C   UNL     1       6.293   5.623  -2.502  0.00  0.00    +0.050 A 
ATOM     20  C   UNL     1       6.713   6.663  -3.321  0.00  0.00    +0.166 A 
ATOM     21  C   UNL     1       5.934   7.814  -3.443  0.00  0.00    +0.167 A 
ATOM     22  C   UNL     1       4.741   7.918  -2.754  0.00  0.00    +0.062 A 
ATOM     23  O   UNL     1       6.561   8.675  -4.298  0.00  0.00    -0.453 OA
ATOM     24  C   UNL     1       7.923   8.215  -4.375  0.00  0.00    +0.466 C 
ATOM     25  O   UNL     1       7.824   6.806  -4.097  0.00  0.00    -0.453 OA
ENDBRANCH  15  17
BRANCH  11  26
ATOM     26  C   UNL     1       4.569   6.711   1.817  0.00  0.00    +0.014 A 
ATOM     27  C   UNL     1       4.244   6.418   3.128  0.00  0.00    +0.008 A 
ATOM     28  C   UNL     1       4.681   7.240   4.149  0.00  0.00    +0.001 A 
ATOM     29  C   UNL     1       5.434   8.363   3.859  0.00  0.00    +0.003 A 
ATOM     30  C   UNL     1       5.755   8.661   2.549  0.00  0.00    +0.039 A 
ATOM     31  C   UNL     1       5.323   7.835   1.525  0.00  0.00    +0.129 A 
ATOM     32  F   UNL     1       5.636   8.125   0.244  0.00  0.00    -0.205 F 
ENDBRANCH  11  26
TORSDOF 2
