REMARK  Name = ZINC09472378
REMARK  7 active torsions:
REMARK  status: ('A' for Active; 'I' for Inactive)
REMARK    1  A    between atoms: C_1  and  C_2
REMARK    2  A    between atoms: C_3  and  C_21
REMARK    3  A    between atoms: C_4  and  N_11
REMARK    4  A    between atoms: C_6  and  C_7
REMARK    5  A    between atoms: C_7  and  O_9
REMARK    6  A    between atoms: O_9  and  C_10
REMARK    7  A    between atoms: C_12  and  C_14
REMARK                            x       y       z     vdW  Elec       q    Type
REMARK                         _______ _______ _______ _____ _____    ______ ____
ROOT
ATOM      1  C   UNL     1      -1.317   2.144   0.020  0.00  0.00    +0.046 C 
ATOM      2  C   UNL     1      -0.017   1.381   0.010  0.00  0.00    -0.015 A 
ATOM      3  C   UNL     1       0.002  -0.004   0.002  0.00  0.00    +0.069 A 
ATOM      4  C   UNL     1       1.249  -0.639  -0.013  0.00  0.00    +0.085 A 
ATOM      5  S   UNL     1       2.360   0.691  -0.017  0.00  0.00    -0.066 S 
ATOM      6  C   UNL     1       1.188   2.034   0.002  0.00  0.00    +0.102 A 
ENDROOT
BRANCH   3   7
ATOM      7  C   UNL     1      -1.245  -0.780   0.010  0.00  0.00    +0.244 C 
ATOM      8  O   UNL     1      -1.772  -1.096  -1.040  0.00  0.00    -0.270 OA
ATOM      9  N   UNL     1      -1.805  -1.143   1.181  0.00  0.00    -0.325 N 
ATOM     10  H   UNL     1      -1.385  -0.891   2.018  0.00  0.00    +0.145 HD
ATOM     11  H   UNL     1      -2.629  -1.655   1.187  0.00  0.00    +0.145 HD
ENDBRANCH   3   7
BRANCH   4  12
ATOM     12  N   UNL     1       1.525  -1.991  -0.023  0.00  0.00    -0.275 N 
ATOM     13  C   UNL     1       2.804  -2.417  -0.038  0.00  0.00    +0.251 C 
ATOM     14  O   UNL     1       3.714  -1.610  -0.042  0.00  0.00    -0.270 OA
ATOM     15  H   UNL     1       0.800  -2.634  -0.020  0.00  0.00    +0.156 HD
BRANCH  13  16
ATOM     16  C   UNL     1       3.098  -3.857  -0.048  0.00  0.00    +0.064 A 
ATOM     17  C   UNL     1       2.045  -4.842  -0.038  0.00  0.00    +0.042 A 
ATOM     18  C   UNL     1       2.417  -6.137  -0.053  0.00  0.00    +0.080 A 
ATOM     19  S   UNL     1       4.195  -6.048  -0.070  0.00  0.00    -0.064 S 
ATOM     20  C   UNL     1       4.397  -4.328  -0.063  0.00  0.00    +0.091 A 
ATOM     21 CL   UNL     1       5.874  -3.416  -0.072  0.00  0.00    -0.075 Cl
ATOM     22 CL   UNL     1       1.407  -7.550  -0.051  0.00  0.00    -0.076 Cl
ENDBRANCH  13  16
ENDBRANCH   4  12
BRANCH   6  23
ATOM     23  C   UNL     1       1.447   3.473   0.007  0.00  0.00    +0.346 C 
ATOM     24  O   UNL     1       0.518   4.258   0.020  0.00  0.00    -0.244 OA
BRANCH  23  25
ATOM     25  O   UNL     1       2.716   3.930  -0.003  0.00  0.00    -0.464 OA
ATOM     26  C   UNL     1       2.896   5.347   0.003  0.00  0.00    +0.280 C 
ENDBRANCH  23  25
ENDBRANCH   6  23
TORSDOF 5
