REMARK  Name = ZINC03454659
REMARK  10 active torsions:
REMARK  status: ('A' for Active; 'I' for Inactive)
REMARK    1  A    between atoms: C_1  and  C_2
REMARK    2  A    between atoms: C_2  and  N_3
REMARK    3  A    between atoms: C_7  and  C_9
REMARK    4  A    between atoms: C_9  and  C_11
REMARK    5  A    between atoms: C_9  and  S_12
REMARK    6  A    between atoms: S_12  and  C_13
REMARK    7  A    between atoms: C_17  and  C_30
REMARK    8  A    between atoms: N_23  and  C_24
REMARK    9  A    between atoms: C_30  and  O_32
REMARK   10  A    between atoms: O_32  and  C_33
REMARK                            x       y       z     vdW  Elec       q    Type
REMARK                         _______ _______ _______ _____ _____    ______ ____
ROOT
ATOM      1  C   UNL     1       4.452  -6.035  -5.013  0.00  0.00    +0.177 A 
ATOM      2  N   UNL     1       4.618  -5.101  -5.917  0.00  0.00    -0.223 NA
ATOM      3  C   UNL     1       4.677  -5.395  -7.237  0.00  0.00    +0.080 A 
ATOM      4  C   UNL     1       4.855  -4.396  -8.199  0.00  0.00    +0.043 A 
ATOM      5  C   UNL     1       4.910  -4.745  -9.543  0.00  0.00    +0.061 A 
ATOM      6  C   UNL     1       4.790  -6.085  -9.935  0.00  0.00    +0.016 A 
ATOM      7  C   UNL     1       4.616  -7.069  -9.004  0.00  0.00    +0.016 A 
ATOM      8  C   UNL     1       4.558  -6.741  -7.650  0.00  0.00    +0.065 A 
ATOM      9  C   UNL     1       4.372  -7.770  -6.614  0.00  0.00    +0.267 A 
ATOM     10  O   UNL     1       4.264  -8.946  -6.907  0.00  0.00    -0.267 OA
ATOM     11  N   UNL     1       4.333  -7.361  -5.325  0.00  0.00    -0.255 N 
ENDROOT
BRANCH  11  12
ATOM     12  C   UNL     1       4.164  -8.303  -4.302  0.00  0.00    +0.052 A 
ATOM     13  C   UNL     1       5.272  -8.896  -3.712  0.00  0.00    +0.026 A 
ATOM     14  C   UNL     1       5.102  -9.824  -2.704  0.00  0.00    +0.002 A 
ATOM     15  C   UNL     1       3.829 -10.163  -2.281  0.00  0.00    +0.000 A 
ATOM     16  C   UNL     1       2.724  -9.575  -2.868  0.00  0.00    +0.002 A 
ATOM     17  C   UNL     1       2.888  -8.642  -3.873  0.00  0.00    +0.026 A 
ENDBRANCH  11  12
BRANCH   5  18
ATOM     18  C   UNL     1       5.098  -3.694 -10.567  0.00  0.00    +0.339 C 
ATOM     19  O   UNL     1       5.203  -2.532 -10.232  0.00  0.00    -0.245 OA
BRANCH  18  20
ATOM     20  O   UNL     1       5.153  -4.027 -11.871  0.00  0.00    -0.464 OA
ATOM     21  C   UNL     1       5.336  -2.961 -12.805  0.00  0.00    +0.280 C 
ENDBRANCH  18  20
ENDBRANCH   5  18
BRANCH   1  22
ATOM     22  S   UNL     1       4.386  -5.561  -3.317  0.00  0.00    -0.075 S 
BRANCH  22  23
ATOM     23  C   UNL     1       4.579  -3.758  -3.357  0.00  0.00    +0.137 C 
ATOM     24  C   UNL     1       3.376  -3.132  -4.066  0.00  0.00    +0.029 C 
BRANCH  23  29
ATOM     25  N   UNL     1       5.811  -0.330  -0.220  0.00  0.00    -0.299 N 
ATOM     26  C   UNL     1       5.275  -1.544  -0.454  0.00  0.00    +0.306 C 
ATOM     27  O   UNL     1       4.859  -2.213   0.471  0.00  0.00    -0.252 OA
ATOM     28  N   UNL     1       5.200  -2.016  -1.714  0.00  0.00    -0.239 N 
ATOM     29  C   UNL     1       4.663  -3.230  -1.948  0.00  0.00    +0.233 C 
ATOM     30  O   UNL     1       4.248  -3.898  -1.025  0.00  0.00    -0.274 OA
ATOM     31  H   UNL     1       6.144   0.204  -0.959  0.00  0.00    +0.150 HD
ATOM     32  H   UNL     1       5.532  -1.482  -2.453  0.00  0.00    +0.159 HD
BRANCH  25  34
ATOM     33  C   UNL     1       6.538   1.570   1.137  0.00  0.00    +0.024 C 
ATOM     34  C   UNL     1       5.893   0.183   1.150  0.00  0.00    +0.102 C 
ENDBRANCH  25  34
ENDBRANCH  23  29
ENDBRANCH  22  23
ENDBRANCH   1  22
TORSDOF 7
