REMARK  Name = ZINC08822649
REMARK  14 active torsions:
REMARK  status: ('A' for Active; 'I' for Inactive)
REMARK    1  A    between atoms: C_1  and  C_2
REMARK    2  A    between atoms: C_2  and  O_3
REMARK    3  A    between atoms: O_3  and  C_4
REMARK    4  A    between atoms: C_6  and  C_16
REMARK    5  A    between atoms: C_8  and  O_13
REMARK    6  A    between atoms: C_9  and  O_10
REMARK    7  A    between atoms: O_10  and  C_11
REMARK    8  A    between atoms: C_11  and  C_12
REMARK    9  A    between atoms: O_13  and  C_14
REMARK   10  A    between atoms: C_14  and  C_15
REMARK   11  A    between atoms: C_22  and  S_24
REMARK   12  A    between atoms: S_24  and  C_25
REMARK   13  A    between atoms: C_25  and  C_26
REMARK   14  A    between atoms: N_28  and  C_29
REMARK                            x       y       z     vdW  Elec       q    Type
REMARK                         _______ _______ _______ _____ _____    ______ ____
ROOT
ATOM      1  C   UNL     1      10.818   3.272   1.099  0.00  0.00    +0.250 C 
ATOM      2  O   UNL     1      10.108   4.017   0.452  0.00  0.00    -0.270 OA
ATOM      3  N   UNL     1      10.291   2.178   1.685  0.00  0.00    -0.259 N 
ATOM      4  C   UNL     1       8.934   1.903   1.549  0.00  0.00    +0.189 A 
ATOM      5  N   UNL     1       7.991   2.568   0.901  0.00  0.00    -0.125 NA
ATOM      6  N   UNL     1       6.793   2.176   0.877  0.00  0.00    -0.133 NA
ATOM      7  C   UNL     1       6.403   1.074   1.501  0.00  0.00    +0.160 A 
ATOM      8  S   UNL     1       7.963   0.551   2.209  0.00  0.00    -0.024 S 
ATOM      9  H   UNL     1      10.858   1.584   2.201  0.00  0.00    +0.157 HD
ENDROOT
BRANCH   1  12
ATOM     10  C   UNL     1      14.154   4.969   0.773  0.00  0.00    +0.166 A 
ATOM     11  C   UNL     1      12.806   4.697   0.636  0.00  0.00    +0.062 A 
ATOM     12  C   UNL     1      12.258   3.564   1.243  0.00  0.00    +0.044 A 
ATOM     13  C   UNL     1      13.074   2.712   1.991  0.00  0.00    +0.062 A 
ATOM     14  C   UNL     1      14.422   2.985   2.120  0.00  0.00    +0.166 A 
ATOM     15  C   UNL     1      14.966   4.115   1.514  0.00  0.00    +0.204 A 
BRANCH  10  16
ATOM     16  O   UNL     1      14.688   6.072   0.182  0.00  0.00    -0.488 OA
BRANCH  16  18
ATOM     17  C   UNL     1      14.573   8.086  -1.148  0.00  0.00    +0.048 C 
ATOM     18  C   UNL     1      13.797   6.904  -0.563  0.00  0.00    +0.226 C 
ENDBRANCH  16  18
ENDBRANCH  10  16
BRANCH  15  19
ATOM     19  O   UNL     1      16.291   4.384   1.647  0.00  0.00    -0.485 OA
BRANCH  19  20
ATOM     20  C   UNL     1      16.681   5.192   2.759  0.00  0.00    +0.226 C 
ATOM     21  C   UNL     1      18.199   5.386   2.741  0.00  0.00    +0.048 C 
ENDBRANCH  19  20
ENDBRANCH  15  19
BRANCH  14  22
ATOM     22  O   UNL     1      15.218   2.153   2.843  0.00  0.00    -0.488 OA
BRANCH  22  23
ATOM     23  C   UNL     1      14.595   1.012   3.437  0.00  0.00    +0.226 C 
ATOM     24  C   UNL     1      15.640   0.201   4.205  0.00  0.00    +0.048 C 
ENDBRANCH  22  23
ENDBRANCH  14  22
ENDBRANCH   1  12
BRANCH   7  25
ATOM     25  S   UNL     1       4.806   0.337   1.609  0.00  0.00    -0.088 S 
BRANCH  25  26
ATOM     26  C   UNL     1       3.745   1.447   0.644  0.00  0.00    +0.172 C 
BRANCH  26  27
ATOM     27  C   UNL     1       2.331   0.926   0.654  0.00  0.00    +0.224 C 
ATOM     28  O   UNL     1       2.066  -0.095   1.254  0.00  0.00    -0.275 OA
ATOM     29  N   UNL     1       1.362   1.593  -0.002  0.00  0.00    -0.312 N 
ATOM     30  H   UNL     1       1.574   2.409  -0.482  0.00  0.00    +0.149 HD
BRANCH  29  31
ATOM     31  C   UNL     1      -0.013   1.086   0.008  0.00  0.00    +0.073 C 
ATOM     32  C   UNL     1      -0.729   1.579   1.267  0.00  0.00    +0.022 C 
ATOM     33  C   UNL     1      -2.164   1.050   1.278  0.00  0.00    +0.002 C 
ATOM     34  C   UNL     1      -2.904   1.556   0.038  0.00  0.00    +0.000 C 
ATOM     35  C   UNL     1      -2.188   1.063  -1.221  0.00  0.00    +0.002 C 
ATOM     36  C   UNL     1      -0.753   1.593  -1.232  0.00  0.00    +0.022 C 
ENDBRANCH  29  31
ENDBRANCH  26  27
ENDBRANCH  25  26
ENDBRANCH   7  25
TORSDOF 11
