REMARK  Name = ZINC59368084
REMARK  10 active torsions:
REMARK  status: ('A' for Active; 'I' for Inactive)
REMARK    1  A    between atoms: C_1  and  C_2
REMARK    2  A    between atoms: C_2  and  C_3
REMARK    3  A    between atoms: C_4  and  C_31
REMARK    4  A    between atoms: C_5  and  C_30
REMARK    5  A    between atoms: C_8  and  C_9
REMARK    6  A    between atoms: N_11  and  C_12
REMARK    7  A    between atoms: N_11  and  C_13
REMARK    8  A    between atoms: C_13  and  C_14
REMARK    9  A    between atoms: C_27  and  C_29
REMARK   10  A    between atoms: C_31  and  C_33
REMARK                            x       y       z     vdW  Elec       q    Type
REMARK                         _______ _______ _______ _____ _____    ______ ____
ROOT
ATOM      1  C   UNL     1      -2.329  -0.619  -4.826  0.00  0.00    +0.204 C 
ENDROOT
BRANCH   1   2
ATOM      2  C   UNL     1      -1.707  -1.859  -5.415  0.00  0.00    +0.237 C 
ATOM      3  O   UNL     1      -1.571  -2.852  -4.731  0.00  0.00    -0.274 OA
ATOM      4  N   UNL     1      -1.302  -1.865  -6.700  0.00  0.00    -0.265 N 
ATOM      5  C   UNL     1      -1.449  -0.722  -7.499  0.00  0.00    +0.058 A 
ATOM      6  C   UNL     1      -2.700  -0.324  -7.939  0.00  0.00    +0.025 A 
ATOM      7  C   UNL     1      -2.822   0.793  -8.746  0.00  0.00    +0.002 A 
ATOM      8  C   UNL     1      -1.700   1.512  -9.116  0.00  0.00    +0.002 A 
ATOM      9  C   UNL     1      -0.448   1.125  -8.674  0.00  0.00    +0.025 A 
ATOM     10  C   UNL     1      -0.319   0.015  -7.856  0.00  0.00    +0.055 A 
ATOM     11  N   UNL     1       0.930  -0.363  -7.351  0.00  0.00    -0.284 N 
ATOM     12  C   UNL     1       1.340  -1.648  -7.425  0.00  0.00    +0.219 C 
ATOM     13  O   UNL     1       2.387  -1.978  -6.909  0.00  0.00    -0.275 OA
ATOM     14  C   UNL     1       0.504  -2.675  -8.143  0.00  0.00    +0.118 C 
ATOM     15  C   UNL     1      -0.696  -3.062  -7.285  0.00  0.00    +0.087 C 
ATOM     16  C   UNL     1      -1.728  -3.779  -8.158  0.00  0.00    +0.029 C 
ATOM     17  H   UNL     1       1.507   0.303  -6.945  0.00  0.00    +0.155 HD
ENDBRANCH   1   2
BRANCH   1  20
ATOM     18  C   UNL     1      -1.787  -0.609  -2.450  0.00  0.00    +0.263 C 
ATOM     19  O   UNL     1      -0.657  -0.258  -2.737  0.00  0.00    -0.268 OA
ATOM     20  N   UNL     1      -2.680  -0.867  -3.425  0.00  0.00    -0.291 N 
ATOM     21  C   UNL     1      -4.004  -1.396  -3.084  0.00  0.00    +0.133 C 
BRANCH  18  27
ATOM     22  C   UNL     1      -2.297  -1.925  -0.362  0.00  0.00    -0.007 A 
ATOM     23  C   UNL     1      -2.682  -1.600   0.961  0.00  0.00    +0.041 A 
ATOM     24  C   UNL     1      -2.785  -0.219   1.024  0.00  0.00    +0.024 A 
ATOM     25  N   UNL     1      -2.483   0.283  -0.182  0.00  0.00    -0.354 N 
ATOM     26  H   UNL     1      -2.477   1.225  -0.413  0.00  0.00    +0.166 HD
ATOM     27  C   UNL     1      -2.175  -0.750  -1.041  0.00  0.00    +0.106 A 
ATOM     28  C   UNL     1      -3.171   0.582   2.241  0.00  0.00    +0.064 C 
BRANCH  23  29
ATOM     29  C   UNL     1      -2.927  -2.544   2.055  0.00  0.00    +0.162 C 
ATOM     30  O   UNL     1      -2.002  -2.939   2.733  0.00  0.00    -0.292 OA
ATOM     31  C   UNL     1      -4.327  -3.024   2.338  0.00  0.00    +0.091 C 
ENDBRANCH  23  29
BRANCH  22  33
ATOM     32  C   UNL     1      -0.592  -3.692  -0.709  0.00  0.00    +0.009 C 
ATOM     33  C   UNL     1      -2.059  -3.307  -0.912  0.00  0.00    +0.035 C 
ENDBRANCH  22  33
ENDBRANCH  18  27
ENDBRANCH   1  20
TORSDOF 5
