REMARK  Name = ZINC09726206
REMARK  9 active torsions:
REMARK  status: ('A' for Active; 'I' for Inactive)
REMARK    1  A    between atoms: C_3  and  C_6
REMARK    2  A    between atoms: C_6  and  N_56
REMARK    3  A    between atoms: C_7  and  C_8
REMARK    4  A    between atoms: C_7  and  N_56
REMARK    5  A    between atoms: C_13  and  C_14
REMARK    6  A    between atoms: C_13  and  N_56
REMARK    7  A    between atoms: N_16  and  C_17
REMARK    8  A    between atoms: C_19  and  S_24
REMARK    9  A    between atoms: S_24  and  N_27
REMARK                            x       y       z     vdW  Elec       q    Type
REMARK                         _______ _______ _______ _____ _____    ______ ____
ROOT
ATOM      1  C   UNL     1       0.650   0.300  -1.973  0.00  0.00    +0.201 C 
ATOM      2  O   UNL     1       0.105   1.192  -1.357  0.00  0.00    -0.278 OA
ATOM      3  N   UNL     1      -0.072  -0.494  -2.788  0.00  0.00    -0.286 N 
ATOM      4  H   UNL     1       0.353  -1.242  -3.237  0.00  0.00    +0.155 HD
ENDROOT
BRANCH   3   5
ATOM      5  C   UNL     1      -1.434  -0.241  -2.986  0.00  0.00    +0.054 A 
ATOM      6  C   UNL     1      -1.959   1.011  -2.692  0.00  0.00    +0.053 A 
ATOM      7  C   UNL     1      -3.302   1.259  -2.893  0.00  0.00    +0.107 A 
ATOM      8  C   UNL     1      -4.128   0.260  -3.376  0.00  0.00    +0.030 A 
ATOM      9  C   UNL     1      -3.610  -0.989  -3.665  0.00  0.00    +0.024 A 
ATOM     10  C   UNL     1      -2.265  -1.243  -3.471  0.00  0.00    +0.062 A 
ATOM     11 CL   UNL     1      -1.616  -2.811  -3.834  0.00  0.00    -0.082 Cl
BRANCH   7  12
ATOM     12  S   UNL     1      -3.968   2.849  -2.526  0.00  0.00    +0.061 S 
ATOM     13  O   UNL     1      -2.915   3.784  -2.718  0.00  0.00    -0.153 OA
ATOM     14  O   UNL     1      -5.205   2.942  -3.219  0.00  0.00    -0.153 OA
BRANCH  12  15
ATOM     15  N   UNL     1      -4.328   2.868  -0.910  0.00  0.00    -0.177 NA
ATOM     16  C   UNL     1      -5.577   2.382  -0.305  0.00  0.00    +0.109 C 
ATOM     17  C   UNL     1      -5.473   2.623   1.216  0.00  0.00    +0.018 C 
ATOM     18  C   UNL     1      -4.415   3.753   1.315  0.00  0.00    +0.018 C 
ATOM     19  C   UNL     1      -3.453   3.381   0.160  0.00  0.00    +0.109 C 
ENDBRANCH  12  15
ENDBRANCH   7  12
ENDBRANCH   3   5
BRANCH   1  20
ATOM     20  C   UNL     1       2.134   0.081  -1.827  0.00  0.00    +0.020 C 
BRANCH  20  21
ATOM     21  N   UNL     1       2.558  -0.938  -2.810  0.00  0.00    +0.393 N 
ATOM     22  H   UNL     1       1.793  -1.609  -2.946  0.00  0.00    -0.080 HD
BRANCH  21  23
ATOM     23  C   UNL     1       3.746  -1.661  -2.307  0.00  0.00    -0.002 C 
BRANCH  23  26
ATOM     24  C   UNL     1       4.793  -4.119  -4.845  0.00  0.00    +0.041 A 
ATOM     25  C   UNL     1       4.824  -2.817  -4.295  0.00  0.00    +0.042 A 
ATOM     26  C   UNL     1       4.022  -2.832  -3.215  0.00  0.00    +0.089 A 
ATOM     27  O   UNL     1       3.515  -4.068  -3.079  0.00  0.00    -0.470 OA
ATOM     28  C   UNL     1       3.975  -4.851  -4.068  0.00  0.00    +0.195 A 
ENDBRANCH  23  26
ENDBRANCH  21  23
BRANCH  21  29
ATOM     29  C   UNL     1       2.869  -0.295  -4.104  0.00  0.00    -0.034 C 
BRANCH  29  30
ATOM     30  C   UNL     1       1.585   0.195  -4.722  0.00  0.00    -0.027 A 
ATOM     31  C   UNL     1       0.980   1.401  -4.591  0.00  0.00    +0.009 A 
ATOM     32  C   UNL     1      -0.211   1.629  -5.256  0.00  0.00    +0.008 A 
ATOM     33  C   UNL     1      -0.732   0.645  -6.028  0.00  0.00    +0.045 A 
ATOM     34  S   UNL     1       0.466  -0.662  -5.819  0.00  0.00    -0.103 S 
ENDBRANCH  29  30
ENDBRANCH  21  29
ENDBRANCH  20  21
ENDBRANCH   1  20
TORSDOF 9
