REMARK  Name = ZINC35840413
REMARK  13 active torsions:
REMARK  status: ('A' for Active; 'I' for Inactive)
REMARK    1  A    between atoms: C_1  and  C_2
REMARK    2  A    between atoms: C_2  and  N_3
REMARK    3  A    between atoms: N_3  and  C_4
REMARK    4  A    between atoms: C_10  and  C_12
REMARK    5  A    between atoms: C_15  and  C_17
REMARK    6  A    between atoms: C_17  and  N_18
REMARK    7  A    between atoms: N_21  and  C_24
REMARK    8  A    between atoms: C_24  and  C_25
REMARK    9  A    between atoms: C_25  and  C_27
REMARK   10  A    between atoms: C_25  and  O_35
REMARK   11  A    between atoms: C_27  and  O_28
REMARK   12  A    between atoms: O_28  and  C_29
REMARK   13  A    between atoms: C_29  and  C_30
REMARK                            x       y       z     vdW  Elec       q    Type
REMARK                         _______ _______ _______ _____ _____    ______ ____
ROOT
ATOM      1  N   UNL     1       3.408   2.158  -3.867  0.00  0.00    +0.387 N 
ATOM      2  C   UNL     1       4.742   2.252  -3.261  0.00  0.00    -0.063 C 
ATOM      3  C   UNL     1       5.119   3.724  -3.080  0.00  0.00    +0.066 C 
ATOM      4  N   UNL     1       5.108   4.394  -4.388  0.00  0.00    -0.303 NA
ATOM      5  C   UNL     1       3.785   4.287  -5.019  0.00  0.00    +0.066 C 
ATOM      6  C   UNL     1       3.420   2.810  -5.184  0.00  0.00    -0.063 C 
ATOM      7  H   UNL     1       2.735   2.617  -3.271  0.00  0.00    -0.081 HD
ENDROOT
BRANCH   1   8
ATOM      8  C   UNL     1       3.040   0.745  -4.024  0.00  0.00    +0.019 C 
BRANCH   8  12
ATOM      9  C   UNL     1       2.085  -0.597  -0.798  0.00  0.00    +0.164 A 
ATOM     10  C   UNL     1       3.402  -0.939  -0.825  0.00  0.00    +0.230 A 
ATOM     11  O   UNL     1       3.897  -0.495  -1.991  0.00  0.00    -0.449 OA
ATOM     12  C   UNL     1       2.907   0.106  -2.666  0.00  0.00    +0.179 A 
ATOM     13  N   UNL     1       1.815   0.048  -1.965  0.00  0.00    -0.210 NA
BRANCH   9  15
ATOM     14  N   UNL     1      -0.176  -0.584   0.131  0.00  0.00    -0.293 N 
ATOM     15  C   UNL     1       1.129  -0.879   0.289  0.00  0.00    +0.268 C 
ATOM     16  O   UNL     1       1.519  -1.377   1.328  0.00  0.00    -0.268 OA
BRANCH  14  17
ATOM     17  C   UNL     1      -1.107  -0.759   1.249  0.00  0.00    +0.076 C 
ATOM     18  C   UNL     1      -0.668   0.121   2.421  0.00  0.00    +0.022 C 
ATOM     19  C   UNL     1      -1.641  -0.061   3.588  0.00  0.00    +0.002 C 
ATOM     20  C   UNL     1      -1.642  -1.528   4.025  0.00  0.00    +0.000 C 
ATOM     21  C   UNL     1      -2.081  -2.409   2.853  0.00  0.00    +0.002 C 
ATOM     22  C   UNL     1      -1.109  -2.226   1.686  0.00  0.00    +0.022 C 
ENDBRANCH  14  17
BRANCH  14  24
ATOM     23  C   UNL     1      -0.485   1.429  -1.223  0.00  0.00    +0.024 C 
ATOM     24  C   UNL     1      -0.665  -0.089  -1.158  0.00  0.00    +0.105 C 
ENDBRANCH  14  24
ENDBRANCH   9  15
ENDBRANCH   8  12
ENDBRANCH   1   8
BRANCH   4  25
ATOM     25  C   UNL     1       5.520   5.798  -4.264  0.00  0.00    +0.117 C 
BRANCH  25  26
ATOM     26  C   UNL     1       7.037   5.870  -4.075  0.00  0.00    +0.154 C 
BRANCH  26  27
ATOM     27  O   UNL     1       7.687   5.407  -5.261  0.00  0.00    -0.388 OA
ATOM     28  H   UNL     1       7.473   5.919  -6.053  0.00  0.00    +0.210 HD
ENDBRANCH  26  27
BRANCH  26  29
ATOM     29  C   UNL     1       7.449   7.318  -3.801  0.00  0.00    +0.193 C 
BRANCH  29  30
ATOM     30  O   UNL     1       8.847   7.369  -3.510  0.00  0.00    -0.370 OA
BRANCH  30  31
ATOM     31  C   UNL     1       9.337   8.683  -3.238  0.00  0.00    +0.234 C 
BRANCH  31  32
ATOM     32  C   UNL     1      10.814   8.618  -2.946  0.00  0.00    +0.130 A 
ATOM     33  C   UNL     1      11.800   8.729  -3.854  0.00  0.00    +0.047 A 
ATOM     34  C   UNL     1      13.020   8.611  -3.149  0.00  0.00    +0.041 A 
ATOM     35  C   UNL     1      12.706   8.435  -1.853  0.00  0.00    +0.195 A 
ATOM     36  O   UNL     1      11.368   8.446  -1.735  0.00  0.00    -0.465 OA
ENDBRANCH  31  32
ENDBRANCH  30  31
ENDBRANCH  29  30
ENDBRANCH  26  29
ENDBRANCH  25  26
ENDBRANCH   4  25
TORSDOF 12
