REMARK  Name = ZINC49601784
REMARK  19 active torsions:
REMARK  status: ('A' for Active; 'I' for Inactive)
REMARK    1  A    between atoms: C_1  and  C_2
REMARK    2  A    between atoms: C_7  and  C_43
REMARK    3  A    between atoms: C_7  and  C_44
REMARK    4  A    between atoms: C_8  and  C_10
REMARK    5  A    between atoms: C_10  and  C_11
REMARK    6  A    between atoms: C_11  and  C_12
REMARK    7  A    between atoms: C_12  and  C_14
REMARK    8  A    between atoms: C_12  and  O_15
REMARK    9  A    between atoms: O_15  and  C_16
REMARK   10  A    between atoms: C_18  and  O_42
REMARK   11  A    between atoms: C_20  and  O_41
REMARK   12  A    between atoms: C_22  and  O_40
REMARK   13  A    between atoms: C_24  and  C_27
REMARK   14  A    between atoms: C_27  and  O_28
REMARK   15  A    between atoms: O_28  and  C_29
REMARK   16  A    between atoms: C_29  and  C_31
REMARK   17  A    between atoms: C_33  and  O_39
REMARK   18  A    between atoms: C_34  and  O_38
REMARK   19  A    between atoms: C_35  and  O_37
REMARK                            x       y       z     vdW  Elec       q    Type
REMARK                         _______ _______ _______ _____ _____    ______ ____
ROOT
ATOM      1  C   UNL     1      -2.446   3.215   3.212  0.00  0.00    +0.282 C 
ATOM      2  C   UNL     1      -2.675   3.257   4.725  0.00  0.00    +0.201 C 
ATOM      3  C   UNL     1      -4.096   3.757   5.004  0.00  0.00    +0.179 C 
ATOM      4  C   UNL     1      -5.097   2.844   4.290  0.00  0.00    +0.178 C 
ATOM      5  C   UNL     1      -4.774   2.818   2.793  0.00  0.00    +0.190 C 
ATOM      6  O   UNL     1      -3.429   2.374   2.605  0.00  0.00    -0.339 OA
ENDROOT
BRANCH   4   7
ATOM      7  O   UNL     1      -5.002   1.522   4.823  0.00  0.00    -0.386 OA
ATOM      8  H   UNL     1      -5.190   1.465   5.770  0.00  0.00    +0.210 HD
ENDBRANCH   4   7
BRANCH   3   9
ATOM      9  O   UNL     1      -4.343   3.732   6.412  0.00  0.00    -0.386 OA
ATOM     10  H   UNL     1      -3.740   4.285   6.927  0.00  0.00    +0.210 HD
ENDBRANCH   3   9
BRANCH   2  11
ATOM     11  O   UNL     1      -2.514   1.945   5.269  0.00  0.00    -0.384 OA
ATOM     12  H   UNL     1      -1.637   1.564   5.124  0.00  0.00    +0.210 HD
ENDBRANCH   2  11
BRANCH   1  13
ATOM     13  O   UNL     1      -1.142   2.696   2.941  0.00  0.00    -0.346 OA
BRANCH  13  14
ATOM     14  C   UNL     1      -0.738   2.822   1.577  0.00  0.00    +0.118 C 
ATOM     15  C   UNL     1      -0.019   4.158   1.379  0.00  0.00    +0.038 C 
BRANCH  14  16
ATOM     16  C   UNL     1       0.209   1.675   1.217  0.00  0.00    +0.032 C 
BRANCH  16  17
ATOM     17  C   UNL     1      -0.545   0.347   1.294  0.00  0.00    +0.011 C 
BRANCH  17  25
ATOM     18  C   UNL     1      -1.805  -1.786  -0.142  0.00  0.00    +0.039 C 
ATOM     19  C   UNL     1      -0.464  -1.994   0.513  0.00  0.00    -0.066 C 
ATOM     20  C   UNL     1      -0.075  -3.235   0.777  0.00  0.00    +0.045 C 
ATOM     21  C   UNL     1       1.216  -3.492   1.422  0.00  0.00    +0.157 C 
ATOM     22  O   UNL     1       1.494  -4.592   1.853  0.00  0.00    -0.293 OA
ATOM     23  C   UNL     1       2.192  -2.338   1.532  0.00  0.00    +0.086 C 
ATOM     24  C   UNL     1       1.385  -1.095   1.932  0.00  0.00    -0.021 C 
ATOM     25  C   UNL     1       0.370  -0.788   0.829  0.00  0.00    +0.021 C 
ATOM     26  C   UNL     1       2.330   0.096   2.103  0.00  0.00    +0.012 C 
ATOM     27  C   UNL     1       0.652  -1.362   3.249  0.00  0.00    +0.012 C 
ENDBRANCH  17  25
ENDBRANCH  16  17
ENDBRANCH  14  16
ENDBRANCH  13  14
ENDBRANCH   1  13
BRANCH   5  28
ATOM     28  C   UNL     1      -5.732   1.862   2.081  0.00  0.00    +0.266 C 
BRANCH  28  29
ATOM     29  O   UNL     1      -5.508   1.925   0.671  0.00  0.00    -0.458 OA
BRANCH  29  30
ATOM     30  C   UNL     1      -6.277   1.138  -0.106  0.00  0.00    +0.340 C 
ATOM     31  O   UNL     1      -7.114   0.417   0.399  0.00  0.00    -0.245 OA
BRANCH  30  32
ATOM     32  C   UNL     1      -6.101   1.151  -1.571  0.00  0.00    +0.066 A 
ATOM     33  C   UNL     1      -5.135   1.975  -2.153  0.00  0.00    +0.064 A 
ATOM     34  C   UNL     1      -4.972   1.986  -3.525  0.00  0.00    +0.163 A 
ATOM     35  C   UNL     1      -5.771   1.176  -4.328  0.00  0.00    +0.201 A 
ATOM     36  C   UNL     1      -6.736   0.353  -3.751  0.00  0.00    +0.163 A 
ATOM     37  C   UNL     1      -6.898   0.334  -2.378  0.00  0.00    +0.064 A 
BRANCH  36  38
ATOM     38  O   UNL     1      -7.515  -0.436  -4.538  0.00  0.00    -0.503 OA
ATOM     39  H   UNL     1      -7.146  -1.315  -4.700  0.00  0.00    +0.292 HD
ENDBRANCH  36  38
BRANCH  35  40
ATOM     40  O   UNL     1      -5.610   1.188  -5.677  0.00  0.00    -0.501 OA
ATOM     41  H   UNL     1      -4.969   0.541  -6.003  0.00  0.00    +0.292 HD
ENDBRANCH  35  40
BRANCH  34  42
ATOM     42  O   UNL     1      -4.032   2.788  -4.092  0.00  0.00    -0.503 OA
ATOM     43  H   UNL     1      -3.166   2.369  -4.191  0.00  0.00    +0.292 HD
ENDBRANCH  34  42
ENDBRANCH  30  32
ENDBRANCH  29  30
ENDBRANCH  28  29
ENDBRANCH   5  28
TORSDOF 15
