REMARK  Name = ZINC65001909
REMARK  5 active torsions:
REMARK  status: ('A' for Active; 'I' for Inactive)
REMARK    1  A    between atoms: C_1  and  C_2
REMARK    2  A    between atoms: C_15  and  C_17
REMARK    3  A    between atoms: C_19  and  O_25
REMARK    4  A    between atoms: C_20  and  O_24
REMARK    5  A    between atoms: O_25  and  C_26
REMARK                            x       y       z     vdW  Elec       q    Type
REMARK                         _______ _______ _______ _____ _____    ______ ____
ROOT
ATOM      1  C   UNL     1      -0.019   1.526   0.010  0.00  0.00    +0.008 C 
ATOM      2  C   UNL     1       0.002  -0.004   0.002  0.00  0.00    -0.009 C 
ATOM      3  C   UNL     1      -1.433  -0.537   0.021  0.00  0.00    +0.008 C 
ATOM      4  C   UNL     1      -1.431  -2.044  -0.237  0.00  0.00    +0.037 C 
ATOM      5  C   UNL     1      -0.472  -2.712   0.745  0.00  0.00    -0.023 A 
ATOM      6  C   UNL     1       0.476  -1.986   1.383  0.00  0.00    -0.004 A 
ATOM      7  S   UNL     1       1.344  -3.148   2.405  0.00  0.00    -0.073 S 
ATOM      8  C   UNL     1       0.438  -4.602   1.978  0.00  0.00    +0.116 A 
ATOM      9  C   UNL     1      -0.517  -4.132   1.046  0.00  0.00    +0.075 A 
ATOM     10  C   UNL     1      -1.428  -5.096   0.498  0.00  0.00    +0.260 A 
ATOM     11  O   UNL     1      -2.286  -4.788  -0.311  0.00  0.00    -0.267 OA
ATOM     12  N   UNL     1      -1.275  -6.368   0.935  0.00  0.00    -0.306 N 
ATOM     13  H   UNL     1      -1.870  -7.051   0.590  0.00  0.00    +0.170 HD
ATOM     14  C   UNL     1      -0.320  -6.731   1.840  0.00  0.00    +0.142 A 
ATOM     15  N   UNL     1       0.535  -5.866   2.366  0.00  0.00    -0.222 NA
ATOM     16  C   UNL     1       0.737  -0.516   1.249  0.00  0.00    +0.046 C 
ENDROOT
BRANCH  14  17
ATOM     17  C   UNL     1      -0.238  -8.146   2.252  0.00  0.00    +0.022 A 
ATOM     18  C   UNL     1       0.725  -8.551   3.181  0.00  0.00    +0.061 A 
ATOM     19  C   UNL     1       0.798  -9.876   3.563  0.00  0.00    +0.163 A 
ATOM     20  C   UNL     1      -0.087 -10.807   3.022  0.00  0.00    +0.172 A 
ATOM     21  C   UNL     1      -1.043 -10.407   2.099  0.00  0.00    +0.059 A 
ATOM     22  C   UNL     1      -1.125  -9.084   1.718  0.00  0.00    +0.029 A 
ATOM     23  I   UNL     1      -2.369 -11.812   1.290  0.00  0.00    -0.040 I 
BRANCH  20  24
ATOM     24  O   UNL     1      -0.013 -12.111   3.400  0.00  0.00    -0.503 OA
ATOM     25  H   UNL     1      -0.560 -12.330   4.166  0.00  0.00    +0.292 HD
ENDBRANCH  20  24
BRANCH  19  26
ATOM     26  O   UNL     1       1.734 -10.273   4.467  0.00  0.00    -0.491 OA
ATOM     27  C   UNL     1       2.608  -9.265   4.979  0.00  0.00    +0.277 C 
ENDBRANCH  19  26
ENDBRANCH  14  17
TORSDOF 3
