REMARK  Name = ZINC66200102
REMARK  12 active torsions:
REMARK  status: ('A' for Active; 'I' for Inactive)
REMARK    1  A    between atoms: C_1  and  C_2
REMARK    2  A    between atoms: C_2  and  C_4
REMARK    3  A    between atoms: C_2  and  C_14
REMARK    4  A    between atoms: C_7  and  C_10
REMARK    5  A    between atoms: C_10  and  C_11
REMARK    6  A    between atoms: C_11  and  C_12
REMARK    7  A    between atoms: C_11  and  C_13
REMARK    8  A    between atoms: N_16  and  C_17
REMARK    9  A    between atoms: C_17  and  N_19
REMARK   10  A    between atoms: N_19  and  C_20
REMARK   11  A    between atoms: C_24  and  N_26
REMARK   12  A    between atoms: C_27  and  C_29
REMARK                            x       y       z     vdW  Elec       q    Type
REMARK                         _______ _______ _______ _____ _____    ______ ____
ROOT
ATOM      1  C   UNL     1       0.764  -0.821   3.560  0.00  0.00    +0.141 C 
ATOM      2  S   UNL     1       1.933  -2.057   3.375  0.00  0.00    -0.018 S 
ENDROOT
BRANCH   1   5
ATOM      3  C   UNL     1       0.342  -0.875   1.264  0.00  0.00    +0.226 C 
ATOM      4  O   UNL     1       1.170  -1.751   1.133  0.00  0.00    -0.275 OA
ATOM      5  N   UNL     1       0.092  -0.361   2.485  0.00  0.00    -0.267 N 
ATOM      6  H   UNL     1      -0.570   0.339   2.590  0.00  0.00    +0.157 HD
BRANCH   3   8
ATOM      7  C   UNL     1      -0.140   1.135  -0.105  0.00  0.00    +0.022 C 
ATOM      8  C   UNL     1      -0.408  -0.362   0.063  0.00  0.00    +0.102 C 
BRANCH   8   9
ATOM      9  C   UNL     1       0.054  -1.096  -1.170  0.00  0.00    -0.036 A 
ATOM     10  C   UNL     1       1.382  -1.040  -1.550  0.00  0.00    +0.004 A 
ATOM     11  C   UNL     1       1.806  -1.714  -2.680  0.00  0.00    +0.004 A 
ATOM     12  C   UNL     1       0.902  -2.443  -3.430  0.00  0.00    -0.047 A 
ATOM     13  C   UNL     1      -0.426  -2.500  -3.049  0.00  0.00    +0.004 A 
ATOM     14  C   UNL     1      -0.849  -1.830  -1.916  0.00  0.00    +0.004 A 
BRANCH  12  15
ATOM     15  C   UNL     1       1.364  -3.176  -4.663  0.00  0.00    +0.038 C 
BRANCH  15  16
ATOM     16  C   UNL     1       1.800  -4.592  -4.281  0.00  0.00    -0.013 C 
ATOM     17  C   UNL     1       2.151  -5.377  -5.546  0.00  0.00    +0.007 C 
ATOM     18  C   UNL     1       3.027  -4.519  -3.369  0.00  0.00    +0.007 C 
ENDBRANCH  15  16
ENDBRANCH  12  15
ENDBRANCH   8   9
ENDBRANCH   3   8
ENDBRANCH   1   5
BRANCH   1  19
ATOM     19  N   UNL     1       0.514  -0.307   4.780  0.00  0.00    -0.297 N 
ATOM     20  H   UNL     1      -0.087   0.449   4.875  0.00  0.00    +0.154 HD
BRANCH  19  21
ATOM     21  C   UNL     1       1.122  -0.862   5.911  0.00  0.00    +0.034 A 
ATOM     22  C   UNL     1       1.608  -0.035   6.916  0.00  0.00    +0.023 A 
ATOM     23  C   UNL     1       2.209  -0.583   8.033  0.00  0.00    +0.004 A 
ATOM     24  C   UNL     1       2.329  -1.954   8.154  0.00  0.00    +0.023 A 
ATOM     25  C   UNL     1       1.845  -2.786   7.153  0.00  0.00    +0.036 A 
ATOM     26  C   UNL     1       1.235  -2.239   6.032  0.00  0.00    +0.046 A 
BRANCH  25  27
ATOM     27  N   UNL     1       1.968  -4.174   7.276  0.00  0.00    -0.279 N 
ATOM     28  C   UNL     1       1.870  -4.754   8.489  0.00  0.00    +0.284 C 
ATOM     29  O   UNL     1       1.756  -4.065   9.485  0.00  0.00    -0.266 OA
ATOM     30  H   UNL     1       2.122  -4.719   6.489  0.00  0.00    +0.155 HD
BRANCH  28  31
ATOM     31  C   UNL     1       1.903  -6.215   8.607  0.00  0.00    +0.189 A 
ATOM     32  C   UNL     1       1.809  -6.928   9.768  0.00  0.00    +0.054 A 
ATOM     33  C   UNL     1       1.885  -8.284   9.416  0.00  0.00    +0.042 A 
ATOM     34  C   UNL     1       2.021  -8.339   8.072  0.00  0.00    +0.196 A 
ATOM     35  O   UNL     1       2.025  -7.090   7.588  0.00  0.00    -0.458 OA
ENDBRANCH  28  31
ENDBRANCH  25  27
ENDBRANCH  19  21
ENDBRANCH   1  19
TORSDOF 9
