REMARK  Name = ZINC39630744
REMARK  11 active torsions:
REMARK  status: ('A' for Active; 'I' for Inactive)
REMARK    1  A    between atoms: C_1  and  C_2
REMARK    2  A    between atoms: C_2  and  C_3
REMARK    3  A    between atoms: C_2  and  C_4
REMARK    4  A    between atoms: C_2  and  C_29
REMARK    5  A    between atoms: C_4  and  N_5
REMARK    6  A    between atoms: C_6  and  C_8
REMARK    7  A    between atoms: C_19  and  C_21
REMARK    8  A    between atoms: C_21  and  C_22
REMARK    9  A    between atoms: C_29  and  N_30
REMARK   10  A    between atoms: N_30  and  C_31
REMARK   11  A    between atoms: N_30  and  C_32
REMARK                            x       y       z     vdW  Elec       q    Type
REMARK                         _______ _______ _______ _____ _____    ______ ____
ROOT
ATOM      1  C   UNL     1      -1.944  -0.058   3.901  0.00  0.00    +0.100 C 
ATOM      2  C   UNL     1      -2.072   1.476   4.040  0.00  0.00    +0.121 C 
ATOM      3  N   UNL     1      -3.522   1.715   4.233  0.00  0.00    -0.300 N 
ATOM      4  C   UNL     1      -3.963   0.608   5.116  0.00  0.00    +0.115 C 
ATOM      5  C   UNL     1      -3.186  -0.623   4.612  0.00  0.00    -0.004 C 
ATOM      6  C   UNL     1      -2.767  -1.502   5.787  0.00  0.00    -0.010 C 
ATOM      7  C   UNL     1      -4.016  -2.099   6.441  0.00  0.00    -0.082 C 
ATOM      8  N   UNL     1      -4.758  -2.891   5.453  0.00  0.00    +0.379 N 
ATOM      9  C   UNL     1      -5.236  -2.021   4.372  0.00  0.00    -0.082 C 
ATOM     10  C   UNL     1      -4.039  -1.420   3.630  0.00  0.00    -0.010 C 
ATOM     11  C   UNL     1      -4.270   2.713   3.723  0.00  0.00    +0.220 C 
ATOM     12  O   UNL     1      -5.454   2.773   3.975  0.00  0.00    -0.275 OA
ATOM     13  H   UNL     1      -4.151  -3.600   5.068  0.00  0.00    -0.086 HD
ATOM     14  H   UNL     1      -5.546  -3.333   5.901  0.00  0.00    -0.086 HD
ENDROOT
BRANCH   1  16
ATOM     15  N   UNL     1      -1.429  -1.642   2.073  0.00  0.00    -0.315 N 
ATOM     16  C   UNL     1      -1.945  -0.455   2.447  0.00  0.00    +0.218 C 
ATOM     17  O   UNL     1      -2.411   0.294   1.615  0.00  0.00    -0.275 OA
ATOM     18  H   UNL     1      -1.056  -2.241   2.739  0.00  0.00    +0.149 HD
BRANCH  15  19
ATOM     19  C   UNL     1      -1.430  -2.028   0.659  0.00  0.00    +0.108 C 
BRANCH  19  21
ATOM     20  C   UNL     1       0.648  -3.366   1.023  0.00  0.00    +0.010 C 
ATOM     21  C   UNL     1      -0.791  -3.410   0.508  0.00  0.00    -0.034 C 
ATOM     22  C   UNL     1      -1.592  -4.433   1.316  0.00  0.00    +0.010 C 
BRANCH  21  23
ATOM     23  C   UNL     1      -0.792  -3.813  -0.968  0.00  0.00    -0.072 C 
BRANCH  23  24
ATOM     24  N   UNL     1      -0.260  -5.175  -1.104  0.00  0.00    +0.376 N 
ATOM     25  C   UNL     1      -1.349  -6.146  -0.933  0.00  0.00    -0.097 C 
ATOM     26  C   UNL     1       0.336  -5.337  -2.438  0.00  0.00    -0.097 C 
ATOM     27  H   UNL     1       0.445  -5.332  -0.400  0.00  0.00    -0.083 HD
ENDBRANCH  23  24
ENDBRANCH  21  23
ENDBRANCH  19  21
ENDBRANCH  15  19
ENDBRANCH   1  16
BRANCH  11  28
ATOM     28  C   UNL     1      -3.634   3.754   2.838  0.00  0.00    +0.131 C 
BRANCH  28  29
ATOM     29  C   UNL     1      -4.678   4.749   2.403  0.00  0.00    -0.039 A 
ATOM     30  C   UNL     1      -5.401   4.531   1.244  0.00  0.00    +0.005 A 
ATOM     31  C   UNL     1      -6.359   5.444   0.845  0.00  0.00    +0.020 A 
ATOM     32  C   UNL     1      -6.595   6.575   1.605  0.00  0.00    +0.041 A 
ATOM     33  C   UNL     1      -5.872   6.793   2.764  0.00  0.00    +0.020 A 
ATOM     34  C   UNL     1      -4.918   5.877   3.165  0.00  0.00    +0.005 A 
ATOM     35 CL   UNL     1      -7.798   7.722   1.103  0.00  0.00    -0.084 Cl
ENDBRANCH  28  29
ENDBRANCH  11  28
TORSDOF 7
