REMARK  Name = ZINC39362580
REMARK  9 active torsions:
REMARK  status: ('A' for Active; 'I' for Inactive)
REMARK    1  A    between atoms: C_1  and  C_2
REMARK    2  A    between atoms: C_2  and  O_3
REMARK    3  A    between atoms: O_3  and  C_4
REMARK    4  A    between atoms: C_7  and  N_10
REMARK    5  A    between atoms: C_11  and  C_26
REMARK    6  A    between atoms: C_15  and  S_16
REMARK    7  A    between atoms: S_16  and  C_17
REMARK    8  A    between atoms: C_17  and  C_18
REMARK    9  A    between atoms: C_26  and  C_27
REMARK                            x       y       z     vdW  Elec       q    Type
REMARK                         _______ _______ _______ _____ _____    ______ ____
ROOT
ATOM      1  N   UNL     1      -1.988  -5.989  -0.012  0.00  0.00    -0.258 N 
ATOM      2  C   UNL     1      -3.260  -6.725   0.088  0.00  0.00    +0.187 C 
ATOM      3  N   UNL     1      -2.855  -8.140   0.031  0.00  0.00    -0.246 N 
ATOM      4  N   UNL     1      -1.460  -8.142  -0.091  0.00  0.00    -0.162 NA
ATOM      5  C   UNL     1      -0.986  -6.942  -0.119  0.00  0.00    +0.180 C 
ATOM      6  H   UNL     1      -3.437  -8.915   0.070  0.00  0.00    +0.170 HD
ENDROOT
BRANCH   1  10
ATOM      7  C   UNL     1      -1.499  -1.849   0.007  0.00  0.00    +0.121 A 
ATOM      8  C   UNL     1      -1.211  -2.576  -1.139  0.00  0.00    +0.047 A 
ATOM      9  C   UNL     1      -1.373  -3.947  -1.146  0.00  0.00    +0.027 A 
ATOM     10  C   UNL     1      -1.824  -4.599  -0.005  0.00  0.00    +0.038 A 
ATOM     11  C   UNL     1      -2.112  -3.870   1.141  0.00  0.00    +0.027 A 
ATOM     12  C   UNL     1      -1.945  -2.499   1.148  0.00  0.00    +0.047 A 
BRANCH   7  13
ATOM     13  O   UNL     1      -1.340  -0.498   0.013  0.00  0.00    -0.492 OA
BRANCH  13  15
ATOM     14  C   UNL     1      -0.761   1.618  -0.999  0.00  0.00    +0.048 C 
ATOM     15  C   UNL     1      -0.878   0.106  -1.197  0.00  0.00    +0.225 C 
ENDBRANCH  13  15
ENDBRANCH   7  13
ENDBRANCH   1  10
BRANCH   5  16
ATOM     16  S   UNL     1       0.727  -6.560  -0.270  0.00  0.00    -0.079 S 
BRANCH  16  17
ATOM     17  C   UNL     1       1.531  -8.183  -0.370  0.00  0.00    +0.173 C 
BRANCH  17  18
ATOM     18  C   UNL     1       3.021  -7.999  -0.504  0.00  0.00    +0.229 C 
ATOM     19  O   UNL     1       3.494  -6.882  -0.530  0.00  0.00    -0.275 OA
ATOM     20  N   UNL     1       3.828  -9.074  -0.595  0.00  0.00    -0.264 N 
ATOM     21  C   UNL     1       5.202  -8.904  -0.719  0.00  0.00    +0.164 A 
ATOM     22  N   UNL     1       5.886  -7.781  -0.758  0.00  0.00    -0.233 NA
ATOM     23  C   UNL     1       7.200  -7.787  -0.880  0.00  0.00    +0.120 A 
ATOM     24  C   UNL     1       7.806  -8.997  -0.962  0.00  0.00    +0.068 A 
ATOM     25  S   UNL     1       6.395 -10.084  -0.847  0.00  0.00    -0.061 S 
ATOM     26  H   UNL     1       3.450  -9.967  -0.575  0.00  0.00    +0.157 HD
ENDBRANCH  17  18
ENDBRANCH  16  17
ENDBRANCH   5  16
BRANCH   2  27
ATOM     27  C   UNL     1      -4.175  -6.378  -1.088  0.00  0.00    +0.097 C 
BRANCH  27  28
ATOM     28  C   UNL     1      -5.512  -7.047  -0.899  0.00  0.00    +0.029 A 
ATOM     29  N   UNL     1      -5.696  -8.341  -1.303  0.00  0.00    -0.311 N 
ATOM     30  C   UNL     1      -6.886  -8.948  -1.138  0.00  0.00    +0.327 A 
ATOM     31  O   UNL     1      -7.027 -10.099  -1.504  0.00  0.00    -0.247 OA
ATOM     32  N   UNL     1      -7.921  -8.299  -0.573  0.00  0.00    -0.275 N 
ATOM     33  C   UNL     1      -7.780  -7.023  -0.162  0.00  0.00    +0.254 A 
ATOM     34  O   UNL     1      -8.716  -6.435   0.349  0.00  0.00    -0.268 OA
ATOM     35  C   UNL     1      -6.532  -6.374  -0.325  0.00  0.00    +0.091 A 
ATOM     36  H   UNL     1      -8.772  -8.752  -0.462  0.00  0.00    +0.173 HD
ATOM     37  H   UNL     1      -4.962  -8.826  -1.712  0.00  0.00    +0.170 HD
ENDBRANCH  27  28
ENDBRANCH   2  27
TORSDOF 8
