REMARK  Name = ZINC39232213
REMARK  7 active torsions:
REMARK  status: ('A' for Active; 'I' for Inactive)
REMARK    1  A    between atoms: C_1  and  C_2
REMARK    2  A    between atoms: C_4  and  C_9
REMARK    3  A    between atoms: C_5  and  C_8
REMARK    4  A    between atoms: C_9  and  C_10
REMARK    5  A    between atoms: C_11  and  C_25
REMARK    6  A    between atoms: N_13  and  C_18
REMARK    7  A    between atoms: C_21  and  C_24
REMARK                            x       y       z     vdW  Elec       q    Type
REMARK                         _______ _______ _______ _____ _____    ______ ____
ROOT
ATOM      1  C   UNL     1      -2.322   0.676  -2.000  0.00  0.00    +0.076 C 
ATOM      2  C   UNL     1      -0.920   1.079  -2.390  0.00  0.00    +0.147 C 
ATOM      3  N   UNL     1      -1.048   1.863  -3.624  0.00  0.00    -0.261 N 
ATOM      4  C   UNL     1      -2.354   1.927  -3.941  0.00  0.00    +0.289 C 
ATOM      5  O   UNL     1      -2.810   2.503  -4.908  0.00  0.00    -0.266 OA
ATOM      6  C   UNL     1      -3.152   1.188  -2.940  0.00  0.00    +0.249 C 
ATOM      7  O   UNL     1      -4.497   1.048  -2.959  0.00  0.00    -0.282 OA
ENDROOT
BRANCH   2   8
ATOM      8  C   UNL     1      -0.301   1.919  -1.303  0.00  0.00    -0.021 A 
ATOM      9  C   UNL     1      -0.718   3.224  -1.116  0.00  0.00    +0.007 A 
ATOM     10  C   UNL     1      -0.151   3.995  -0.119  0.00  0.00    +0.022 A 
ATOM     11  C   UNL     1       0.835   3.462   0.692  0.00  0.00    +0.059 A 
ATOM     12  C   UNL     1       1.253   2.156   0.504  0.00  0.00    +0.060 A 
ATOM     13  C   UNL     1       0.680   1.383  -0.490  0.00  0.00    +0.027 A 
ATOM     14 CL   UNL     1       2.491   1.485   1.520  0.00  0.00    -0.082 Cl
ATOM     15 CL   UNL     1       1.548   4.431   1.943  0.00  0.00    -0.082 Cl
ENDBRANCH   2   8
BRANCH   3  16
ATOM     16  C   UNL     1       0.052   2.469  -4.379  0.00  0.00    +0.208 C 
ATOM     17  C   UNL     1       0.054   3.977  -4.210  0.00  0.00    +0.057 C 
ATOM     18  C   UNL     1      -0.461   4.507  -5.298  0.00  0.00    +0.121 C 
ATOM     19  O   UNL     1      -0.832   3.567  -6.202  0.00  0.00    -0.409 OA
ATOM     20  N   UNL     1      -0.156   2.302  -5.841  0.00  0.00    -0.131 NA
ATOM     21  C   UNL     1      -0.622   5.989  -5.514  0.00  0.00    +0.088 C 
ATOM     22  H   UNL     1       0.725   2.211  -6.323  0.00  0.00    +0.170 HD
ENDBRANCH   3  16
BRANCH   1  23
ATOM     23  C   UNL     1      -2.710  -0.122  -0.832  0.00  0.00    +0.193 C 
ATOM     24  O   UNL     1      -2.705   0.380   0.277  0.00  0.00    -0.287 OA
BRANCH  23  27
ATOM     25  C   UNL     1      -1.631  -2.436  -2.799  0.00  0.00    +0.035 C 
ATOM     26  C   UNL     1      -3.065  -2.342  -2.276  0.00  0.00    +0.110 C 
ATOM     27  C   UNL     1      -3.105  -1.528  -1.001  0.00  0.00    +0.026 C 
ATOM     28  C   UNL     1      -3.579  -2.363  -0.050  0.00  0.00    -0.026 C 
ATOM     29  C   UNL     1      -3.845  -3.671  -0.649  0.00  0.00    +0.082 C 
ATOM     30  N   UNL     1      -3.560  -3.675  -1.909  0.00  0.00    -0.383 N 
ATOM     31  C   UNL     1      -3.797  -2.003   1.397  0.00  0.00    +0.046 C 
ATOM     32  H   UNL     1      -3.656  -4.429  -2.511  0.00  0.00    +0.160 HD
ENDBRANCH  23  27
ENDBRANCH   1  23
TORSDOF 4
