REMARK  Name = ZINC13063722
REMARK  13 active torsions:
REMARK  status: ('A' for Active; 'I' for Inactive)
REMARK    1  A    between atoms: C_1  and  C_2
REMARK    2  A    between atoms: C_2  and  C_3
REMARK    3  A    between atoms: C_10  and  C_15
REMARK    4  A    between atoms: C_15  and  N_73
REMARK    5  A    between atoms: C_16  and  C_17
REMARK    6  A    between atoms: C_16  and  N_73
REMARK    7  A    between atoms: C_20  and  C_23
REMARK    8  A    between atoms: C_24  and  C_26
REMARK    9  A    between atoms: C_24  and  C_28
REMARK   10  A    between atoms: C_24  and  N_73
REMARK   11  A    between atoms: C_26  and  C_27
REMARK   12  A    between atoms: N_32  and  C_33
REMARK   13  A    between atoms: C_33  and  C_34
REMARK                            x       y       z     vdW  Elec       q    Type
REMARK                         _______ _______ _______ _____ _____    ______ ____
ROOT
ATOM      1  N   UNL     1       1.469  -2.593  -1.468  0.00  0.00    +0.392 N 
ATOM      2  H   UNL     1       2.289  -2.113  -1.857  0.00  0.00    -0.080 HD
ENDROOT
BRANCH   1   3
ATOM      3  C   UNL     1       0.245  -1.978  -2.025  0.00  0.00    -0.036 C 
BRANCH   3  11
ATOM      4  C   UNL     1       1.757   3.548  -4.363  0.00  0.00    -0.047 A 
ATOM      5  C   UNL     1       1.421   4.290  -3.238  0.00  0.00    +0.005 A 
ATOM      6  C   UNL     1       0.928   3.672  -2.110  0.00  0.00    +0.026 A 
ATOM      7  C   UNL     1       0.763   2.291  -2.095  0.00  0.00    +0.049 A 
ATOM      8  C   UNL     1       1.105   1.542  -3.236  0.00  0.00    -0.001 A 
ATOM      9  C   UNL     1       1.605   2.190  -4.371  0.00  0.00    +0.013 A 
ATOM     10  C   UNL     1       0.934   0.088  -3.209  0.00  0.00    +0.017 A 
ATOM     11  C   UNL     1       0.440  -0.485  -2.084  0.00  0.00    +0.001 A 
ATOM     12  C   UNL     1       0.112   0.311  -0.966  0.00  0.00    +0.251 A 
ATOM     13  O   UNL     1      -0.326  -0.224   0.037  0.00  0.00    -0.268 OA
ATOM     14  N   UNL     1       0.271   1.647  -0.980  0.00  0.00    -0.322 N 
ATOM     15  H   UNL     1       0.036   2.164  -0.194  0.00  0.00    +0.169 HD
BRANCH   4  17
ATOM     16  C   UNL     1       1.134   4.636  -6.502  0.00  0.00    +0.009 C 
ATOM     17  C   UNL     1       2.295   4.246  -5.585  0.00  0.00    +0.032 C 
ENDBRANCH   4  17
ENDBRANCH   3  11
ENDBRANCH   1   3
BRANCH   1  18
ATOM     18  C   UNL     1       1.481  -2.450   0.003  0.00  0.00    -0.042 C 
BRANCH  18  19
ATOM     19  C   UNL     1       2.908  -2.532   0.483  0.00  0.00    -0.064 A 
ATOM     20  C   UNL     1       3.633  -1.374   0.694  0.00  0.00    +0.002 A 
ATOM     21  C   UNL     1       4.941  -1.448   1.135  0.00  0.00    +0.003 A 
ATOM     22  C   UNL     1       5.524  -2.681   1.364  0.00  0.00    -0.050 A 
ATOM     23  C   UNL     1       4.799  -3.838   1.151  0.00  0.00    +0.003 A 
ATOM     24  C   UNL     1       3.491  -3.764   0.711  0.00  0.00    +0.002 A 
ATOM     25  C   UNL     1       6.950  -2.762   1.845  0.00  0.00    +0.044 C 
ENDBRANCH  18  19
ENDBRANCH   1  18
BRANCH   1  26
ATOM     26  C   UNL     1       1.529  -4.022  -1.838  0.00  0.00    +0.003 C 
BRANCH  26  27
ATOM     27  C   UNL     1       0.196  -4.684  -1.605  0.00  0.00    +0.138 A 
ATOM     28  N   UNL     1      -0.970  -4.269  -2.036  0.00  0.00    -0.115 NA
ATOM     29  N   UNL     1      -1.864  -5.104  -1.632  0.00  0.00    -0.023 NA
ATOM     30  N   UNL     1      -1.300  -6.037  -0.948  0.00  0.00    -0.044 NA
ATOM     31  N   UNL     1      -0.030  -5.814  -0.908  0.00  0.00    -0.228 N 
BRANCH  31  32
ATOM     32  C   UNL     1       0.977  -6.635  -0.232  0.00  0.00    +0.178 C 
BRANCH  32  33
ATOM     33  C   UNL     1       1.154  -6.145   1.206  0.00  0.00    +0.140 C 
ATOM     34  C   UNL     1       2.294  -6.929   1.891  0.00  0.00    +0.035 C 
ATOM     35  C   UNL     1       1.738  -7.134   3.326  0.00  0.00    +0.031 C 
ATOM     36  C   UNL     1       0.224  -7.290   3.035  0.00  0.00    +0.160 C 
ATOM     37  O   UNL     1      -0.045  -6.385   1.952  0.00  0.00    -0.375 OA
ENDBRANCH  32  33
ENDBRANCH  31  32
ENDBRANCH  26  27
BRANCH  26  38
ATOM     38  C   UNL     1       1.901  -4.132  -3.318  0.00  0.00    -0.011 C 
ATOM     39  C   UNL     1       3.308  -3.569  -3.533  0.00  0.00    +0.002 C 
ENDBRANCH  26  38
ENDBRANCH   1  26
TORSDOF 10
