REMARK  Name = ZINC18972875
REMARK  10 active torsions:
REMARK  status: ('A' for Active; 'I' for Inactive)
REMARK    1  A    between atoms: C_1  and  N_2
REMARK    2  A    between atoms: C_3  and  C_28
REMARK    3  A    between atoms: C_6  and  S_7
REMARK    4  A    between atoms: S_7  and  C_8
REMARK    5  A    between atoms: C_8  and  C_9
REMARK    6  A    between atoms: N_11  and  C_12
REMARK    7  A    between atoms: C_17  and  C_18
REMARK    8  A    between atoms: N_20  and  C_21
REMARK    9  A    between atoms: C_33  and  O_34
REMARK   10  A    between atoms: O_34  and  C_35
REMARK                            x       y       z     vdW  Elec       q    Type
REMARK                         _______ _______ _______ _____ _____    ______ ____
ROOT
ATOM      1  C   UNL     1      -4.178  -0.366  -0.157  0.00  0.00    +0.228 C 
ATOM      2  O   UNL     1      -5.093   0.429  -0.199  0.00  0.00    -0.275 OA
ATOM      3  N   UNL     1      -2.904   0.072  -0.125  0.00  0.00    -0.284 N 
ATOM      4  H   UNL     1      -2.172  -0.563  -0.159  0.00  0.00    +0.155 HD
ENDROOT
BRANCH   3   5
ATOM      5  C   UNL     1      -2.639   1.437  -0.044  0.00  0.00    +0.046 A 
ATOM      6  C   UNL     1      -3.466   2.348  -0.688  0.00  0.00    +0.024 A 
ATOM      7  C   UNL     1      -3.202   3.700  -0.605  0.00  0.00    +0.002 A 
ATOM      8  C   UNL     1      -2.114   4.159   0.119  0.00  0.00    +0.001 A 
ATOM      9  C   UNL     1      -1.285   3.270   0.769  0.00  0.00    +0.015 A 
ATOM     10  C   UNL     1      -1.536   1.899   0.690  0.00  0.00    +0.058 A 
BRANCH  10  11
ATOM     11  C   UNL     1      -0.651   0.941   1.379  0.00  0.00    +0.250 C 
ATOM     12  O   UNL     1      -0.822  -0.255   1.239  0.00  0.00    -0.270 OA
ATOM     13  N   UNL     1       0.351   1.392   2.160  0.00  0.00    -0.281 N 
ATOM     14  H   UNL     1       0.541   2.342   2.204  0.00  0.00    +0.155 HD
BRANCH  13  15
ATOM     15  C   UNL     1       1.118   0.489   2.905  0.00  0.00    +0.034 A 
ATOM     16  C   UNL     1       0.575  -0.728   3.295  0.00  0.00    +0.026 A 
ATOM     17  C   UNL     1       1.334  -1.620   4.026  0.00  0.00    +0.040 A 
ATOM     18  C   UNL     1       2.633  -1.296   4.381  0.00  0.00    +0.124 A 
ATOM     19  C   UNL     1       3.175  -0.081   3.999  0.00  0.00    +0.040 A 
ATOM     20  C   UNL     1       2.420   0.812   3.262  0.00  0.00    +0.026 A 
ATOM     21  F   UNL     1       3.373  -2.168   5.101  0.00  0.00    -0.205 F 
ENDBRANCH  13  15
ENDBRANCH  10  11
ENDBRANCH   3   5
BRANCH   1  22
ATOM     22  C   UNL     1      -4.467  -1.846  -0.140  0.00  0.00    +0.173 C 
BRANCH  22  23
ATOM     23  S   UNL     1      -6.256  -2.112  -0.190  0.00  0.00    -0.077 S 
BRANCH  23  29
ATOM     24  C   UNL     1      -8.818  -4.202  -0.231  0.00  0.00    +0.153 C 
ATOM     25  N   UNL     1      -7.426  -4.654  -0.181  0.00  0.00    -0.305 N 
ATOM     26  C   UNL     1      -6.974  -5.953  -0.146  0.00  0.00    +0.168 A 
ATOM     27  N   UNL     1      -5.663  -5.904  -0.107  0.00  0.00    -0.128 NA
ATOM     28  N   UNL     1      -5.269  -4.681  -0.120  0.00  0.00    -0.122 NA
ATOM     29  C   UNL     1      -6.304  -3.873  -0.161  0.00  0.00    +0.192 A 
BRANCH  26  30
ATOM     30  C   UNL     1      -7.808  -7.173  -0.150  0.00  0.00    +0.061 A 
ATOM     31  C   UNL     1      -8.820  -7.327  -1.098  0.00  0.00    +0.015 A 
ATOM     32  C   UNL     1      -9.595  -8.468  -1.097  0.00  0.00    +0.001 A 
ATOM     33  C   UNL     1      -9.372  -9.462  -0.160  0.00  0.00    +0.004 A 
ATOM     34  C   UNL     1      -8.372  -9.320   0.784  0.00  0.00    +0.046 A 
ATOM     35  C   UNL     1      -7.581  -8.183   0.793  0.00  0.00    +0.131 A 
BRANCH  35  36
ATOM     36  O   UNL     1      -6.594  -8.046   1.716  0.00  0.00    -0.494 OA
ATOM     37  C   UNL     1      -6.422  -9.117   2.645  0.00  0.00    +0.277 C 
ENDBRANCH  35  36
ENDBRANCH  26  30
ENDBRANCH  23  29
ENDBRANCH  22  23
ENDBRANCH   1  22
TORSDOF 8
