REMARK  Name = ZINC61880587
REMARK  6 active torsions:
REMARK  status: ('A' for Active; 'I' for Inactive)
REMARK    1  A    between atoms: C_1  and  C_2
REMARK    2  A    between atoms: C_6  and  C_8
REMARK    3  A    between atoms: C_12  and  C_15
REMARK    4  A    between atoms: C_15  and  N_16
REMARK    5  A    between atoms: N_19  and  C_20
REMARK    6  A    between atoms: C_20  and  C_21
REMARK                            x       y       z     vdW  Elec       q    Type
REMARK                         _______ _______ _______ _____ _____    ______ ____
ROOT
ATOM      1  C   UNL     1      -4.193  -5.503  -3.176  0.00  0.00    +0.142 C 
ENDROOT
BRANCH   1  13
ATOM      2  C   UNL     1       0.024   1.508  -0.007  0.00  0.00    +0.039 C 
ATOM      3  C   UNL     1       0.027  -0.022  -0.001  0.00  0.00    +0.133 C 
ATOM      4  C   UNL     1      -1.417  -0.537   0.005  0.00  0.00    +0.137 C 
ATOM      5  N   UNL     1      -1.389  -1.995   0.200  0.00  0.00    -0.312 N 
ATOM      6  C   UNL     1      -0.594  -2.529   1.318  0.00  0.00    +0.137 C 
ATOM      7  C   UNL     1       0.810  -1.917   1.248  0.00  0.00    +0.133 C 
ATOM      8  O   UNL     1       0.700  -0.493   1.170  0.00  0.00    -0.371 OA
ATOM      9  C   UNL     1       1.597  -2.300   2.503  0.00  0.00    +0.039 C 
ATOM     10  C   UNL     1      -2.092  -2.844  -0.647  0.00  0.00    +0.099 A 
ATOM     11  C   UNL     1      -2.931  -2.308  -1.619  0.00  0.00    +0.042 A 
ATOM     12  C   UNL     1      -3.625  -3.164  -2.454  0.00  0.00    +0.010 A 
ATOM     13  C   UNL     1      -3.457  -4.533  -2.289  0.00  0.00    -0.014 A 
ATOM     14  C   UNL     1      -2.608  -4.996  -1.304  0.00  0.00    +0.089 A 
ATOM     15  N   UNL     1      -1.954  -4.155  -0.524  0.00  0.00    -0.349 N 
ATOM     16  H   UNL     1      -1.361  -4.507   0.158  0.00  0.00    +0.167 HD
ENDBRANCH   1  13
BRANCH   1  17
ATOM     17  N   UNL     1      -3.381  -5.796  -4.360  0.00  0.00    -0.295 N 
ATOM     18  C   UNL     1      -3.841  -6.645  -5.300  0.00  0.00    +0.300 C 
ATOM     19  O   UNL     1      -4.931  -7.168  -5.166  0.00  0.00    -0.253 OA
ATOM     20  N   UNL     1      -3.094  -6.915  -6.389  0.00  0.00    -0.295 N 
ATOM     21  H   UNL     1      -2.512  -5.379  -4.467  0.00  0.00    +0.151 HD
ATOM     22  H   UNL     1      -2.225  -6.497  -6.496  0.00  0.00    +0.151 HD
BRANCH  20  23
ATOM     23  C   UNL     1      -3.594  -7.838  -7.410  0.00  0.00    +0.141 C 
BRANCH  23  24
ATOM     24  C   UNL     1      -2.576  -7.965  -8.514  0.00  0.00    -0.030 A 
ATOM     25  C   UNL     1      -2.616  -7.104  -9.595  0.00  0.00    +0.005 A 
ATOM     26  C   UNL     1      -1.682  -7.223 -10.605  0.00  0.00    +0.004 A 
ATOM     27  C   UNL     1      -0.705  -8.202 -10.539  0.00  0.00    -0.044 A 
ATOM     28  C   UNL     1      -0.665  -9.063  -9.459  0.00  0.00    -0.044 A 
ATOM     29  C   UNL     1      -1.599  -8.938  -8.444  0.00  0.00    +0.009 A 
ATOM     30  C   UNL     1       0.485 -10.034  -9.620  0.00  0.00    +0.036 C 
ATOM     31  C   UNL     1       0.871  -9.959 -11.112  0.00  0.00    +0.009 C 
ATOM     32  C   UNL     1       0.416  -8.536 -11.501  0.00  0.00    +0.036 C 
ENDBRANCH  23  24
ENDBRANCH  20  23
ENDBRANCH   1  17
TORSDOF 4
