REMARK  Name = ZINC63698936
REMARK  4 active torsions:
REMARK  status: ('A' for Active; 'I' for Inactive)
REMARK    1  A    between atoms: C_1  and  C_2
REMARK    2  A    between atoms: C_4  and  C_23
REMARK    3  A    between atoms: N_12  and  C_14
REMARK    4  A    between atoms: C_28  and  C_29
REMARK                            x       y       z     vdW  Elec       q    Type
REMARK                         _______ _______ _______ _____ _____    ______ ____
ROOT
ATOM      1  C   UNL     1      -0.112   1.543   0.620  0.00  0.00    +0.062 C 
ATOM      2  C   UNL     1      -0.057   0.037   0.580  0.00  0.00    +0.019 C 
ATOM      3  C   UNL     1      -1.095  -0.732   0.416  0.00  0.00    -0.008 C 
ATOM      4  C   UNL     1      -2.526  -0.406   0.066  0.00  0.00    +0.059 C 
ATOM      5  C   UNL     1      -2.802  -1.087  -1.283  0.00  0.00    +0.108 C 
ATOM      6  C   UNL     1      -2.133  -2.420  -1.381  0.00  0.00    +0.215 C 
ATOM      7  O   UNL     1      -2.573  -3.180  -2.217  0.00  0.00    -0.276 OA
ATOM      8  N   UNL     1      -1.107  -2.870  -0.657  0.00  0.00    -0.295 N 
ATOM      9  C   UNL     1      -0.613  -2.170   0.521  0.00  0.00    +0.194 C 
ATOM     10  N   UNL     1       0.848  -2.045   0.561  0.00  0.00    -0.164 NA
ATOM     11  N   UNL     1       1.105  -0.707   0.707  0.00  0.00    -0.277 N 
ATOM     12  H   UNL     1      -0.674  -3.696  -0.924  0.00  0.00    +0.151 HD
ATOM     13  H   UNL     1       1.983  -0.332   0.878  0.00  0.00    +0.166 HD
ENDROOT
BRANCH  10  14
ATOM     14  C   UNL     1       1.413  -2.819   1.675  0.00  0.00    +0.270 C 
ATOM     15  N   UNL     1       1.113  -4.245   1.501  0.00  0.00    -0.350 N 
ATOM     16  C   UNL     1       0.404  -4.623   2.525  0.00  0.00    +0.061 A 
ATOM     17  C   UNL     1      -0.186  -5.912   2.911  0.00  0.00    +0.027 A 
ATOM     18  C   UNL     1      -0.887  -6.006   4.059  0.00  0.00    +0.002 A 
ATOM     19  C   UNL     1      -1.084  -4.911   4.918  0.00  0.00    +0.002 A 
ATOM     20  C   UNL     1      -0.587  -3.685   4.659  0.00  0.00    +0.027 A 
ATOM     21  C   UNL     1       0.196  -3.464   3.436  0.00  0.00    +0.061 A 
ATOM     22  N   UNL     1       0.784  -2.414   2.939  0.00  0.00    -0.350 N 
ATOM     23  H   UNL     1       1.391  -4.804   0.758  0.00  0.00    +0.163 HD
ATOM     24  H   UNL     1       0.804  -1.528   3.331  0.00  0.00    +0.163 HD
ENDBRANCH  10  14
BRANCH   4  25
ATOM     25  C   UNL     1      -2.703   1.085  -0.059  0.00  0.00    -0.028 A 
ATOM     26  C   UNL     1      -2.280   1.738  -1.202  0.00  0.00    +0.005 A 
ATOM     27  C   UNL     1      -2.442   3.106  -1.316  0.00  0.00    +0.000 A 
ATOM     28  C   UNL     1      -3.027   3.821  -0.287  0.00  0.00    +0.001 A 
ATOM     29  C   UNL     1      -3.450   3.168   0.855  0.00  0.00    +0.012 A 
ATOM     30  C   UNL     1      -3.292   1.800   0.967  0.00  0.00    +0.059 A 
BRANCH  30  31
ATOM     31  C   UNL     1      -3.759   1.087   2.210  0.00  0.00    +0.418 C 
ATOM     32  F   UNL     1      -4.318   2.013   3.097  0.00  0.00    -0.166 F 
ATOM     33  F   UNL     1      -4.722   0.132   1.866  0.00  0.00    -0.166 F 
ATOM     34  F   UNL     1      -2.671   0.454   2.821  0.00  0.00    -0.166 F 
ENDBRANCH  30  31
ENDBRANCH   4  25
TORSDOF 3
