REMARK  Name = ZINC41098785
REMARK  11 active torsions:
REMARK  status: ('A' for Active; 'I' for Inactive)
REMARK    1  A    between atoms: C_1  and  C_2
REMARK    2  A    between atoms: C_2  and  C_3
REMARK    3  A    between atoms: C_3  and  C_4
REMARK    4  A    between atoms: C_3  and  C_5
REMARK    5  A    between atoms: C_3  and  N_6
REMARK    6  A    between atoms: C_7  and  C_9
REMARK    7  A    between atoms: C_9  and  C_11
REMARK    8  A    between atoms: C_9  and  O_12
REMARK    9  A    between atoms: O_12  and  C_13
REMARK   10  A    between atoms: C_13  and  C_15
REMARK   11  A    between atoms: C_20  and  N_21
REMARK                            x       y       z     vdW  Elec       q    Type
REMARK                         _______ _______ _______ _____ _____    ______ ____
ROOT
ATOM      1  O   UNL     1      -3.883  -4.712   0.086  0.00  0.00    -0.449 OA
ENDROOT
BRANCH   1   2
ATOM      2  C   UNL     1      -2.548  -4.221  -0.050  0.00  0.00    +0.259 C 
ATOM      3  C   UNL     1      -1.942  -4.744  -1.355  0.00  0.00    +0.062 C 
BRANCH   2   5
ATOM      4  N   UNL     1      -1.409  -2.026  -0.095  0.00  0.00    -0.307 N 
ATOM      5  C   UNL     1      -2.567  -2.714  -0.074  0.00  0.00    +0.254 C 
ATOM      6  O   UNL     1      -3.625  -2.121  -0.075  0.00  0.00    -0.272 OA
ATOM      7  H   UNL     1      -0.563  -2.500  -0.094  0.00  0.00    +0.149 HD
BRANCH   4   8
ATOM      8  C   UNL     1      -1.428  -0.561  -0.118  0.00  0.00    +0.029 C 
ATOM      9  C   UNL     1      -2.146  -0.040   1.129  0.00  0.00    +0.031 C 
ATOM     10  C   UNL     1      -2.166  -0.080  -1.369  0.00  0.00    +0.031 C 
BRANCH   8  12
ATOM     11  C   UNL     1      -0.012   1.497  -0.163  0.00  0.00    +0.006 C 
ATOM     12  C   UNL     1       0.008  -0.032  -0.139  0.00  0.00    +0.022 C 
ENDBRANCH   8  12
ENDBRANCH   4   8
ENDBRANCH   2   5
ENDBRANCH   1   2
BRANCH   1  13
ATOM     13  C   UNL     1      -4.039  -5.889   0.724  0.00  0.00    +0.342 C 
ATOM     14  O   UNL     1      -3.069  -6.481   1.153  0.00  0.00    -0.245 OA
BRANCH  13  15
ATOM     15  C   UNL     1      -5.386  -6.457   0.902  0.00  0.00    +0.081 A 
ATOM     16  C   UNL     1      -6.515  -5.724   0.521  0.00  0.00    +0.036 A 
ATOM     17  C   UNL     1      -7.772  -6.262   0.689  0.00  0.00    +0.042 A 
ATOM     18  C   UNL     1      -7.926  -7.528   1.236  0.00  0.00    +0.022 A 
ATOM     19  C   UNL     1      -6.822  -8.263   1.616  0.00  0.00    +0.025 A 
ATOM     20  C   UNL     1      -5.546  -7.740   1.449  0.00  0.00    +0.039 A 
ATOM     21 CL   UNL     1      -9.172  -5.350   0.216  0.00  0.00    -0.084 Cl
BRANCH  20  22
ATOM     22  N   UNL     1      -4.433  -8.480   1.827  0.00  0.00    -0.357 N 
ATOM     23  H   UNL     1      -3.550  -8.082   1.788  0.00  0.00    +0.142 HD
ATOM     24  H   UNL     1      -4.540  -9.396   2.130  0.00  0.00    +0.142 HD
ENDBRANCH  20  22
ENDBRANCH  13  15
ENDBRANCH   1  13
TORSDOF 7
