REMARK  Name = ZINC65330926
REMARK  7 active torsions:
REMARK  status: ('A' for Active; 'I' for Inactive)
REMARK    1  A    between atoms: C_1  and  C_2
REMARK    2  A    between atoms: C_2  and  C_3
REMARK    3  A    between atoms: C_7  and  S_9
REMARK    4  A    between atoms: S_9  and  C_10
REMARK    5  A    between atoms: C_10  and  C_11
REMARK    6  A    between atoms: C_13  and  C_16
REMARK    7  A    between atoms: C_20  and  C_22
REMARK                            x       y       z     vdW  Elec       q    Type
REMARK                         _______ _______ _______ _____ _____    ______ ____
ROOT
ATOM      1  C   UNL     1      -3.438  -0.823   5.357  0.00  0.00    +0.238 A 
ATOM      2  N   UNL     1      -3.357  -1.857   6.146  0.00  0.00    -0.191 NA
ATOM      3  C   UNL     1      -3.975  -1.596   7.312  0.00  0.00    +0.202 A 
ATOM      4  N   UNL     1      -4.457  -0.379   7.267  0.00  0.00    -0.056 NA
ATOM      5  O   UNL     1      -4.109   0.145   5.994  0.00  0.00    -0.337 OA
ENDROOT
BRANCH   3   6
ATOM      6  C   UNL     1      -4.092  -2.532   8.457  0.00  0.00    +0.023 A 
ATOM      7  C   UNL     1      -3.528  -3.805   8.381  0.00  0.00    +0.012 A 
ATOM      8  C   UNL     1      -3.640  -4.671   9.450  0.00  0.00    +0.001 A 
ATOM      9  C   UNL     1      -4.310  -4.279  10.595  0.00  0.00    +0.012 A 
ATOM     10  C   UNL     1      -4.871  -3.017  10.676  0.00  0.00    +0.055 A 
ATOM     11  C   UNL     1      -4.760  -2.140   9.615  0.00  0.00    +0.024 A 
BRANCH  10  12
ATOM     12  C   UNL     1      -5.599  -2.597  11.926  0.00  0.00    +0.417 C 
ATOM     13  F   UNL     1      -5.575  -3.643  12.854  0.00  0.00    -0.166 F 
ATOM     14  F   UNL     1      -4.974  -1.472  12.475  0.00  0.00    -0.166 F 
ATOM     15  F   UNL     1      -6.926  -2.285  11.610  0.00  0.00    -0.166 F 
ENDBRANCH  10  12
ENDBRANCH   3   6
BRANCH   1  16
ATOM     16  C   UNL     1      -2.867  -0.730   3.966  0.00  0.00    +0.176 C 
BRANCH  16  17
ATOM     17  S   UNL     1      -4.106  -1.289   2.765  0.00  0.00    -0.078 S 
BRANCH  17  22
ATOM     18  C   UNL     1      -1.412  -0.526   0.013  0.00  0.00    +0.049 A 
ATOM     19  C   UNL     1      -2.026  -0.852  -1.162  0.00  0.00    +0.093 A 
ATOM     20  C   UNL     1      -3.346  -1.337  -1.127  0.00  0.00    +0.252 A 
ATOM     21  N   UNL     1      -3.960  -1.463   0.069  0.00  0.00    -0.302 N 
ATOM     22  C   UNL     1      -3.296  -1.121   1.208  0.00  0.00    +0.170 A 
ATOM     23  N   UNL     1      -2.057  -0.672   1.167  0.00  0.00    -0.228 NA
ATOM     24  O   UNL     1      -3.925  -1.637  -2.158  0.00  0.00    -0.268 OA
ATOM     25  H   UNL     1      -4.870  -1.795   0.116  0.00  0.00    +0.171 HD
BRANCH  18  27
ATOM     26  C   UNL     1      -0.019   1.526   0.010  0.00  0.00    +0.010 C 
ATOM     27  C   UNL     1       0.002  -0.004   0.002  0.00  0.00    +0.052 C 
ENDBRANCH  18  27
ENDBRANCH  17  22
ENDBRANCH  16  17
ENDBRANCH   1  16
TORSDOF 6
