REMARK  Name = ZINC05028040
REMARK  6 active torsions:
REMARK  status: ('A' for Active; 'I' for Inactive)
REMARK    1  A    between atoms: C_1  and  C_2
REMARK    2  A    between atoms: C_9  and  C_12
REMARK    3  A    between atoms: C_12  and  C_27
REMARK    4  A    between atoms: C_13  and  C_14
REMARK    5  A    between atoms: C_17  and  N_21
REMARK    6  A    between atoms: C_19  and  C_20
REMARK                            x       y       z     vdW  Elec       q    Type
REMARK                         _______ _______ _______ _____ _____    ______ ____
ROOT
ATOM      1  C   UNL     1       3.933   1.082   0.853  0.00  0.00    +0.094 C 
ATOM      2  C   UNL     1       4.133   2.025  -0.114  0.00  0.00    +0.030 C 
ENDROOT
BRANCH   1  11
ATOM      3  C   UNL     1      -0.330   4.066   6.087  0.00  0.00    +0.044 C 
ATOM      4  C   UNL     1       0.461   3.051   5.303  0.00  0.00    -0.048 A 
ATOM      5  C   UNL     1       0.522   1.737   5.746  0.00  0.00    +0.005 A 
ATOM      6  C   UNL     1       1.241   0.794   5.042  0.00  0.00    +0.028 A 
ATOM      7  C   UNL     1       1.909   1.163   3.882  0.00  0.00    +0.066 A 
ATOM      8  C   UNL     1       1.847   2.495   3.433  0.00  0.00    +0.090 A 
ATOM      9  C   UNL     1       1.115   3.434   4.167  0.00  0.00    +0.033 A 
ATOM     10  N   UNL     1       2.579   2.569   2.296  0.00  0.00    -0.227 NA
ATOM     11  C   UNL     1       3.081   1.388   2.017  0.00  0.00    +0.150 A 
ATOM     12  N   UNL     1       2.694   0.484   2.970  0.00  0.00    -0.337 N 
ATOM     13  H   UNL     1       2.935  -0.486   3.001  0.00  0.00    +0.167 HD
ENDBRANCH   1  11
BRANCH   2  14
ATOM     14  C   UNL     1       3.349   3.263  -0.103  0.00  0.00    -0.021 A 
ATOM     15  C   UNL     1       1.965   3.218   0.119  0.00  0.00    +0.010 A 
ATOM     16  C   UNL     1       1.240   4.375   0.128  0.00  0.00    +0.024 A 
ATOM     17  C   UNL     1       1.871   5.598  -0.082  0.00  0.00    +0.030 A 
ATOM     18  C   UNL     1       3.246   5.648  -0.302  0.00  0.00    +0.027 A 
ATOM     19  C   UNL     1       3.981   4.498  -0.309  0.00  0.00    -0.042 A 
ATOM     20  C   UNL     1       5.469   4.554  -0.541  0.00  0.00    +0.044 C 
BRANCH  17  21
ATOM     21  N   UNL     1       1.128   6.773  -0.070  0.00  0.00    -0.330 N 
ATOM     22  C   UNL     1       1.663   7.725   0.912  0.00  0.00    +0.105 C 
ATOM     23  C   UNL     1       0.914   9.055   0.796  0.00  0.00    +0.019 C 
ATOM     24  C   UNL     1      -0.578   8.819   1.046  0.00  0.00    +0.003 C 
ATOM     25  C   UNL     1      -1.099   7.788   0.041  0.00  0.00    +0.019 C 
ATOM     26  C   UNL     1      -0.292   6.495   0.179  0.00  0.00    +0.105 C 
ENDBRANCH  17  21
ENDBRANCH   2  14
BRANCH   1  27
ATOM     27  C   UNL     1       4.552  -0.204   0.738  0.00  0.00    +0.103 C 
ATOM     28  N   UNL     1       5.043  -1.225   0.646  0.00  0.00    -0.191 NA
ENDBRANCH   1  27
TORSDOF 4
