REMARK  Name = ZINC00885626
REMARK  9 active torsions:
REMARK  status: ('A' for Active; 'I' for Inactive)
REMARK    1  A    between atoms: C_1  and  C_2
REMARK    2  A    between atoms: C_5  and  C_7
REMARK    3  A    between atoms: C_7  and  C_9
REMARK    4  A    between atoms: C_7  and  N_18
REMARK    5  A    between atoms: N_11  and  C_12
REMARK    6  A    between atoms: N_18  and  C_19
REMARK    7  A    between atoms: C_19  and  C_20
REMARK    8  A    between atoms: C_29  and  C_31
REMARK    9  A    between atoms: C_34  and  C_37
REMARK                            x       y       z     vdW  Elec       q    Type
REMARK                         _______ _______ _______ _____ _____    ______ ____
ROOT
ATOM      1  N   UNL     1       2.821  -2.846  -1.434  0.00  0.00    -0.274 N 
ATOM      2  C   UNL     1       3.203  -3.569  -2.505  0.00  0.00    +0.264 C 
ATOM      3  O   UNL     1       2.794  -4.707  -2.648  0.00  0.00    -0.268 OA
ENDROOT
BRANCH   2   4
ATOM      4  C   UNL     1       4.109  -2.986  -3.499  0.00  0.00    +0.102 A 
ATOM      5  C   UNL     1       4.281  -3.424  -4.797  0.00  0.00    +0.033 A 
ATOM      6  C   UNL     1       5.228  -2.596  -5.395  0.00  0.00    +0.028 A 
ATOM      7  C   UNL     1       5.622  -1.665  -4.458  0.00  0.00    +0.047 A 
ATOM      8  N   UNL     1       4.933  -1.901  -3.304  0.00  0.00    -0.351 N 
ATOM      9  H   UNL     1       5.013  -1.391  -2.482  0.00  0.00    +0.166 HD
BRANCH   7  10
ATOM     10  C   UNL     1       6.615  -0.591  -4.669  0.00  0.00    -0.002 A 
ATOM     11  C   UNL     1       6.930   0.287  -3.630  0.00  0.00    +0.010 A 
ATOM     12  C   UNL     1       7.858   1.287  -3.833  0.00  0.00    +0.001 A 
ATOM     13  C   UNL     1       8.476   1.421  -5.064  0.00  0.00    +0.000 A 
ATOM     14  C   UNL     1       8.168   0.555  -6.098  0.00  0.00    +0.001 A 
ATOM     15  C   UNL     1       7.246  -0.453  -5.906  0.00  0.00    +0.010 A 
ENDBRANCH   7  10
ENDBRANCH   2   4
BRANCH   1  16
ATOM     16  C   UNL     1       1.811  -3.375  -0.515  0.00  0.00    +0.229 C 
BRANCH  16  21
ATOM     17  C   UNL     1      -0.757   0.955  -0.196  0.00  0.00    +0.086 C 
ATOM     18  C   UNL     1      -0.452  -0.519  -0.276  0.00  0.00    +0.102 A 
ATOM     19  C   UNL     1      -1.360  -1.512  -0.272  0.00  0.00    +0.045 A 
ATOM     20  C   UNL     1      -0.640  -2.725  -0.361  0.00  0.00    +0.047 A 
ATOM     21  C   UNL     1       0.664  -2.401  -0.414  0.00  0.00    +0.135 A 
ATOM     22  O   UNL     1       0.772  -1.064  -0.368  0.00  0.00    -0.462 OA
ENDBRANCH  16  21
BRANCH  16  23
ATOM     23  C   UNL     1       2.424  -3.571   0.848  0.00  0.00    +0.241 C 
ATOM     24  O   UNL     1       3.604  -3.349   1.019  0.00  0.00    -0.273 OA
ATOM     25  N   UNL     1       1.661  -3.993   1.876  0.00  0.00    -0.311 N 
ATOM     26  H   UNL     1       0.718  -4.170   1.739  0.00  0.00    +0.149 HD
BRANCH  25  27
ATOM     27  C   UNL     1       2.258  -4.183   3.200  0.00  0.00    +0.073 C 
ATOM     28  C   UNL     1       2.882  -5.577   3.283  0.00  0.00    +0.022 C 
ATOM     29  C   UNL     1       3.505  -5.776   4.666  0.00  0.00    +0.002 C 
ATOM     30  C   UNL     1       2.421  -5.638   5.738  0.00  0.00    +0.000 C 
ATOM     31  C   UNL     1       1.797  -4.244   5.655  0.00  0.00    +0.002 C 
ATOM     32  C   UNL     1       1.174  -4.045   4.272  0.00  0.00    +0.022 C 
ENDBRANCH  25  27
ENDBRANCH  16  23
ENDBRANCH   1  16
BRANCH   1  33
ATOM     33  C   UNL     1       3.418  -1.531  -1.188  0.00  0.00    +0.144 C 
BRANCH  33  34
ATOM     34  C   UNL     1       4.628  -1.685  -0.304  0.00  0.00    -0.026 A 
ATOM     35  C   UNL     1       4.532  -1.418   1.049  0.00  0.00    +0.009 A 
ATOM     36  C   UNL     1       5.640  -1.559   1.865  0.00  0.00    +0.050 A 
ATOM     37  C   UNL     1       6.849  -1.968   1.328  0.00  0.00    +0.166 A 
ATOM     38  C   UNL     1       6.946  -2.237  -0.035  0.00  0.00    +0.167 A 
ATOM     39  C   UNL     1       5.831  -2.099  -0.846  0.00  0.00    +0.054 A 
ATOM     40  O   UNL     1       8.226  -2.619  -0.315  0.00  0.00    -0.453 OA
ATOM     41  C   UNL     1       9.011  -2.188   0.813  0.00  0.00    +0.466 C 
ATOM     42  O   UNL     1       8.069  -2.181   1.902  0.00  0.00    -0.453 OA
ENDBRANCH  33  34
ENDBRANCH   1  33
TORSDOF 8
