REMARK  Name = ZINC01380022
REMARK  11 active torsions:
REMARK  status: ('A' for Active; 'I' for Inactive)
REMARK    1  A    between atoms: C_1  and  C_2
REMARK    2  A    between atoms: C_2  and  O_3
REMARK    3  A    between atoms: O_3  and  C_4
REMARK    4  A    between atoms: C_7  and  C_10
REMARK    5  A    between atoms: C_10  and  C_12
REMARK    6  A    between atoms: C_10  and  N_20
REMARK    7  A    between atoms: N_14  and  C_15
REMARK    8  A    between atoms: N_20  and  C_21
REMARK    9  A    between atoms: C_26  and  C_27
REMARK   10  A    between atoms: C_27  and  C_29
REMARK   11  A    between atoms: C_33  and  C_35
REMARK                            x       y       z     vdW  Elec       q    Type
REMARK                         _______ _______ _______ _____ _____    ______ ____
ROOT
ATOM      1  N   UNL     1      -1.386  -0.590  -0.897  0.00  0.00    -0.248 N 
ATOM      2  C   UNL     1      -1.325  -0.428  -2.234  0.00  0.00    +0.287 C 
ATOM      3  O   UNL     1      -2.267  -0.756  -2.930  0.00  0.00    -0.266 OA
ENDROOT
BRANCH   1   4
ATOM      4  C   UNL     1      -2.471  -1.246  -0.324  0.00  0.00    +0.052 A 
ATOM      5  C   UNL     1      -3.551  -0.518   0.151  0.00  0.00    +0.073 A 
ATOM      6  C   UNL     1      -4.635  -1.170   0.718  0.00  0.00    +0.168 A 
ATOM      7  C   UNL     1      -4.642  -2.565   0.822  0.00  0.00    +0.167 A 
ATOM      8  C   UNL     1      -3.573  -3.300   0.358  0.00  0.00    +0.062 A 
ATOM      9  C   UNL     1      -2.474  -2.649  -0.221  0.00  0.00    +0.042 A 
ATOM     10  O   UNL     1      -5.811  -2.950   1.415  0.00  0.00    -0.453 OA
ATOM     11  C   UNL     1      -6.692  -1.817   1.298  0.00  0.00    +0.466 C 
ATOM     12  O   UNL     1      -5.797  -0.690   1.245  0.00  0.00    -0.453 OA
BRANCH   9  13
ATOM     13  C   UNL     1      -1.336  -3.425  -0.716  0.00  0.00    +0.162 C 
ATOM     14  O   UNL     1      -0.387  -2.859  -1.217  0.00  0.00    -0.292 OA
ATOM     15  C   UNL     1      -1.343  -4.928  -0.603  0.00  0.00    +0.091 C 
ENDBRANCH   9  13
ENDBRANCH   1   4
BRANCH   2  16
ATOM     16  C   UNL     1      -0.123   0.143  -2.849  0.00  0.00    +0.190 A 
ATOM     17  C   UNL     1       0.029   0.462  -4.168  0.00  0.00    +0.054 A 
ATOM     18  C   UNL     1       1.327   0.977  -4.312  0.00  0.00    +0.042 A 
ATOM     19  C   UNL     1       1.904   0.949  -3.090  0.00  0.00    +0.196 A 
ATOM     20  O   UNL     1       1.025   0.451  -2.210  0.00  0.00    -0.458 OA
ENDBRANCH   2  16
BRANCH   1  21
ATOM     21  C   UNL     1      -0.309  -0.075  -0.047  0.00  0.00    +0.198 C 
BRANCH  21  25
ATOM     22  C   UNL     1      -0.220   4.191  -0.288  0.00  0.00    +0.121 A 
ATOM     23  C   UNL     1       0.960   3.479  -0.126  0.00  0.00    +0.046 A 
ATOM     24  C   UNL     1       0.928   2.100  -0.048  0.00  0.00    +0.009 A 
ATOM     25  C   UNL     1      -0.278   1.429  -0.132  0.00  0.00    -0.018 A 
ATOM     26  C   UNL     1      -1.454   2.136  -0.299  0.00  0.00    +0.009 A 
ATOM     27  C   UNL     1      -1.429   3.515  -0.371  0.00  0.00    +0.046 A 
BRANCH  22  28
ATOM     28  O   UNL     1      -0.192   5.547  -0.365  0.00  0.00    -0.492 OA
BRANCH  28  30
ATOM     29  C   UNL     1      -1.214   7.725  -0.598  0.00  0.00    +0.048 C 
ATOM     30  C   UNL     1      -1.445   6.214  -0.532  0.00  0.00    +0.225 C 
ENDBRANCH  28  30
ENDBRANCH  22  28
ENDBRANCH  21  25
BRANCH  21  31
ATOM     31  C   UNL     1      -0.553  -0.493   1.380  0.00  0.00    +0.239 C 
ATOM     32  O   UNL     1      -1.484  -1.222   1.648  0.00  0.00    -0.273 OA
ATOM     33  N   UNL     1       0.264  -0.055   2.359  0.00  0.00    -0.311 N 
ATOM     34  H   UNL     1       1.008   0.528   2.145  0.00  0.00    +0.149 HD
BRANCH  33  35
ATOM     35  C   UNL     1       0.027  -0.461   3.747  0.00  0.00    +0.073 C 
ATOM     36  C   UNL     1      -0.953   0.519   4.424  0.00  0.00    +0.022 C 
ATOM     37  C   UNL     1      -0.425   0.641   5.875  0.00  0.00    +0.002 C 
ATOM     38  C   UNL     1       1.112   0.624   5.683  0.00  0.00    +0.002 C 
ATOM     39  C   UNL     1       1.340  -0.395   4.547  0.00  0.00    +0.022 C 
ENDBRANCH  33  35
ENDBRANCH  21  31
ENDBRANCH   1  21
TORSDOF 9
