REMARK  Name = ZINC59922267
REMARK  6 active torsions:
REMARK  status: ('A' for Active; 'I' for Inactive)
REMARK    1  A    between atoms: C_1  and  C_2
REMARK    2  A    between atoms: C_4  and  C_7
REMARK    3  A    between atoms: C_7  and  N_14
REMARK    4  A    between atoms: C_15  and  C_17
REMARK    5  A    between atoms: C_19  and  S_24
REMARK    6  A    between atoms: S_24  and  N_27
REMARK                            x       y       z     vdW  Elec       q    Type
REMARK                         _______ _______ _______ _____ _____    ______ ____
ROOT
ATOM      1  N   UNL     1      -2.409  -3.215  -1.221  0.00  0.00    -0.299 N 
ATOM      2  C   UNL     1      -3.217  -2.162  -1.453  0.00  0.00    +0.246 C 
ATOM      3  O   UNL     1      -3.266  -1.245  -0.656  0.00  0.00    -0.270 OA
ATOM      4  H   UNL     1      -2.370  -3.946  -1.857  0.00  0.00    +0.150 HD
ENDROOT
BRANCH   1   5
ATOM      5  C   UNL     1      -1.588  -3.254  -0.008  0.00  0.00    +0.098 C 
ATOM      6  C   UNL     1      -2.514  -3.169   1.223  0.00  0.00    +0.034 C 
ATOM      7  C   UNL     1      -3.729  -4.018   0.966  0.00  0.00    +0.003 C 
ATOM      8  C   UNL     1      -3.582  -5.443   1.533  0.00  0.00    +0.000 C 
ATOM      9  C   UNL     1      -2.183  -6.041   1.292  0.00  0.00    +0.000 C 
ATOM     10  C   UNL     1      -1.660  -5.744  -0.088  0.00  0.00    +0.003 C 
ATOM     11  C   UNL     1      -0.790  -4.472  -0.018  0.00  0.00    +0.034 C 
BRANCH   5  15
ATOM     12  C   UNL     1      -0.018   1.503   0.010  0.00  0.00    +0.112 C 
ATOM     13  C   UNL     1       0.002  -0.004   0.002  0.00  0.00    +0.224 A 
ATOM     14  N   UNL     1      -1.044  -0.783   0.003  0.00  0.00    -0.194 NA
ATOM     15  C   UNL     1      -0.663  -2.065  -0.006  0.00  0.00    +0.195 A 
ATOM     16  N   UNL     1       0.638  -2.118  -0.012  0.00  0.00    -0.059 NA
ATOM     17  O   UNL     1       1.097  -0.774  -0.013  0.00  0.00    -0.338 OA
ENDBRANCH   5  15
ENDBRANCH   1   5
BRANCH   2  18
ATOM     18  C   UNL     1      -4.045  -2.122  -2.676  0.00  0.00    +0.052 A 
ATOM     19  C   UNL     1      -3.997  -3.175  -3.591  0.00  0.00    +0.042 A 
ATOM     20  C   UNL     1      -4.772  -3.132  -4.731  0.00  0.00    +0.106 A 
ATOM     21  C   UNL     1      -5.598  -2.047  -4.969  0.00  0.00    +0.029 A 
ATOM     22  C   UNL     1      -5.651  -0.999  -4.068  0.00  0.00    +0.018 A 
ATOM     23  C   UNL     1      -4.885  -1.032  -2.920  0.00  0.00    +0.030 A 
ATOM     24 BR   UNL     1      -4.965   0.397  -1.685  0.00  0.00    -0.050 Br
BRANCH  20  25
ATOM     25  S   UNL     1      -4.711  -4.461  -5.886  0.00  0.00    +0.056 S 
ATOM     26  O   UNL     1      -5.121  -3.929  -7.138  0.00  0.00    -0.153 OA
ATOM     27  O   UNL     1      -3.456  -5.100  -5.704  0.00  0.00    -0.153 OA
BRANCH  25  28
ATOM     28  N   UNL     1      -5.870  -5.555  -5.435  0.00  0.00    -0.204 NA
ATOM     29  H   UNL     1      -6.421  -5.384  -4.655  0.00  0.00    +0.144 HD
ATOM     30  H   UNL     1      -5.997  -6.367  -5.950  0.00  0.00    +0.144 HD
ENDBRANCH  25  28
ENDBRANCH  20  25
ENDBRANCH   2  18
TORSDOF 5
