REMARK  Name = ZINC19742039
REMARK  7 active torsions:
REMARK  status: ('A' for Active; 'I' for Inactive)
REMARK    1  A    between atoms: C_4  and  C_7
REMARK    2  A    between atoms: N_10  and  C_19
REMARK    3  A    between atoms: C_19  and  C_20
REMARK    4  A    between atoms: N_22  and  C_23
REMARK    5  A    between atoms: C_23  and  C_24
REMARK    6  A    between atoms: C_24  and  C_25
REMARK    7  A    between atoms: C_29  and  C_31
REMARK                            x       y       z     vdW  Elec       q    Type
REMARK                         _______ _______ _______ _____ _____    ______ ____
ROOT
ATOM      1  C   UNL     1       1.618  -1.039   3.258  0.00  0.00    +0.019 C 
ENDROOT
BRANCH   1   4
ATOM      2  C   UNL     1      -0.020  -0.027   0.016  0.00  0.00    +0.187 C 
ATOM      3  C   UNL     1       0.123  -0.569   1.422  0.00  0.00    -0.028 C 
ATOM      4  N   UNL     1       1.393  -0.225   2.055  0.00  0.00    +0.391 N 
ATOM      5  C   UNL     1       1.502   1.205   2.361  0.00  0.00    -0.038 C 
ATOM      6  C   UNL     1       1.995   1.933   1.123  0.00  0.00    -0.022 A 
ATOM      7  C   UNL     1       3.246   2.512   1.110  0.00  0.00    +0.005 A 
ATOM      8  C   UNL     1       3.673   3.193  -0.017  0.00  0.00    +0.000 A 
ATOM      9  C   UNL     1       2.846   3.292  -1.121  0.00  0.00    +0.004 A 
ATOM     10  C   UNL     1       1.596   2.703  -1.110  0.00  0.00    +0.046 A 
ATOM     11  C   UNL     1       1.171   2.010   0.016  0.00  0.00    +0.123 A 
ATOM     12  O   UNL     1      -0.047   1.406   0.026  0.00  0.00    -0.486 OA
ATOM     13  H   UNL     1       2.178  -0.455   1.321  0.00  0.00    -0.080 HD
BRANCH   2  17
ATOM     14  C   UNL     1      -3.650  -1.492  -1.695  0.00  0.00    +0.000 A 
ATOM     15  C   UNL     1      -2.463  -2.166  -1.911  0.00  0.00    +0.000 A 
ATOM     16  C   UNL     1      -1.288  -1.692  -1.357  0.00  0.00    +0.007 A 
ATOM     17  C   UNL     1      -1.300  -0.544  -0.588  0.00  0.00    -0.009 A 
ATOM     18  C   UNL     1      -2.488   0.128  -0.367  0.00  0.00    +0.007 A 
ATOM     19  C   UNL     1      -3.662  -0.344  -0.925  0.00  0.00    +0.000 A 
ENDBRANCH   2  17
ENDBRANCH   1   4
BRANCH   1  20
ATOM     20  C   UNL     1       3.031  -0.837   3.743  0.00  0.00    +0.196 C 
ATOM     21  O   UNL     1       3.776  -0.090   3.146  0.00  0.00    -0.278 OA
ATOM     22  N   UNL     1       3.466  -1.488   4.840  0.00  0.00    -0.316 N 
ATOM     23  H   UNL     1       2.790  -2.166   5.381  0.00  0.00    +0.149 HD
BRANCH  22  24
ATOM     24  C   UNL     1       4.839  -1.292   5.311  0.00  0.00    +0.112 C 
BRANCH  24  25
ATOM     25  C   UNL     1       5.074  -2.140   6.563  0.00  0.00    +0.097 C 
BRANCH  25  26
ATOM     26  C   UNL     1       6.487  -1.938   7.048  0.00  0.00    +0.153 A 
ATOM     27  N   UNL     1       6.848  -1.544   8.283  0.00  0.00    -0.157 NA
ATOM     28  H   UNL     1       8.785  -1.208   9.210  0.00  0.00    +0.191 HD
ATOM     29  N   UNL     1       8.251  -1.501   8.294  0.00  0.00    -0.259 N 
ATOM     30  C   UNL     1       8.650  -1.854   7.091  0.00  0.00    +0.156 A 
ATOM     31  N   UNL     1       7.571  -2.117   6.341  0.00  0.00    -0.211 NA
BRANCH  30  32
ATOM     32  C   UNL     1      10.060  -1.945   6.640  0.00  0.00    +0.022 A 
ATOM     33  C   UNL     1      10.373  -2.338   5.336  0.00  0.00    +0.031 A 
ATOM     34  C   UNL     1      11.697  -2.405   4.956  0.00  0.00    +0.111 A 
ATOM     35  N   UNL     1      12.662  -2.114   5.808  0.00  0.00    -0.263 NA
ATOM     36  C   UNL     1      12.410  -1.744   7.049  0.00  0.00    +0.111 A 
ATOM     37  C   UNL     1      11.113  -1.646   7.509  0.00  0.00    +0.031 A 
ENDBRANCH  30  32
ENDBRANCH  25  26
ENDBRANCH  24  25
ENDBRANCH  22  24
ENDBRANCH   1  20
TORSDOF 7
