REMARK  Name = ZINC52015703
REMARK  6 active torsions:
REMARK  status: ('A' for Active; 'I' for Inactive)
REMARK    1  A    between atoms: C_3  and  S_11
REMARK    2  A    between atoms: C_4  and  N_8
REMARK    3  A    between atoms: C_6  and  N_7
REMARK    4  A    between atoms: S_11  and  N_14
REMARK    5  A    between atoms: N_14  and  C_15
REMARK    6  A    between atoms: C_21  and  O_23
REMARK                            x       y       z     vdW  Elec       q    Type
REMARK                         _______ _______ _______ _____ _____    ______ ____
ROOT
ATOM      1  S   UNL     1       3.602   2.846   0.002  0.00  0.00    +0.061 S 
ATOM      2  O   UNL     1       4.447   2.602  -1.114  0.00  0.00    -0.153 OA
ATOM      3  O   UNL     1       2.842   4.040   0.136  0.00  0.00    -0.153 OA
ENDROOT
BRANCH   1   6
ATOM      4  C   UNL     1       1.562  -0.500  -0.879  0.00  0.00    +0.025 A 
ATOM      5  C   UNL     1       2.458   0.549  -0.927  0.00  0.00    +0.032 A 
ATOM      6  C   UNL     1       2.455   1.510   0.067  0.00  0.00    +0.135 A 
ATOM      7  C   UNL     1       1.554   1.424   1.113  0.00  0.00    +0.154 A 
ATOM      8  C   UNL     1       0.655   0.377   1.167  0.00  0.00    +0.057 A 
ATOM      9  C   UNL     1       0.655  -0.589   0.170  0.00  0.00    +0.027 A 
BRANCH   9  10
ATOM     10  N   UNL     1      -0.254  -1.649   0.221  0.00  0.00    -0.358 N 
ATOM     11  H   UNL     1      -0.252  -2.323  -0.476  0.00  0.00    +0.142 HD
ATOM     12  H   UNL     1      -0.886  -1.710   0.954  0.00  0.00    +0.142 HD
ENDBRANCH   9  10
BRANCH   7  13
ATOM     13  N   UNL     1       1.555   2.454   2.175  0.00  0.00    +0.058 N 
ATOM     14  O   UNL     1       0.691   2.450   3.022  0.00  0.00    -0.126 OA
ATOM     15  O   UNL     1       2.418   3.300   2.197  0.00  0.00    -0.126 OA
ENDBRANCH   7  13
ENDBRANCH   1   6
BRANCH   1  16
ATOM     16  N   UNL     1       4.556   2.739   1.351  0.00  0.00    -0.184 NA
ATOM     17  H   UNL     1       4.546   3.451   2.010  0.00  0.00    +0.148 HD
BRANCH  16  18
ATOM     18  C   UNL     1       5.415   1.569   1.550  0.00  0.00    +0.105 C 
ATOM     19  C   UNL     1       6.818   1.870   1.020  0.00  0.00    +0.023 C 
ATOM     20  C   UNL     1       7.715   0.648   1.228  0.00  0.00    +0.002 C 
ATOM     21  C   UNL     1       7.792   0.320   2.720  0.00  0.00    +0.003 C 
ATOM     22  C   UNL     1       6.389   0.018   3.250  0.00  0.00    +0.033 C 
ATOM     23  C   UNL     1       5.492   1.241   3.042  0.00  0.00    +0.133 C 
BRANCH  23  24
ATOM     24  O   UNL     1       4.182   0.959   3.537  0.00  0.00    -0.390 OA
ATOM     25  H   UNL     1       4.155   0.742   4.479  0.00  0.00    +0.210 HD
ENDBRANCH  23  24
ENDBRANCH  16  18
ENDBRANCH   1  16
TORSDOF 6
