REMARK  Name = ZINC42269206
REMARK  10 active torsions:
REMARK  status: ('A' for Active; 'I' for Inactive)
REMARK    1  A    between atoms: C_1  and  C_2
REMARK    2  A    between atoms: C_2  and  C_3
REMARK    3  A    between atoms: C_3  and  C_4
REMARK    4  A    between atoms: C_4  and  C_5
REMARK    5  A    between atoms: C_5  and  N_6
REMARK    6  A    between atoms: N_6  and  C_7
REMARK    7  A    between atoms: N_6  and  S_10
REMARK    8  A    between atoms: C_7  and  C_8
REMARK    9  A    between atoms: C_7  and  C_9
REMARK   10  A    between atoms: S_10  and  C_13
REMARK                            x       y       z     vdW  Elec       q    Type
REMARK                         _______ _______ _______ _____ _____    ______ ____
ROOT
ATOM      1  N   UNL     1       1.432  -4.368  -2.442  0.00  0.00    -0.174 NA
ENDROOT
BRANCH   1   2
ATOM      2  C   UNL     1       0.194  -4.622  -3.183  0.00  0.00    +0.074 C 
ATOM      3  C   UNL     1      -0.971  -3.917  -2.486  0.00  0.00    +0.025 C 
ATOM      4  C   UNL     1       0.334  -4.085  -4.609  0.00  0.00    +0.025 C 
ENDBRANCH   1   2
BRANCH   1   5
ATOM      5  S   UNL     1       2.238  -5.622  -1.722  0.00  0.00    +0.067 S 
ATOM      6  O   UNL     1       1.862  -6.801  -2.421  0.00  0.00    -0.152 OA
ATOM      7  O   UNL     1       3.593  -5.213  -1.592  0.00  0.00    -0.152 OA
BRANCH   5   8
ATOM      8  C   UNL     1       1.601  -5.781  -0.087  0.00  0.00    +0.144 A 
ATOM      9  C   UNL     1       0.564  -6.534   0.355  0.00  0.00    +0.037 A 
ATOM     10  C   UNL     1       0.237  -6.502   1.698  0.00  0.00    +0.025 A 
ATOM     11  C   UNL     1       0.965  -5.719   2.533  0.00  0.00    +0.057 A 
ATOM     12  S   UNL     1       2.158  -4.999   1.417  0.00  0.00    -0.062 S 
ATOM     13 BR   UNL     1       0.770  -5.463   4.396  0.00  0.00    -0.043 Br
ENDBRANCH   5   8
ENDBRANCH   1   5
BRANCH   1  14
ATOM     14  C   UNL     1       1.957  -3.004  -2.339  0.00  0.00    +0.110 C 
BRANCH  14  15
ATOM     15  C   UNL     1       2.817  -2.693  -3.566  0.00  0.00    +0.017 C 
BRANCH  15  16
ATOM     16  C   UNL     1       3.343  -1.260  -3.470  0.00  0.00    +0.001 C 
BRANCH  16  18
ATOM     17  C   UNL     1       4.729   0.484  -4.602  0.00  0.00    +0.004 C 
ATOM     18  C   UNL     1       4.202  -0.950  -4.697  0.00  0.00    -0.003 C 
ENDBRANCH  16  18
ENDBRANCH  15  16
ENDBRANCH  14  15
ENDBRANCH   1  14
TORSDOF 7
