REMARK  Name = ZINC15675667
REMARK  9 active torsions:
REMARK  status: ('A' for Active; 'I' for Inactive)
REMARK    1  A    between atoms: C_1  and  C_2
REMARK    2  A    between atoms: C_2  and  C_25
REMARK    3  A    between atoms: N_14  and  C_15
REMARK    4  A    between atoms: C_15  and  C_16
REMARK    5  A    between atoms: C_16  and  C_17
REMARK    6  A    between atoms: C_17  and  N_80
REMARK    7  A    between atoms: C_18  and  N_80
REMARK    8  A    between atoms: C_19  and  N_80
REMARK    9  A    between atoms: N_27  and  C_28
REMARK                            x       y       z     vdW  Elec       q    Type
REMARK                         _______ _______ _______ _____ _____    ______ ____
ROOT
ATOM      1  C   UNL     1       5.983  -1.311  -6.403  0.00  0.00    +0.043 C 
ATOM      2  C   UNL     1       7.249  -0.625  -5.887  0.00  0.00    +0.128 C 
ATOM      3  C   UNL     1       8.363  -0.803  -6.918  0.00  0.00    +0.157 C 
ATOM      4  N   UNL     1       8.845  -2.187  -6.872  0.00  0.00    -0.331 N 
ATOM      5  C   UNL     1       9.385  -2.959  -7.856  0.00  0.00    +0.088 A 
ATOM      6  C   UNL     1       9.761  -3.030  -9.219  0.00  0.00    +0.067 A 
ATOM      7  C   UNL     1      10.275  -4.254  -9.428  0.00  0.00    +0.198 A 
ATOM      8  O   UNL     1      10.244  -4.954  -8.282  0.00  0.00    -0.461 OA
ATOM      9  C   UNL     1       9.706  -4.198  -7.301  0.00  0.00    +0.153 A 
ATOM     10  C   UNL     1       9.337  -4.166  -5.948  0.00  0.00    +0.079 A 
ATOM     11  C   UNL     1       8.805  -2.935  -5.698  0.00  0.00    +0.109 A 
ATOM     12  C   UNL     1       8.245  -2.368  -4.467  0.00  0.00    +0.264 C 
ATOM     13  O   UNL     1       8.357  -2.932  -3.394  0.00  0.00    -0.268 OA
ATOM     14  N   UNL     1       7.594  -1.187  -4.587  0.00  0.00    -0.281 N 
ENDROOT
BRANCH   2  15
ATOM     15  C   UNL     1       6.969   0.847  -5.722  0.00  0.00    +0.238 C 
ATOM     16  O   UNL     1       5.977   1.335  -6.220  0.00  0.00    -0.273 OA
ATOM     17  N   UNL     1       7.822   1.621  -5.021  0.00  0.00    -0.311 N 
ATOM     18  H   UNL     1       8.651   1.247  -4.684  0.00  0.00    +0.149 HD
BRANCH  17  19
ATOM     19  C   UNL     1       7.495   3.026  -4.767  0.00  0.00    +0.073 C 
ATOM     20  C   UNL     1       7.937   3.876  -5.960  0.00  0.00    +0.022 C 
ATOM     21  C   UNL     1       7.260   5.246  -5.889  0.00  0.00    +0.002 C 
ATOM     22  C   UNL     1       5.784   5.068  -5.526  0.00  0.00    +0.000 C 
ATOM     23  C   UNL     1       5.527   5.651  -4.135  0.00  0.00    +0.000 C 
ATOM     24  C   UNL     1       6.070   4.692  -3.074  0.00  0.00    +0.000 C 
ATOM     25  C   UNL     1       7.595   4.805  -3.016  0.00  0.00    +0.002 C 
ATOM     26  C   UNL     1       8.223   3.499  -3.507  0.00  0.00    +0.022 C 
ENDBRANCH  17  19
ENDBRANCH   2  15
BRANCH  14  27
ATOM     27  C   UNL     1       7.230  -0.450  -3.374  0.00  0.00    +0.107 C 
BRANCH  27  28
ATOM     28  C   UNL     1       5.783  -0.775  -2.995  0.00  0.00    +0.000 C 
BRANCH  28  29
ATOM     29  C   UNL     1       5.403  -0.004  -1.729  0.00  0.00    -0.077 C 
BRANCH  29  31
ATOM     30  C   UNL     1       3.078   0.191  -2.377  0.00  0.00    -0.096 C 
ATOM     31  N   UNL     1       4.012  -0.345  -1.364  0.00  0.00    +0.380 N 
ATOM     32  H   UNL     1       3.916  -1.366  -1.330  0.00  0.00    -0.082 HD
BRANCH  31  33
ATOM     33  C   UNL     1       3.688   0.212  -0.034  0.00  0.00    -0.069 C 
ATOM     34  C   UNL     1       2.333  -0.338   0.416  0.00  0.00    -0.015 C 
ATOM     35  C   UNL     1       1.993   0.212   1.802  0.00  0.00    -0.002 C 
ATOM     36  C   UNL     1       1.929   1.740   1.742  0.00  0.00    -0.000 C 
ATOM     37  C   UNL     1       3.284   2.291   1.293  0.00  0.00    -0.002 C 
ATOM     38  C   UNL     1       3.624   1.740  -0.093  0.00  0.00    -0.015 C 
ENDBRANCH  31  33
ENDBRANCH  29  31
ENDBRANCH  28  29
ENDBRANCH  27  28
ENDBRANCH  14  27
TORSDOF 7
