REMARK  Name = ZINC34726817
REMARK  8 active torsions:
REMARK  status: ('A' for Active; 'I' for Inactive)
REMARK    1  A    between atoms: C_1  and  C_2
REMARK    2  A    between atoms: C_2  and  C_3
REMARK    3  A    between atoms: C_4  and  C_27
REMARK    4  A    between atoms: N_11  and  C_18
REMARK    5  A    between atoms: N_14  and  C_17
REMARK    6  A    between atoms: C_18  and  C_19
REMARK    7  A    between atoms: C_22  and  C_26
REMARK    8  A    between atoms: C_24  and  C_25
REMARK                            x       y       z     vdW  Elec       q    Type
REMARK                         _______ _______ _______ _____ _____    ______ ____
ROOT
ATOM      1  C   UNL     1       0.686  -0.507  -1.030  0.00  0.00    -0.040 C 
ATOM      2  C   UNL     1       1.965  -0.834  -1.037  0.00  0.00    -0.064 C 
ATOM      3  C   UNL     1       2.316  -1.258  -2.445  0.00  0.00    +0.073 C 
ATOM      4  C   UNL     1       1.040  -1.118  -3.218  0.00  0.00    +0.004 A 
ATOM      5  C   UNL     1       0.069  -0.677  -2.376  0.00  0.00    +0.003 A 
ATOM      6  C   UNL     1      -1.272  -0.485  -2.970  0.00  0.00    +0.078 A 
ATOM      7  C   UNL     1      -2.506  -0.017  -2.307  0.00  0.00    +0.266 A 
ATOM      8  O   UNL     1      -2.499   0.267  -1.122  0.00  0.00    -0.267 OA
ATOM      9  N   UNL     1      -3.636   0.093  -3.027  0.00  0.00    -0.256 N 
ATOM     10  C   UNL     1      -3.676  -0.212  -4.335  0.00  0.00    +0.333 A 
ATOM     11  O   UNL     1      -4.723  -0.097  -4.942  0.00  0.00    -0.246 OA
ATOM     12  N   UNL     1      -2.578  -0.644  -4.987  0.00  0.00    -0.290 N 
ATOM     13  C   UNL     1      -1.390  -0.781  -4.325  0.00  0.00    +0.097 A 
ATOM     14  S   UNL     1       0.244  -1.289  -4.792  0.00  0.00    -0.074 S 
ATOM     15  C   UNL     1      -2.659  -0.967  -6.413  0.00  0.00    +0.154 C 
ATOM     16  C   UNL     1       2.903  -0.791   0.142  0.00  0.00    +0.039 C 
ENDROOT
BRANCH   1  18
ATOM     17  C   UNL     1      -0.078   1.502   0.206  0.00  0.00    +0.009 C 
ATOM     18  C   UNL     1      -0.059  -0.027   0.189  0.00  0.00    +0.032 C 
ENDBRANCH   1  18
BRANCH   9  19
ATOM     19  C   UNL     1      -4.859   0.557  -2.367  0.00  0.00    +0.165 C 
BRANCH  19  20
ATOM     20  C   UNL     1      -4.895   2.064  -2.381  0.00  0.00    -0.025 A 
ATOM     21  C   UNL     1      -3.929   2.773  -3.071  0.00  0.00    +0.006 A 
ATOM     22  C   UNL     1      -3.963   4.154  -3.083  0.00  0.00    +0.004 A 
ATOM     23  C   UNL     1      -4.963   4.827  -2.405  0.00  0.00    -0.050 A 
ATOM     24  C   UNL     1      -5.929   4.119  -1.716  0.00  0.00    +0.007 A 
ATOM     25  C   UNL     1      -5.898   2.737  -1.708  0.00  0.00    -0.045 A 
ATOM     26  C   UNL     1      -6.954   1.964  -0.961  0.00  0.00    +0.044 C 
ATOM     27  C   UNL     1      -4.999   6.334  -2.418  0.00  0.00    +0.044 C 
ENDBRANCH  19  20
ENDBRANCH   9  19
TORSDOF 3
