REMARK  Name = ZINC41584565
REMARK  10 active torsions:
REMARK  status: ('A' for Active; 'I' for Inactive)
REMARK    1  A    between atoms: C_1  and  C_2
REMARK    2  A    between atoms: C_4  and  O_37
REMARK    3  A    between atoms: C_5  and  C_23
REMARK    4  A    between atoms: C_11  and  C_12
REMARK    5  A    between atoms: C_14  and  O_20
REMARK    6  A    between atoms: C_17  and  O_18
REMARK    7  A    between atoms: O_18  and  C_19
REMARK    8  A    between atoms: O_20  and  C_21
REMARK    9  A    between atoms: C_23  and  N_24
REMARK   10  A    between atoms: C_29  and  C_31
REMARK                            x       y       z     vdW  Elec       q    Type
REMARK                         _______ _______ _______ _____ _____    ______ ____
ROOT
ATOM      1  C   UNL     1       0.693   0.285   0.050  0.00  0.00    +0.045 C 
ATOM      2  C   UNL     1       0.389  -1.133   0.459  0.00  0.00    -0.033 A 
ATOM      3  C   UNL     1      -0.050  -2.034  -0.470  0.00  0.00    +0.050 A 
ATOM      4  C   UNL     1      -0.332  -3.344  -0.095  0.00  0.00    +0.122 A 
ATOM      5  C   UNL     1      -0.172  -3.751   1.220  0.00  0.00    +0.020 A 
ATOM      6  C   UNL     1       0.274  -2.848   2.177  0.00  0.00    +0.145 A 
ATOM      7  C   UNL     1       0.561  -1.530   1.785  0.00  0.00    +0.071 A 
ATOM      8  C   UNL     1       1.012  -0.825   2.998  0.00  0.00    +0.232 C 
ATOM      9  O   UNL     1       1.355   0.341   3.100  0.00  0.00    -0.283 OA
ATOM     10  C   UNL     1       0.957  -1.841   4.058  0.00  0.00    +0.176 C 
ATOM     11  C   UNL     1       1.284  -1.658   5.363  0.00  0.00    +0.062 C 
ATOM     12  O   UNL     1       0.508  -2.990   3.499  0.00  0.00    -0.451 OA
ENDROOT
BRANCH  11  13
ATOM     13  C   UNL     1       1.308  -2.803   6.281  0.00  0.00    +0.024 A 
ATOM     14  C   UNL     1       1.343  -4.109   5.777  0.00  0.00    +0.057 A 
ATOM     15  C   UNL     1       1.366  -5.181   6.649  0.00  0.00    +0.121 A 
ATOM     16  C   UNL     1       1.354  -4.966   8.022  0.00  0.00    +0.049 A 
ATOM     17  C   UNL     1       1.320  -3.682   8.529  0.00  0.00    +0.050 A 
ATOM     18  C   UNL     1       1.302  -2.595   7.670  0.00  0.00    +0.128 A 
BRANCH  18  19
ATOM     19  O   UNL     1       1.273  -1.333   8.170  0.00  0.00    -0.495 OA
ATOM     20  C   UNL     1       1.268  -1.198   9.592  0.00  0.00    +0.277 C 
ENDBRANCH  18  19
BRANCH  15  21
ATOM     21  O   UNL     1       1.400  -6.450   6.161  0.00  0.00    -0.495 OA
ATOM     22  C   UNL     1       1.539  -7.507   7.112  0.00  0.00    +0.277 C 
ENDBRANCH  15  21
ENDBRANCH  11  13
BRANCH   4  23
ATOM     23  O   UNL     1      -0.768  -4.231  -1.025  0.00  0.00    -0.506 OA
ATOM     24  H   UNL     1      -0.059  -4.718  -1.468  0.00  0.00    +0.292 HD
ENDBRANCH   4  23
BRANCH   5  25
ATOM     25  C   UNL     1      -0.482  -5.172   1.612  0.00  0.00    -0.035 C 
BRANCH  25  26
ATOM     26  N   UNL     1      -1.927  -5.315   1.835  0.00  0.00    +0.387 N 
ATOM     27  C   UNL     1      -2.325  -4.502   2.991  0.00  0.00    -0.078 C 
ATOM     28  C   UNL     1      -3.841  -4.582   3.178  0.00  0.00    -0.019 C 
ATOM     29  C   UNL     1      -4.244  -6.040   3.415  0.00  0.00    -0.003 C 
ATOM     30  C   UNL     1      -3.759  -6.891   2.238  0.00  0.00    -0.011 C 
ATOM     31  C   UNL     1      -2.245  -6.726   2.086  0.00  0.00    -0.036 C 
ATOM     32  H   UNL     1      -2.425  -4.999   1.017  0.00  0.00    -0.080 HD
BRANCH  31  33
ATOM     33  C   UNL     1      -1.763  -7.562   0.928  0.00  0.00    -0.043 A 
ATOM     34  C   UNL     1      -1.082  -8.748   1.155  0.00  0.00    +0.005 A 
ATOM     35  C   UNL     1      -0.657  -9.485   0.061  0.00  0.00    +0.020 A 
ATOM     36  C   UNL     1      -0.924  -9.015  -1.212  0.00  0.00    +0.111 A 
ATOM     37  N   UNL     1      -1.574  -7.882  -1.390  0.00  0.00    -0.263 NA
ATOM     38  C   UNL     1      -1.999  -7.159  -0.372  0.00  0.00    +0.112 A 
ENDBRANCH  31  33
ENDBRANCH  25  26
ENDBRANCH   5  25
TORSDOF 7
