REMARK  Name = ZINC14718757
REMARK  21 active torsions:
REMARK  status: ('A' for Active; 'I' for Inactive)
REMARK    1  A    between atoms: C_1  and  C_2
REMARK    2  A    between atoms: C_2  and  C_3
REMARK    3  A    between atoms: C_3  and  C_5
REMARK    4  A    between atoms: C_3  and  C_6
REMARK    5  A    between atoms: C_6  and  C_8
REMARK    6  A    between atoms: C_9  and  O_38
REMARK    7  A    between atoms: C_10  and  C_28
REMARK    8  A    between atoms: C_11  and  O_27
REMARK    9  A    between atoms: C_18  and  C_19
REMARK   10  A    between atoms: C_19  and  C_21
REMARK   11  A    between atoms: C_19  and  O_23
REMARK   12  A    between atoms: C_21  and  C_22
REMARK   13  A    between atoms: O_23  and  C_24
REMARK   14  A    between atoms: C_24  and  C_26
REMARK   15  A    between atoms: C_28  and  C_29
REMARK   16  A    between atoms: C_30  and  C_31
REMARK   17  A    between atoms: C_30  and  C_32
REMARK   18  A    between atoms: C_32  and  C_33
REMARK   19  A    between atoms: C_33  and  C_34
REMARK   20  A    between atoms: C_35  and  C_36
REMARK   21  A    between atoms: C_35  and  C_37
REMARK                            x       y       z     vdW  Elec       q    Type
REMARK                         _______ _______ _______ _____ _____    ______ ____
ROOT
ATOM      1  C   UNL     1      -4.042   0.191   5.615  0.00  0.00    +0.102 A 
ATOM      2  C   UNL     1      -3.259  -0.964   5.437  0.00  0.00    +0.138 A 
ATOM      3  C   UNL     1      -2.415  -1.075   4.343  0.00  0.00    +0.041 A 
ATOM      4  C   UNL     1      -2.332  -0.054   3.414  0.00  0.00    +0.135 A 
ATOM      5  C   UNL     1      -3.109   1.111   3.574  0.00  0.00    +0.067 A 
ATOM      6  C   UNL     1      -3.966   1.236   4.677  0.00  0.00    +0.157 A 
ATOM      7  O   UNL     1      -4.709   2.350   4.833  0.00  0.00    -0.421 OA
ATOM      8  C   UNL     1      -4.644   3.354   3.942  0.00  0.00    +0.338 A 
ATOM      9  O   UNL     1      -5.326   4.350   4.108  0.00  0.00    -0.245 OA
ATOM     10  C   UNL     1      -3.793   3.275   2.821  0.00  0.00    +0.100 A 
ATOM     11  C   UNL     1      -3.033   2.166   2.628  0.00  0.00    +0.014 A 
ENDROOT
BRANCH   1  12
ATOM     12  C   UNL     1      -4.931   0.305   6.770  0.00  0.00    +0.173 C 
ATOM     13  O   UNL     1      -4.556   0.884   7.769  0.00  0.00    -0.292 OA
BRANCH  12  14
ATOM     14  C   UNL     1      -6.311  -0.296   6.721  0.00  0.00    +0.057 C 
ATOM     15  C   UNL     1      -7.292   0.724   6.139  0.00  0.00    +0.016 C 
BRANCH  14  17
ATOM     16  C   UNL     1      -8.099  -1.401   8.072  0.00  0.00    +0.004 C 
ATOM     17  C   UNL     1      -6.752  -0.678   8.136  0.00  0.00    +0.008 C 
ENDBRANCH  14  17
ENDBRANCH  12  14
ENDBRANCH   1  12
BRANCH   4  18
ATOM     18  O   UNL     1      -1.504  -0.174   2.348  0.00  0.00    -0.506 OA
ATOM     19  H   UNL     1      -0.611   0.163   2.504  0.00  0.00    +0.292 HD
ENDBRANCH   4  18
BRANCH   2  20
ATOM     20  O   UNL     1      -3.329  -1.972   6.339  0.00  0.00    -0.506 OA
ATOM     21  H   UNL     1      -2.752  -1.856   7.105  0.00  0.00    +0.292 HD
ENDBRANCH   2  20
BRANCH  11  22
ATOM     22  C   UNL     1      -2.120   2.061   1.434  0.00  0.00    +0.207 C 
BRANCH  22  23
ATOM     23  C   UNL     1      -0.714   2.520   1.825  0.00  0.00    +0.046 C 
ATOM     24  C   UNL     1       0.241   2.296   0.650  0.00  0.00    +0.008 C 
ENDBRANCH  22  23
BRANCH  22  25
ATOM     25  O   UNL     1      -2.624   2.903   0.364  0.00  0.00    -0.457 OA
BRANCH  25  26
ATOM     26  C   UNL     1      -2.367   2.509  -0.894  0.00  0.00    +0.305 C 
ATOM     27  O   UNL     1      -1.742   1.495  -1.094  0.00  0.00    -0.251 OA
ATOM     28  C   UNL     1      -2.859   3.333  -2.056  0.00  0.00    +0.136 C 
ENDBRANCH  25  26
ENDBRANCH  22  25
ENDBRANCH  11  22
BRANCH   3  29
ATOM     29  C   UNL     1      -1.581  -2.318   4.164  0.00  0.00    +0.069 C 
BRANCH  29  30
ATOM     30  C   UNL     1      -0.254  -2.136   4.853  0.00  0.00    -0.023 C 
ATOM     31  C   UNL     1       0.120  -2.975   5.788  0.00  0.00    -0.076 C 
ATOM     32  C   UNL     1      -0.766  -4.138   6.154  0.00  0.00    +0.039 C 
BRANCH  31  33
ATOM     33  C   UNL     1       1.434  -2.776   6.497  0.00  0.00    +0.034 C 
BRANCH  33  34
ATOM     34  C   UNL     1       1.202  -2.001   7.796  0.00  0.00    +0.031 C 
BRANCH  34  35
ATOM     35  C   UNL     1       2.516  -1.802   8.505  0.00  0.00    -0.028 C 
ATOM     36  C   UNL     1       2.924  -0.594   8.802  0.00  0.00    -0.080 C 
ATOM     37  C   UNL     1       2.029   0.590   8.539  0.00  0.00    +0.038 C 
ATOM     38  C   UNL     1       4.288  -0.386   9.408  0.00  0.00    +0.038 C 
ENDBRANCH  34  35
ENDBRANCH  33  34
ENDBRANCH  31  33
ENDBRANCH  29  30
ENDBRANCH   3  29
TORSDOF 14
