REMARK  Name = ZINC36383562
REMARK  12 active torsions:
REMARK  status: ('A' for Active; 'I' for Inactive)
REMARK    1  A    between atoms: C_1  and  C_2
REMARK    2  A    between atoms: C_2  and  C_3
REMARK    3  A    between atoms: C_3  and  C_5
REMARK    4  A    between atoms: C_3  and  S_12
REMARK    5  A    between atoms: N_7  and  C_8
REMARK    6  A    between atoms: N_7  and  C_10
REMARK    7  A    between atoms: C_8  and  C_9
REMARK    8  A    between atoms: C_10  and  C_11
REMARK    9  A    between atoms: S_12  and  C_13
REMARK   10  A    between atoms: C_17  and  C_21
REMARK   11  A    between atoms: N_23  and  C_24
REMARK   12  A    between atoms: C_29  and  C_30
REMARK                            x       y       z     vdW  Elec       q    Type
REMARK                         _______ _______ _______ _____ _____    ______ ____
ROOT
ATOM      1  C   UNL     1       2.119   1.882  -1.111  0.00  0.00    +0.178 A 
ATOM      2  N   UNL     1       0.900   2.374  -1.110  0.00  0.00    -0.201 NA
ATOM      3  C   UNL     1       0.687   3.700  -1.006  0.00  0.00    +0.187 A 
ATOM      4  C   UNL     1       1.863   4.581  -0.892  0.00  0.00    +0.079 A 
ATOM      5  C   UNL     1       1.384   5.869  -0.800  0.00  0.00    +0.046 A 
ATOM      6  N   UNL     1       0.046   5.812  -0.850  0.00  0.00    -0.279 N 
ATOM      7  H   UNL     1      -0.546   6.579  -0.806  0.00  0.00    +0.189 HD
ATOM      8  N   UNL     1      -0.371   4.481  -0.976  0.00  0.00    -0.153 NA
ATOM      9  C   UNL     1       2.215   7.118  -0.667  0.00  0.00    +0.066 C 
ATOM     10  C   UNL     1       3.180   3.950  -0.901  0.00  0.00    +0.115 A 
ATOM     11  N   UNL     1       3.228   2.622  -1.006  0.00  0.00    -0.276 N 
ATOM     12  N   UNL     1       4.330   4.699  -0.800  0.00  0.00    -0.344 N 
ATOM     13  H   UNL     1       4.275   5.664  -0.720  0.00  0.00    +0.144 HD
ATOM     14  H   UNL     1       5.196   4.261  -0.808  0.00  0.00    +0.144 HD
ENDROOT
BRANCH  11  15
ATOM     15  C   UNL     1       4.455   1.994  -1.012  0.00  0.00    +0.054 A 
ATOM     16  C   UNL     1       5.127   1.782  -2.215  0.00  0.00    +0.026 A 
ATOM     17  C   UNL     1       6.355   1.153  -2.216  0.00  0.00    +0.003 A 
ATOM     18  C   UNL     1       6.921   0.733  -1.026  0.00  0.00    +0.020 A 
ATOM     19  C   UNL     1       6.260   0.941   0.172  0.00  0.00    +0.046 A 
ATOM     20  C   UNL     1       5.032   1.575   0.185  0.00  0.00    -0.008 A 
ATOM     21  C   UNL     1       4.316   1.807   1.490  0.00  0.00    +0.047 C 
ATOM     22 CL   UNL     1       6.977   0.411   1.662  0.00  0.00    -0.083 Cl
ENDBRANCH  11  15
BRANCH   1  23
ATOM     23  S   UNL     1       2.303   0.135  -1.250  0.00  0.00    -0.075 S 
BRANCH  23  24
ATOM     24  C   UNL     1       0.598  -0.486  -1.268  0.00  0.00    +0.140 C 
BRANCH  24  25
ATOM     25  C   UNL     1      -0.080  -0.057  -2.543  0.00  0.00    +0.229 C 
ATOM     26  O   UNL     1       0.582   0.184  -3.530  0.00  0.00    -0.274 OA
ATOM     27  N   UNL     1      -1.422   0.058  -2.587  0.00  0.00    -0.301 N 
BRANCH  27  28
ATOM     28  C   UNL     1      -2.221  -0.234  -1.395  0.00  0.00    +0.104 C 
ATOM     29  C   UNL     1      -2.395   1.045  -0.572  0.00  0.00    +0.024 C 
ENDBRANCH  27  28
BRANCH  27  30
ATOM     30  C   UNL     1      -2.081   0.475  -3.827  0.00  0.00    +0.104 C 
ATOM     31  C   UNL     1      -2.416  -0.759  -4.667  0.00  0.00    +0.024 C 
ENDBRANCH  27  30
ENDBRANCH  24  25
BRANCH  24  33
ATOM     32  C   UNL     1       1.171  -2.447   0.171  0.00  0.00    +0.005 C 
ATOM     33  C   UNL     1       0.611  -2.014  -1.186  0.00  0.00    +0.020 C 
ENDBRANCH  24  33
ENDBRANCH  23  24
ENDBRANCH   1  23
TORSDOF 7
