REMARK  Name = ZINC36573017
REMARK  12 active torsions:
REMARK  status: ('A' for Active; 'I' for Inactive)
REMARK    1  A    between atoms: C_1  and  C_2
REMARK    2  A    between atoms: C_2  and  C_3
REMARK    3  A    between atoms: C_3  and  N_4
REMARK    4  A    between atoms: N_4  and  C_5
REMARK    5  A    between atoms: C_5  and  C_7
REMARK    6  A    between atoms: C_5  and  C_16
REMARK    7  A    between atoms: C_10  and  O_15
REMARK    8  A    between atoms: C_11  and  O_13
REMARK    9  A    between atoms: O_13  and  C_14
REMARK   10  A    between atoms: N_18  and  C_19
REMARK   11  A    between atoms: C_25  and  C_27
REMARK   12  A    between atoms: C_27  and  C_28
REMARK                            x       y       z     vdW  Elec       q    Type
REMARK                         _______ _______ _______ _____ _____    ______ ____
ROOT
ATOM      1  C   UNL     1       1.859  -2.668   0.807  0.00  0.00    +0.192 C 
ENDROOT
BRANCH   1   2
ATOM      2  C   UNL     1       3.092  -2.431   1.640  0.00  0.00    -0.015 A 
ATOM      3  C   UNL     1       3.424  -1.147   2.031  0.00  0.00    +0.010 A 
ATOM      4  C   UNL     1       4.554  -0.925   2.795  0.00  0.00    +0.049 A 
ATOM      5  C   UNL     1       5.357  -1.990   3.171  0.00  0.00    +0.158 A 
ATOM      6  C   UNL     1       5.023  -3.282   2.777  0.00  0.00    +0.162 A 
ATOM      7  C   UNL     1       3.886  -3.499   2.016  0.00  0.00    +0.055 A 
BRANCH   6   8
ATOM      8  O   UNL     1       5.808  -4.330   3.144  0.00  0.00    -0.491 OA
ATOM      9  C   UNL     1       5.404  -5.628   2.704  0.00  0.00    +0.277 C 
ENDBRANCH   6   8
BRANCH   5  10
ATOM     10  O   UNL     1       6.470  -1.772   3.922  0.00  0.00    -0.503 OA
ATOM     11  H   UNL     1       6.314  -1.810   4.876  0.00  0.00    +0.292 HD
ENDBRANCH   5  10
ENDBRANCH   1   2
BRANCH   1  12
ATOM     12  C   UNL     1       2.109  -2.205  -0.605  0.00  0.00    +0.238 C 
ATOM     13  O   UNL     1       1.437  -1.314  -1.079  0.00  0.00    -0.273 OA
ATOM     14  N   UNL     1       3.080  -2.782  -1.340  0.00  0.00    -0.311 N 
ATOM     15  H   UNL     1       3.618  -3.495  -0.961  0.00  0.00    +0.149 HD
BRANCH  14  16
ATOM     16  C   UNL     1       3.324  -2.332  -2.713  0.00  0.00    +0.073 C 
ATOM     17  C   UNL     1       2.373  -3.061  -3.665  0.00  0.00    +0.022 C 
ATOM     18  C   UNL     1       2.628  -2.591  -5.098  0.00  0.00    +0.002 C 
ATOM     19  C   UNL     1       4.075  -2.901  -5.487  0.00  0.00    +0.000 C 
ATOM     20  C   UNL     1       5.026  -2.172  -4.535  0.00  0.00    +0.002 C 
ATOM     21  C   UNL     1       4.771  -2.642  -3.102  0.00  0.00    +0.022 C 
ENDBRANCH  14  16
ENDBRANCH   1  12
BRANCH   1  22
ATOM     22  N   UNL     1       0.735  -1.918   1.375  0.00  0.00    -0.286 N 
ATOM     23  C   UNL     1       0.024  -2.439   2.394  0.00  0.00    +0.221 C 
ATOM     24  O   UNL     1       0.314  -3.528   2.842  0.00  0.00    -0.275 OA
BRANCH  22  25
ATOM     25  C   UNL     1       0.385  -0.603   0.834  0.00  0.00    +0.108 C 
BRANCH  25  27
ATOM     26  C   UNL     1      -1.012   0.585  -0.863  0.00  0.00    +0.005 C 
ATOM     27  C   UNL     1      -0.774  -0.750  -0.154  0.00  0.00    +0.016 C 
ENDBRANCH  25  27
ENDBRANCH  22  25
BRANCH  23  28
ATOM     28  C   UNL     1      -1.132  -1.668   2.978  0.00  0.00    +0.131 C 
BRANCH  28  29
ATOM     29  C   UNL     1      -1.754  -2.464   4.096  0.00  0.00    -0.035 A 
ATOM     30  C   UNL     1      -2.778  -3.353   3.823  0.00  0.00    +0.008 A 
ATOM     31  C   UNL     1      -3.351  -4.086   4.845  0.00  0.00    +0.050 A 
ATOM     32  C   UNL     1      -2.901  -3.931   6.146  0.00  0.00    +0.166 A 
ATOM     33  C   UNL     1      -1.871  -3.036   6.421  0.00  0.00    +0.166 A 
ATOM     34  C   UNL     1      -1.297  -2.309   5.391  0.00  0.00    +0.053 A 
ATOM     35  O   UNL     1      -1.613  -3.066   7.761  0.00  0.00    -0.453 OA
ATOM     36  C   UNL     1      -2.767  -3.683   8.361  0.00  0.00    +0.466 C 
ATOM     37  O   UNL     1      -3.289  -4.522   7.314  0.00  0.00    -0.453 OA
ENDBRANCH  28  29
ENDBRANCH  23  28
ENDBRANCH   1  22
TORSDOF 10
