REMARK  Name = ZINC13369737
REMARK  10 active torsions:
REMARK  status: ('A' for Active; 'I' for Inactive)
REMARK    1  A    between atoms: C_1  and  C_2
REMARK    2  A    between atoms: N_4  and  C_5
REMARK    3  A    between atoms: C_7  and  O_38
REMARK    4  A    between atoms: C_15  and  C_18
REMARK    5  A    between atoms: C_25  and  O_27
REMARK    6  A    between atoms: O_27  and  C_28
REMARK    7  A    between atoms: C_31  and  C_34
REMARK    8  A    between atoms: C_34  and  C_35
REMARK    9  A    between atoms: C_34  and  C_36
REMARK   10  A    between atoms: C_34  and  C_37
REMARK                            x       y       z     vdW  Elec       q    Type
REMARK                         _______ _______ _______ _____ _____    ______ ____
ROOT
ATOM      1  C   UNL     1      -1.574  -1.932   0.118  0.00  0.00    +0.173 C 
ATOM      2  C   UNL     1      -1.571  -0.398   0.129  0.00  0.00    +0.172 C 
ATOM      3  C   UNL     1      -0.120   0.083   0.103  0.00  0.00    +0.183 C 
ATOM      4  C   UNL     1       0.560  -0.480  -1.151  0.00  0.00    +0.179 C 
ATOM      5  C   UNL     1       1.999   0.038  -1.195  0.00  0.00    +0.197 C 
ATOM      6  O   UNL     1       1.963   1.470  -1.143  0.00  0.00    -0.345 OA
ATOM      7  C   UNL     1       1.292   2.002   0.001  0.00  0.00    +0.282 C 
ATOM      8  O   UNL     1      -0.050   1.508   0.057  0.00  0.00    -0.339 OA
ATOM      9  O   UNL     1       0.526  -1.904  -1.096  0.00  0.00    -0.332 OA
ATOM     10  C   UNL     1      -0.801  -2.440  -1.100  0.00  0.00    +0.331 C 
ENDROOT
BRANCH   7  11
ATOM     11  C   UNL     1       2.030   1.591   1.249  0.00  0.00    +0.008 A 
ATOM     12  C   UNL     1       1.344   1.447   2.441  0.00  0.00    +0.008 A 
ATOM     13  C   UNL     1       2.019   1.066   3.585  0.00  0.00    +0.000 A 
ATOM     14  C   UNL     1       3.382   0.837   3.539  0.00  0.00    +0.000 A 
ATOM     15  C   UNL     1       4.068   0.985   2.349  0.00  0.00    +0.000 A 
ATOM     16  C   UNL     1       3.392   1.363   1.204  0.00  0.00    +0.008 A 
ENDBRANCH   7  11
BRANCH   1  20
ATOM     17  C   UNL     1      -4.684  -4.137   0.467  0.00  0.00    +0.109 C 
ATOM     18  C   UNL     1      -3.263  -3.639   0.531  0.00  0.00    +0.210 C 
ATOM     19  O   UNL     1      -2.397  -4.338   1.012  0.00  0.00    -0.276 OA
ATOM     20  N   UNL     1      -2.955  -2.416   0.055  0.00  0.00    -0.304 N 
ATOM     21  H   UNL     1      -3.649  -1.857  -0.329  0.00  0.00    +0.149 HD
ENDBRANCH   1  20
BRANCH   2  22
ATOM     22  O   UNL     1      -2.213   0.075   1.315  0.00  0.00    -0.387 OA
ATOM     23  H   UNL     1      -3.138  -0.194   1.396  0.00  0.00    +0.210 HD
ENDBRANCH   2  22
BRANCH  10  24
ATOM     24  O   UNL     1      -0.736  -3.867  -1.056  0.00  0.00    -0.462 OA
BRANCH  24  25
ATOM     25  C   UNL     1      -0.181  -4.493  -2.127  0.00  0.00    +0.124 A 
ATOM     26  C   UNL     1       0.287  -3.749  -3.200  0.00  0.00    +0.046 A 
ATOM     27  C   UNL     1       0.857  -4.387  -4.286  0.00  0.00    +0.008 A 
ATOM     28  C   UNL     1       0.951  -5.766  -4.307  0.00  0.00    -0.042 A 
ATOM     29  C   UNL     1       0.480  -6.510  -3.241  0.00  0.00    +0.008 A 
ATOM     30  C   UNL     1      -0.086  -5.876  -2.151  0.00  0.00    +0.046 A 
BRANCH  28  31
ATOM     31  C   UNL     1       1.567  -6.460  -5.495  0.00  0.00    -0.013 C 
ATOM     32  C   UNL     1       0.539  -7.401  -6.125  0.00  0.00    +0.015 C 
ATOM     33  C   UNL     1       2.002  -5.416  -6.525  0.00  0.00    +0.015 C 
ATOM     34  C   UNL     1       2.785  -7.266  -5.039  0.00  0.00    +0.015 C 
ENDBRANCH  28  31
ENDBRANCH  24  25
ENDBRANCH  10  24
TORSDOF 6
