REMARK  Name = ZINC36606432
REMARK  22 active torsions:
REMARK  status: ('A' for Active; 'I' for Inactive)
REMARK    1  A    between atoms: C_1  and  C_2
REMARK    2  A    between atoms: C_2  and  C_3
REMARK    3  A    between atoms: C_3  and  C_4
REMARK    4  A    between atoms: C_4  and  C_5
REMARK    5  A    between atoms: C_5  and  C_6
REMARK    6  A    between atoms: C_7  and  C_8
REMARK    7  A    between atoms: N_10  and  C_11
REMARK    8  A    between atoms: N_10  and  C_17
REMARK    9  A    between atoms: C_17  and  C_19
REMARK   10  A    between atoms: C_17  and  C_24
REMARK   11  A    between atoms: C_19  and  C_20
REMARK   12  A    between atoms: C_20  and  C_21
REMARK   13  A    between atoms: C_21  and  C_22
REMARK   14  A    between atoms: C_22  and  C_23
REMARK   15  A    between atoms: N_26  and  C_27
REMARK   16  A    between atoms: C_27  and  C_28
REMARK   17  A    between atoms: C_27  and  C_29
REMARK   18  A    between atoms: C_27  and  C_30
REMARK   19  A    between atoms: C_30  and  C_31
REMARK   20  A    between atoms: C_31  and  C_32
REMARK   21  A    between atoms: C_31  and  C_33
REMARK   22  A    between atoms: C_31  and  C_34
REMARK                            x       y       z     vdW  Elec       q    Type
REMARK                         _______ _______ _______ _____ _____    ______ ____
ROOT
ATOM      1  C   UNL     1       0.582  -1.467  -8.114  0.00  0.00    +0.167 C 
ENDROOT
BRANCH   1   2
ATOM      2  C   UNL     1       1.080  -2.795  -8.626  0.00  0.00    +0.234 C 
ATOM      3  O   UNL     1       1.837  -3.459  -7.951  0.00  0.00    -0.274 OA
ATOM      4  N   UNL     1       0.682  -3.244  -9.833  0.00  0.00    -0.309 N 
ATOM      5  H   UNL     1       0.076  -2.712 -10.372  0.00  0.00    +0.149 HD
BRANCH   4   6
ATOM      6  C   UNL     1       1.166  -4.534 -10.329  0.00  0.00    +0.030 C 
ATOM      7  C   UNL     1       2.665  -4.440 -10.621  0.00  0.00    +0.031 C 
ATOM      8  C   UNL     1       0.919  -5.613  -9.273  0.00  0.00    +0.031 C 
BRANCH   6   9
ATOM      9  C   UNL     1       0.418  -4.899 -11.614  0.00  0.00    +0.031 C 
BRANCH   9  10
ATOM     10  C   UNL     1      -1.047  -5.190 -11.286  0.00  0.00    -0.036 C 
ATOM     11  C   UNL     1      -1.533  -4.214 -10.213  0.00  0.00    +0.010 C 
ATOM     12  C   UNL     1      -1.895  -5.022 -12.549  0.00  0.00    +0.010 C 
ATOM     13  C   UNL     1      -1.179  -6.624 -10.770  0.00  0.00    +0.010 C 
ENDBRANCH   9  10
ENDBRANCH   6   9
ENDBRANCH   4   6
ENDBRANCH   1   2
BRANCH   1  16
ATOM     14  C   UNL     1       1.855  -0.079  -6.569  0.00  0.00    +0.244 C 
ATOM     15  O   UNL     1       2.091   0.681  -7.489  0.00  0.00    -0.270 OA
ATOM     16  N   UNL     1       1.154  -1.208  -6.791  0.00  0.00    -0.256 N 
BRANCH  16  17
ATOM     17  C   UNL     1       0.973  -2.133  -5.758  0.00  0.00    +0.037 A 
ATOM     18  C   UNL     1      -0.292  -2.344  -5.227  0.00  0.00    +0.023 A 
ATOM     19  C   UNL     1      -0.468  -3.258  -4.206  0.00  0.00    +0.002 A 
ATOM     20  C   UNL     1       0.615  -3.962  -3.713  0.00  0.00    +0.000 A 
ATOM     21  C   UNL     1       1.877  -3.754  -4.239  0.00  0.00    +0.002 A 
ATOM     22  C   UNL     1       2.058  -2.846  -5.264  0.00  0.00    +0.023 A 
ENDBRANCH  16  17
BRANCH  14  24
ATOM     23  C   UNL     1       2.926   1.402  -4.972  0.00  0.00    -0.022 C 
ATOM     24  C   UNL     1       2.335   0.235  -5.215  0.00  0.00    +0.063 C 
BRANCH  23  25
ATOM     25  C   UNL     1       2.745   2.551  -5.930  0.00  0.00    +0.027 C 
BRANCH  25  26
ATOM     26  C   UNL     1       2.377   3.814  -5.148  0.00  0.00    +0.004 C 
BRANCH  26  27
ATOM     27  C   UNL     1       2.194   4.981  -6.121  0.00  0.00    +0.000 C 
BRANCH  27  29
ATOM     28  C   UNL     1       1.642   7.410  -6.312  0.00  0.00    +0.004 C 
ATOM     29  C   UNL     1       1.825   6.243  -5.339  0.00  0.00    -0.003 C 
ENDBRANCH  27  29
ENDBRANCH  26  27
ENDBRANCH  25  26
ENDBRANCH  23  25
ENDBRANCH  14  24
ENDBRANCH   1  16
BRANCH   1  30
ATOM     30  C   UNL     1      -0.944  -1.499  -8.013  0.00  0.00    +0.032 C 
BRANCH  30  31
ATOM     31  C   UNL     1      -1.455  -0.123  -7.582  0.00  0.00    +0.002 C 
BRANCH  31  32
ATOM     32  C   UNL     1      -2.982  -0.155  -7.480  0.00  0.00    -0.000 C 
BRANCH  32  33
ATOM     33  C   UNL     1      -3.493   1.221  -7.049  0.00  0.00    -0.003 C 
ATOM     34  C   UNL     1      -5.019   1.189  -6.948  0.00  0.00    +0.004 C 
ENDBRANCH  32  33
ENDBRANCH  31  32
ENDBRANCH  30  31
ENDBRANCH   1  30
TORSDOF 15
