REMARK  Name = ZINC35705805
REMARK  10 active torsions:
REMARK  status: ('A' for Active; 'I' for Inactive)
REMARK    1  A    between atoms: C_7  and  C_11
REMARK    2  A    between atoms: C_11  and  C_12
REMARK    3  A    between atoms: C_12  and  N_13
REMARK    4  A    between atoms: N_13  and  C_14
REMARK    5  A    between atoms: N_13  and  C_24
REMARK    6  A    between atoms: C_14  and  C_15
REMARK    7  A    between atoms: C_24  and  C_25
REMARK    8  A    between atoms: C_27  and  C_30
REMARK    9  A    between atoms: N_32  and  C_33
REMARK   10  A    between atoms: C_33  and  C_34
REMARK                            x       y       z     vdW  Elec       q    Type
REMARK                         _______ _______ _______ _____ _____    ______ ____
ROOT
ATOM      1  N   UNL     1      -0.665  -4.942  -1.583  0.00  0.00    +0.388 N 
ATOM      2  H   UNL     1      -1.486  -4.794  -1.015  0.00  0.00    -0.081 HD
ENDROOT
BRANCH   1   3
ATOM      3  C   UNL     1       0.060  -3.674  -1.734  0.00  0.00    -0.073 C 
BRANCH   3   4
ATOM      4  C   UNL     1       0.343  -3.079  -0.353  0.00  0.00    +0.019 C 
BRANCH   4  11
ATOM      5  C   UNL     1      -0.995   1.348  -1.112  0.00  0.00    +0.001 A 
ATOM      6  C   UNL     1       0.073   2.232  -1.185  0.00  0.00    +0.002 A 
ATOM      7  C   UNL     1       1.367   1.782  -1.040  0.00  0.00    +0.026 A 
ATOM      8  C   UNL     1       1.608   0.430  -0.819  0.00  0.00    +0.047 A 
ATOM      9  C   UNL     1       0.522  -0.461  -0.745  0.00  0.00    +0.003 A 
ATOM     10  C   UNL     1      -0.781   0.017  -0.895  0.00  0.00    +0.010 A 
ATOM     11  C   UNL     1       1.100  -1.786  -0.508  0.00  0.00    -0.024 A 
ATOM     12  C   UNL     1       2.432  -1.629  -0.455  0.00  0.00    +0.087 A 
ATOM     13  N   UNL     1       2.755  -0.312  -0.638  0.00  0.00    -0.360 N 
ATOM     14  H   UNL     1       3.656   0.046  -0.641  0.00  0.00    +0.165 HD
ENDBRANCH   4  11
ENDBRANCH   3   4
ENDBRANCH   1   3
BRANCH   1  15
ATOM     15  C   UNL     1       0.207  -5.931  -0.935  0.00  0.00    -0.042 C 
BRANCH  15  16
ATOM     16  C   UNL     1       1.489  -6.058  -1.717  0.00  0.00    -0.060 A 
ATOM     17  C   UNL     1       1.562  -6.936  -2.783  0.00  0.00    +0.005 A 
ATOM     18  C   UNL     1       2.736  -7.056  -3.503  0.00  0.00    +0.050 A 
ATOM     19  C   UNL     1       3.843  -6.297  -3.158  0.00  0.00    +0.166 A 
ATOM     20  C   UNL     1       3.769  -5.414  -2.084  0.00  0.00    +0.166 A 
ATOM     21  C   UNL     1       2.588  -5.294  -1.370  0.00  0.00    +0.051 A 
ATOM     22  O   UNL     1       4.976  -4.791  -1.948  0.00  0.00    -0.453 OA
ATOM     23  C   UNL     1       5.911  -5.598  -2.689  0.00  0.00    +0.466 C 
ATOM     24  O   UNL     1       5.096  -6.228  -3.695  0.00  0.00    -0.453 OA
ENDBRANCH  15  16
ENDBRANCH   1  15
BRANCH   1  25
ATOM     25  C   UNL     1      -1.068  -5.437  -2.906  0.00  0.00    +0.019 C 
BRANCH  25  26
ATOM     26  C   UNL     1      -1.916  -6.672  -2.743  0.00  0.00    +0.179 A 
ATOM     27  N   UNL     1      -3.211  -6.685  -2.628  0.00  0.00    -0.210 NA
ATOM     28  C   UNL     1      -3.619  -7.977  -2.501  0.00  0.00    +0.163 A 
ATOM     29  C   UNL     1      -2.503  -8.755  -2.545  0.00  0.00    +0.230 A 
ATOM     30  O   UNL     1      -1.456  -7.930  -2.700  0.00  0.00    -0.449 OA
BRANCH  28  31
ATOM     31  C   UNL     1      -5.008  -8.445  -2.345  0.00  0.00    +0.266 C 
ATOM     32  O   UNL     1      -5.240  -9.635  -2.241  0.00  0.00    -0.268 OA
ATOM     33  N   UNL     1      -6.020  -7.556  -2.318  0.00  0.00    -0.310 N 
ATOM     34  H   UNL     1      -5.834  -6.607  -2.401  0.00  0.00    +0.149 HD
BRANCH  33  35
ATOM     35  C   UNL     1      -7.400  -8.021  -2.163  0.00  0.00    +0.108 C 
BRANCH  35  36
ATOM     36  C   UNL     1      -8.347  -6.819  -2.163  0.00  0.00    +0.006 C 
ATOM     37  C   UNL     1      -9.147  -6.550  -0.887  0.00  0.00    +0.005 C 
ATOM     38  C   UNL     1      -9.850  -7.104  -2.129  0.00  0.00    +0.005 C 
ENDBRANCH  35  36
ENDBRANCH  33  35
ENDBRANCH  28  31
ENDBRANCH  25  26
ENDBRANCH   1  25
TORSDOF 10
