REMARK  Name = ZINC38700480
REMARK  6 active torsions:
REMARK  status: ('A' for Active; 'I' for Inactive)
REMARK    1  A    between atoms: C_9  and  C_12
REMARK    2  A    between atoms: C_12  and  O_14
REMARK    3  A    between atoms: O_14  and  C_15
REMARK    4  A    between atoms: C_22  and  N_35
REMARK    5  A    between atoms: C_23  and  C_33
REMARK    6  A    between atoms: C_24  and  C_26
REMARK                            x       y       z     vdW  Elec       q    Type
REMARK                         _______ _______ _______ _____ _____    ______ ____
ROOT
ATOM      1  C   UNL     1       6.315  -4.532  -0.112  0.00  0.00    +0.135 A 
ATOM      2  C   UNL     1       7.293  -3.866   0.613  0.00  0.00    +0.047 A 
ATOM      3  C   UNL     1       8.490  -4.493   0.895  0.00  0.00    +0.012 A 
ATOM      4  C   UNL     1       8.721  -5.785   0.457  0.00  0.00    +0.008 A 
ATOM      5  C   UNL     1       7.747  -6.455  -0.267  0.00  0.00    +0.138 A 
ATOM      6  C   UNL     1       6.540  -5.828  -0.546  0.00  0.00    +0.093 A 
ATOM      7  O   UNL     1       7.955  -7.722  -0.705  0.00  0.00    -0.441 OA
ATOM      8  C   UNL     1       9.205  -8.206  -0.789  0.00  0.00    +0.199 C 
ATOM      9  C   UNL     1      10.236  -7.648  -0.112  0.00  0.00    +0.098 C 
ATOM     10  C   UNL     1      10.033  -6.452   0.775  0.00  0.00    +0.098 C 
ENDROOT
BRANCH  10  11
ATOM     11  C   UNL     1      10.033  -6.892   2.216  0.00  0.00    -0.032 A 
ATOM     12  C   UNL     1       9.086  -7.795   2.663  0.00  0.00    +0.005 A 
ATOM     13  C   UNL     1       9.085  -8.200   3.984  0.00  0.00    +0.003 A 
ATOM     14  C   UNL     1      10.030  -7.702   4.861  0.00  0.00    +0.038 A 
ATOM     15  C   UNL     1      10.979  -6.798   4.415  0.00  0.00    +0.124 A 
ATOM     16  C   UNL     1      10.983  -6.398   3.089  0.00  0.00    +0.043 A 
ATOM     17  F   UNL     1      11.903  -6.310   5.271  0.00  0.00    -0.205 F 
ENDBRANCH  10  11
BRANCH   8  18
ATOM     18  N   UNL     1       9.444  -9.299  -1.584  0.00  0.00    -0.328 N 
ATOM     19  H   UNL     1       8.716  -9.710  -2.075  0.00  0.00    +0.145 HD
ATOM     20  H   UNL     1      10.342  -9.660  -1.655  0.00  0.00    +0.145 HD
ENDBRANCH   8  18
BRANCH   9  21
ATOM     21  C   UNL     1      11.547  -8.210  -0.242  0.00  0.00    +0.101 C 
ATOM     22  N   UNL     1      12.587  -8.655  -0.346  0.00  0.00    -0.191 NA
ENDBRANCH   9  21
BRANCH   1  23
ATOM     23  O   UNL     1       5.135  -3.917  -0.390  0.00  0.00    -0.423 OA
BRANCH  23  24
ATOM     24  C   UNL     1       5.118  -3.004  -1.375  0.00  0.00    +0.357 C 
ATOM     25  O   UNL     1       6.147  -2.687  -1.923  0.00  0.00    -0.246 OA
BRANCH  24  34
ATOM     26  C   UNL     1       1.002   1.121  -3.893  0.00  0.00    +0.004 A 
ATOM     27  C   UNL     1       2.000   0.837  -4.806  0.00  0.00    +0.004 A 
ATOM     28  C   UNL     1       3.013  -0.043  -4.475  0.00  0.00    +0.049 A 
ATOM     29  C   UNL     1       3.030  -0.644  -3.225  0.00  0.00    +0.163 A 
ATOM     30  C   UNL     1       2.026  -0.360  -2.308  0.00  0.00    +0.162 A 
ATOM     31  C   UNL     1       1.013   0.526  -2.646  0.00  0.00    +0.049 A 
ATOM     32  O   UNL     1       2.019  -0.945  -1.079  0.00  0.00    -0.484 OA
ATOM     33  C   UNL     1       3.247  -1.538  -0.642  0.00  0.00    +0.285 C 
ATOM     34  C   UNL     1       3.815  -2.375  -1.796  0.00  0.00    +0.319 C 
ATOM     35  O   UNL     1       4.036  -1.507  -2.913  0.00  0.00    -0.470 OA
ENDBRANCH  24  34
ENDBRANCH  23  24
ENDBRANCH   1  23
TORSDOF 6
