REMARK  Name = ZINC02915242
REMARK  4 active torsions:
REMARK  status: ('A' for Active; 'I' for Inactive)
REMARK    1  A    between atoms: C_1  and  O_2
REMARK    2  A    between atoms: O_2  and  C_3
REMARK    3  A    between atoms: C_7  and  C_9
REMARK    4  A    between atoms: C_20  and  C_22
REMARK                            x       y       z     vdW  Elec       q    Type
REMARK                         _______ _______ _______ _____ _____    ______ ____
ROOT
ATOM      1  C   UNL     1       1.325  -4.106  -2.289  0.00  0.00    +0.159 C 
ATOM      2  C   UNL     1       2.668  -4.559  -1.760  0.00  0.00    +0.027 C 
ATOM      3  C   UNL     1       3.461  -5.281  -2.577  0.00  0.00    +0.083 C 
ATOM      4  C   UNL     1       4.772  -5.728  -2.041  0.00  0.00    +0.042 A 
ATOM      5  C   UNL     1       5.779  -6.188  -2.878  0.00  0.00    +0.013 A 
ATOM      6  C   UNL     1       6.985  -6.591  -2.337  0.00  0.00    +0.001 A 
ATOM      7  C   UNL     1       7.188  -6.536  -0.969  0.00  0.00    +0.004 A 
ATOM      8  C   UNL     1       6.189  -6.080  -0.129  0.00  0.00    +0.046 A 
ATOM      9  C   UNL     1       4.976  -5.674  -0.656  0.00  0.00    +0.131 A 
ATOM     10  O   UNL     1       3.977  -5.228   0.146  0.00  0.00    -0.479 OA
ATOM     11  C   UNL     1       3.117  -4.210  -0.371  0.00  0.00    +0.234 C 
ATOM     12  N   UNL     1       3.081  -5.593  -3.841  0.00  0.00    -0.213 NA
ATOM     13  C   UNL     1       1.936  -5.240  -4.377  0.00  0.00    +0.237 C 
ATOM     14  N   UNL     1       1.016  -4.501  -3.668  0.00  0.00    -0.208 N 
ATOM     15  N   UNL     1      -0.074  -4.301  -4.519  0.00  0.00    -0.251 N 
ATOM     16  C   UNL     1       0.236  -4.917  -5.693  0.00  0.00    +0.203 C 
ATOM     17  N   UNL     1       1.406  -5.464  -5.600  0.00  0.00    -0.205 NA
ATOM     18  H   UNL     1      -0.889  -3.818  -4.314  0.00  0.00    +0.171 HD
ENDROOT
BRANCH  11  19
ATOM     19  C   UNL     1       3.860  -2.899  -0.401  0.00  0.00    -0.003 A 
ATOM     20  C   UNL     1       5.181  -2.863  -0.808  0.00  0.00    +0.009 A 
ATOM     21  C   UNL     1       5.862  -1.661  -0.836  0.00  0.00    +0.020 A 
ATOM     22  C   UNL     1       5.222  -0.494  -0.457  0.00  0.00    +0.041 A 
ATOM     23  C   UNL     1       3.901  -0.531  -0.050  0.00  0.00    +0.020 A 
ATOM     24  C   UNL     1       3.218  -1.733  -0.028  0.00  0.00    +0.009 A 
ATOM     25 CL   UNL     1       6.078   1.016  -0.491  0.00  0.00    -0.084 Cl
ENDBRANCH  11  19
BRANCH   1  30
ATOM     26  C   UNL     1       0.606  -0.607  -1.056  0.00  0.00    +0.120 A 
ATOM     27  C   UNL     1       1.173   0.161  -2.063  0.00  0.00    +0.045 A 
ATOM     28  C   UNL     1       1.786  -0.455  -3.136  0.00  0.00    +0.004 A 
ATOM     29  C   UNL     1       1.836  -1.835  -3.208  0.00  0.00    +0.006 A 
ATOM     30  C   UNL     1       1.271  -2.602  -2.207  0.00  0.00    -0.018 A 
ATOM     31  C   UNL     1       0.661  -1.991  -1.128  0.00  0.00    +0.051 A 
BRANCH  26  33
ATOM     32  C   UNL     1      -0.017   1.425   0.010  0.00  0.00    +0.277 C 
ATOM     33  O   UNL     1       0.002  -0.004   0.002  0.00  0.00    -0.495 OA
ENDBRANCH  26  33
ENDBRANCH   1  30
TORSDOF 3
