REMARK  Name = ZINC23369522
REMARK  9 active torsions:
REMARK  status: ('A' for Active; 'I' for Inactive)
REMARK    1  A    between atoms: C_3  and  C_6
REMARK    2  A    between atoms: C_6  and  N_7
REMARK    3  A    between atoms: C_8  and  C_28
REMARK    4  A    between atoms: C_11  and  S_12
REMARK    5  A    between atoms: S_12  and  C_13
REMARK    6  A    between atoms: C_13  and  C_14
REMARK    7  A    between atoms: C_20  and  C_23
REMARK    8  A    between atoms: C_28  and  C_29
REMARK    9  A    between atoms: C_29  and  C_30
REMARK                            x       y       z     vdW  Elec       q    Type
REMARK                         _______ _______ _______ _____ _____    ______ ____
ROOT
ATOM      1  N   UNL     1      -0.066   1.111  -4.071  0.00  0.00    -0.299 N 
ATOM      2  C   UNL     1       0.958   0.414  -4.651  0.00  0.00    +0.135 A 
ATOM      3  N   UNL     1       1.683  -0.084  -3.689  0.00  0.00    -0.133 NA
ATOM      4  N   UNL     1       1.194   0.253  -2.549  0.00  0.00    -0.122 NA
ATOM      5  C   UNL     1       0.122   0.990  -2.724  0.00  0.00    +0.192 A 
ENDROOT
BRANCH   1   6
ATOM      6  C   UNL     1      -1.139   1.839  -4.752  0.00  0.00    +0.199 C 
BRANCH   6   9
ATOM      7  C   UNL     1       0.145   5.100  -5.891  0.00  0.00    +0.041 A 
ATOM      8  C   UNL     1      -0.059   3.714  -6.082  0.00  0.00    +0.046 A 
ATOM      9  C   UNL     1      -0.706   3.262  -4.993  0.00  0.00    +0.125 A 
ATOM     10  O   UNL     1      -0.897   4.293  -4.154  0.00  0.00    -0.466 OA
ATOM     11  C   UNL     1      -0.382   5.410  -4.694  0.00  0.00    +0.195 A 
ENDBRANCH   6   9
ENDBRANCH   1   6
BRANCH   5  12
ATOM     12  S   UNL     1      -0.888   1.685  -1.458  0.00  0.00    -0.077 S 
BRANCH  12  13
ATOM     13  C   UNL     1      -0.013   1.086   0.008  0.00  0.00    +0.173 C 
BRANCH  13  14
ATOM     14  C   UNL     1      -0.718   1.572   1.248  0.00  0.00    +0.229 C 
ATOM     15  O   UNL     1      -1.714   2.256   1.150  0.00  0.00    -0.275 OA
ATOM     16  N   UNL     1      -0.242   1.246   2.466  0.00  0.00    -0.269 N 
ATOM     17  C   UNL     1      -0.894   1.696   3.613  0.00  0.00    +0.143 A 
ATOM     18  C   UNL     1      -0.400   1.351   4.867  0.00  0.00    +0.082 A 
ATOM     19  C   UNL     1      -1.056   1.809   5.998  0.00  0.00    +0.037 A 
ATOM     20  C   UNL     1      -2.192   2.589   5.834  0.00  0.00    +0.074 A 
ATOM     21  C   UNL     1      -2.629   2.888   4.559  0.00  0.00    +0.125 A 
ATOM     22  N   UNL     1      -1.981   2.442   3.499  0.00  0.00    -0.238 NA
ATOM     23 CL   UNL     1       1.022   0.365   5.013  0.00  0.00    -0.080 Cl
ATOM     24  H   UNL     1       0.662   0.625   2.555  0.00  0.00    +0.156 HD
BRANCH  20  25
ATOM     25  C   UNL     1      -2.941   3.106   7.035  0.00  0.00    +0.419 C 
ATOM     26  F   UNL     1      -4.040   3.860   6.611  0.00  0.00    -0.166 F 
ATOM     27  F   UNL     1      -3.386   2.026   7.807  0.00  0.00    -0.166 F 
ATOM     28  F   UNL     1      -2.092   3.909   7.804  0.00  0.00    -0.166 F 
ENDBRANCH  20  25
ENDBRANCH  13  14
ENDBRANCH  12  13
ENDBRANCH   5  12
BRANCH   2  29
ATOM     29  C   UNL     1       1.199   0.247  -6.129  0.00  0.00    +0.085 C 
BRANCH  29  30
ATOM     30  C   UNL     1       0.464  -0.999  -6.628  0.00  0.00    +0.103 C 
BRANCH  30  31
ATOM     31  C   UNL     1       0.705  -1.165  -8.107  0.00  0.00    +0.211 C 
ATOM     32  O   UNL     1       1.397  -0.367  -8.702  0.00  0.00    -0.276 OA
ATOM     33  N   UNL     1       0.152  -2.202  -8.767  0.00  0.00    -0.329 N 
ATOM     34  H   UNL     1       0.328  -2.324  -9.846  0.00  0.00    +0.145 HD
ATOM     35  H   UNL     1      -0.475  -2.927  -8.226  0.00  0.00    +0.145 HD
ENDBRANCH  30  31
ENDBRANCH  29  30
ENDBRANCH   2  29
TORSDOF 9
