REMARK  Name = ZINC66201547
REMARK  17 active torsions:
REMARK  status: ('A' for Active; 'I' for Inactive)
REMARK    1  A    between atoms: C_1  and  C_2
REMARK    2  A    between atoms: C_2  and  O_3
REMARK    3  A    between atoms: O_3  and  C_4
REMARK    4  A    between atoms: C_4  and  C_6
REMARK    5  A    between atoms: C_10  and  N_11
REMARK    6  A    between atoms: N_11  and  C_12
REMARK    7  A    between atoms: C_12  and  N_14
REMARK    8  A    between atoms: C_15  and  C_17
REMARK    9  A    between atoms: C_17  and  C_18
REMARK   10  A    between atoms: C_17  and  C_19
REMARK   11  A    between atoms: C_17  and  C_20
REMARK   12  A    between atoms: C_20  and  C_21
REMARK   13  A    between atoms: C_21  and  C_22
REMARK   14  A    between atoms: C_22  and  O_23
REMARK   15  A    between atoms: O_23  and  C_24
REMARK   16  A    between atoms: C_26  and  C_31
REMARK   17  A    between atoms: C_29  and  C_30
REMARK                            x       y       z     vdW  Elec       q    Type
REMARK                         _______ _______ _______ _____ _____    ______ ____
ROOT
ATOM      1  N   UNL     1      -3.361  -2.686   4.803  0.00  0.00    -0.267 N 
ATOM      2  C   UNL     1      -4.136  -3.030   5.851  0.00  0.00    +0.224 C 
ATOM      3  O   UNL     1      -5.237  -3.501   5.662  0.00  0.00    -0.275 OA
ATOM      4  H   UNL     1      -2.480  -2.309   4.955  0.00  0.00    +0.157 HD
ENDROOT
BRANCH   2   5
ATOM      5  C   UNL     1      -3.634  -2.828   7.258  0.00  0.00    +0.042 C 
ATOM      6  C   UNL     1      -2.354  -3.640   7.464  0.00  0.00    +0.020 C 
ATOM      7  C   UNL     1      -3.340  -1.344   7.487  0.00  0.00    +0.020 C 
BRANCH   5   8
ATOM      8  C   UNL     1      -4.700  -3.296   8.251  0.00  0.00    +0.019 C 
BRANCH   8   9
ATOM      9  C   UNL     1      -4.191  -3.091   9.679  0.00  0.00    +0.042 C 
BRANCH   9  10
ATOM     10  C   UNL     1      -5.256  -3.559  10.673  0.00  0.00    +0.229 C 
BRANCH  10  11
ATOM     11  O   UNL     1      -4.781  -3.368  12.007  0.00  0.00    -0.492 OA
BRANCH  11  12
ATOM     12  C   UNL     1      -5.612  -3.735  13.017  0.00  0.00    +0.124 A 
ATOM     13  C   UNL     1      -6.858  -4.274  12.730  0.00  0.00    +0.049 A 
ATOM     14  C   UNL     1      -7.701  -4.647  13.758  0.00  0.00    -0.047 A 
ATOM     15  C   UNL     1      -7.305  -4.484  15.073  0.00  0.00    +0.004 A 
ATOM     16  C   UNL     1      -6.064  -3.947  15.361  0.00  0.00    +0.007 A 
ATOM     17  C   UNL     1      -5.215  -3.577  14.336  0.00  0.00    -0.009 A 
ATOM     18  C   UNL     1      -3.860  -2.998  14.651  0.00  0.00    +0.047 C 
ATOM     19  C   UNL     1      -9.055  -5.232  13.447  0.00  0.00    +0.044 C 
ENDBRANCH  11  12
ENDBRANCH  10  11
ENDBRANCH   9  10
ENDBRANCH   8   9
ENDBRANCH   5   8
ENDBRANCH   2   5
BRANCH   1  20
ATOM     20  C   UNL     1      -3.809  -2.867   3.545  0.00  0.00    +0.141 C 
ATOM     21  S   UNL     1      -5.364  -3.532   3.278  0.00  0.00    -0.018 S 
BRANCH  20  22
ATOM     22  N   UNL     1      -3.034  -2.523   2.498  0.00  0.00    -0.290 N 
ATOM     23  H   UNL     1      -2.153  -2.146   2.649  0.00  0.00    +0.154 HD
BRANCH  22  28
ATOM     24  C   UNL     1      -2.842  -2.416   0.016  0.00  0.00    +0.091 A 
ATOM     25  C   UNL     1      -3.548  -2.714  -1.219  0.00  0.00    -0.021 A 
ATOM     26  C   UNL     1      -4.777  -3.242  -1.039  0.00  0.00    -0.004 A 
ATOM     27  S   UNL     1      -4.974  -3.335   0.716  0.00  0.00    -0.077 S 
ATOM     28  C   UNL     1      -3.495  -2.708   1.205  0.00  0.00    +0.086 A 
ATOM     29  C   UNL     1      -5.745  -3.651  -2.106  0.00  0.00    +0.043 C 
ATOM     30  C   UNL     1      -5.287  -3.033  -3.436  0.00  0.00    +0.005 C 
ATOM     31  C   UNL     1      -3.790  -3.300  -3.616  0.00  0.00    +0.005 C 
ATOM     32  C   UNL     1      -2.988  -2.468  -2.612  0.00  0.00    +0.037 C 
BRANCH  24  33
ATOM     33  C   UNL     1      -1.497  -1.838   0.006  0.00  0.00    +0.342 C 
ATOM     34  O   UNL     1      -0.522  -2.566  -0.007  0.00  0.00    -0.245 OA
BRANCH  33  35
ATOM     35  O   UNL     1      -1.339  -0.499   0.012  0.00  0.00    -0.461 OA
BRANCH  35  37
ATOM     36  C   UNL     1      -0.019   1.526   0.010  0.00  0.00    +0.048 C 
ATOM     37  C   UNL     1       0.002  -0.004   0.002  0.00  0.00    +0.229 C 
ENDBRANCH  35  37
ENDBRANCH  33  35
ENDBRANCH  24  33
ENDBRANCH  22  28
ENDBRANCH  20  22
ENDBRANCH   1  20
TORSDOF 12
