REMARK  Name = ZINC66667013
REMARK  13 active torsions:
REMARK  status: ('A' for Active; 'I' for Inactive)
REMARK    1  A    between atoms: C_1  and  C_2
REMARK    2  A    between atoms: C_2  and  C_4
REMARK    3  A    between atoms: C_2  and  N_14
REMARK    4  A    between atoms: N_6  and  C_7
REMARK    5  A    between atoms: N_6  and  C_8
REMARK    6  A    between atoms: C_17  and  C_20
REMARK    7  A    between atoms: C_17  and  N_21
REMARK    8  A    between atoms: N_21  and  C_22
REMARK    9  A    between atoms: C_23  and  O_25
REMARK   10  A    between atoms: O_25  and  C_26
REMARK   11  A    between atoms: C_26  and  C_27
REMARK   12  A    between atoms: C_26  and  C_28
REMARK   13  A    between atoms: C_26  and  C_29
REMARK                            x       y       z     vdW  Elec       q    Type
REMARK                         _______ _______ _______ _____ _____    ______ ____
ROOT
ATOM      1  N   UNL     1      -0.701  -1.029   0.684  0.00  0.00    +0.387 N 
ATOM      2  C   UNL     1      -0.420  -2.462   0.533  0.00  0.00    -0.076 C 
ATOM      3  C   UNL     1      -1.718  -3.258   0.680  0.00  0.00    +0.007 C 
ATOM      4  C   UNL     1      -2.708  -2.814  -0.400  0.00  0.00    +0.034 C 
ATOM      5  C   UNL     1      -2.937  -1.304  -0.280  0.00  0.00    +0.007 C 
ATOM      6  C   UNL     1      -1.593  -0.580  -0.391  0.00  0.00    -0.076 C 
ATOM      7  C   UNL     1      -4.037  -3.549  -0.210  0.00  0.00    +0.032 C 
ATOM      8  H   UNL     1      -1.143  -0.868   1.577  0.00  0.00    -0.081 HD
ENDROOT
BRANCH   4   9
ATOM      9  N   UNL     1      -2.161  -3.122  -1.723  0.00  0.00    -0.265 N 
ATOM     10  C   UNL     1      -2.076  -2.075  -2.744  0.00  0.00    +0.136 C 
ATOM     11  C   UNL     1      -1.735  -4.370  -2.002  0.00  0.00    +0.404 C 
ATOM     12  O   UNL     1      -1.805  -5.239  -1.156  0.00  0.00    -0.226 OA
BRANCH  11  13
ATOM     13  O   UNL     1      -1.232  -4.654  -3.218  0.00  0.00    -0.445 OA
BRANCH  13  14
ATOM     14  C   UNL     1      -0.800  -5.997  -3.445  0.00  0.00    +0.107 C 
ATOM     15  C   UNL     1      -1.980  -6.952  -3.255  0.00  0.00    +0.055 C 
ATOM     16  C   UNL     1      -0.263  -6.127  -4.871  0.00  0.00    +0.055 C 
ATOM     17  C   UNL     1       0.307  -6.351  -2.449  0.00  0.00    +0.055 C 
ENDBRANCH  13  14
ENDBRANCH  11  13
ENDBRANCH   4   9
BRANCH   1  19
ATOM     18  C   UNL     1       0.259   1.224   0.673  0.00  0.00    -0.004 C 
ATOM     19  C   UNL     1       0.559  -0.276   0.620  0.00  0.00    +0.017 C 
BRANCH  19  20
ATOM     20  C   UNL     1       1.431  -0.655   1.789  0.00  0.00    +0.206 C 
ATOM     21  O   UNL     1       0.948  -1.215   2.750  0.00  0.00    -0.277 OA
ATOM     22  N   UNL     1       2.749  -0.371   1.766  0.00  0.00    -0.276 N 
ATOM     23  C   UNL     1       3.311   0.410   0.661  0.00  0.00    +0.138 C 
BRANCH  22  24
ATOM     24  C   UNL     1       3.579  -0.822   2.798  0.00  0.00    +0.036 A 
ATOM     25  C   UNL     1       3.659  -2.178   3.084  0.00  0.00    +0.023 A 
ATOM     26  C   UNL     1       4.480  -2.620   4.104  0.00  0.00    +0.002 A 
ATOM     27  C   UNL     1       5.221  -1.713   4.839  0.00  0.00    +0.000 A 
ATOM     28  C   UNL     1       5.143  -0.362   4.556  0.00  0.00    +0.002 A 
ATOM     29  C   UNL     1       4.329   0.086   3.534  0.00  0.00    +0.023 A 
ENDBRANCH  22  24
ENDBRANCH  19  20
ENDBRANCH   1  19
TORSDOF 6
