REMARK  Name = ZINC56064873
REMARK  5 active torsions:
REMARK  status: ('A' for Active; 'I' for Inactive)
REMARK    1  A    between atoms: C_1  and  C_2
REMARK    2  A    between atoms: C_12  and  C_15
REMARK    3  A    between atoms: C_15  and  N_16
REMARK    4  A    between atoms: N_16  and  S_17
REMARK    5  A    between atoms: S_17  and  C_20
REMARK                            x       y       z     vdW  Elec       q    Type
REMARK                         _______ _______ _______ _____ _____    ______ ____
ROOT
ATOM      1  C   UNL     1       3.274  -2.149   1.783  0.00  0.00    +0.039 C 
ATOM      2  C   UNL     1       2.763  -1.746   0.398  0.00  0.00    +0.132 C 
ATOM      3  C   UNL     1       1.461  -2.497   0.095  0.00  0.00    +0.137 C 
ATOM      4  N   UNL     1       0.894  -1.957  -1.151  0.00  0.00    -0.312 N 
ATOM      5  C   UNL     1       0.744  -0.498  -1.267  0.00  0.00    +0.134 C 
ATOM      6  C   UNL     1       2.080   0.156  -0.897  0.00  0.00    +0.179 C 
ATOM      7  O   UNL     1       2.512  -0.339   0.373  0.00  0.00    -0.374 OA
ATOM      8  C   UNL     1       0.510  -2.800  -2.187  0.00  0.00    +0.099 A 
ATOM      9  C   UNL     1      -0.134  -2.274  -3.302  0.00  0.00    +0.042 A 
ATOM     10  C   UNL     1      -0.510  -3.124  -4.326  0.00  0.00    +0.009 A 
ATOM     11  C   UNL     1      -0.228  -4.478  -4.200  0.00  0.00    -0.016 A 
ATOM     12  C   UNL     1       0.415  -4.933  -3.066  0.00  0.00    +0.089 A 
ATOM     13  N   UNL     1       0.767  -4.097  -2.107  0.00  0.00    -0.349 N 
ATOM     14  H   UNL     1       1.221  -4.442  -1.322  0.00  0.00    +0.167 HD
ENDROOT
BRANCH  11  15
ATOM     15  C   UNL     1      -0.619  -5.442  -5.290  0.00  0.00    +0.142 C 
BRANCH  15  16
ATOM     16  N   UNL     1       0.475  -5.557  -6.257  0.00  0.00    -0.186 NA
ATOM     17  H   UNL     1       1.191  -4.902  -6.259  0.00  0.00    +0.148 HD
BRANCH  16  18
ATOM     18  S   UNL     1       0.490  -6.803  -7.347  0.00  0.00    +0.061 S 
ATOM     19  O   UNL     1       1.647  -6.625  -8.152  0.00  0.00    -0.153 OA
ATOM     20  O   UNL     1       0.253  -7.993  -6.607  0.00  0.00    -0.153 OA
BRANCH  18  21
ATOM     21  C   UNL     1      -0.900  -6.584  -8.408  0.00  0.00    +0.140 A 
ATOM     22  C   UNL     1      -0.709  -6.326  -9.753  0.00  0.00    +0.034 A 
ATOM     23  C   UNL     1      -1.798  -6.155 -10.586  0.00  0.00    +0.040 A 
ATOM     24  C   UNL     1      -3.082  -6.240 -10.074  0.00  0.00    +0.126 A 
ATOM     25  C   UNL     1      -3.274  -6.499  -8.728  0.00  0.00    +0.078 A 
ATOM     26  C   UNL     1      -2.183  -6.676  -7.896  0.00  0.00    +0.152 A 
ATOM     27  F   UNL     1      -2.369  -6.934  -6.583  0.00  0.00    -0.203 F 
ATOM     28  F   UNL     1      -4.146  -6.072 -10.889  0.00  0.00    -0.205 F 
ENDBRANCH  18  21
ENDBRANCH  16  18
ENDBRANCH  15  16
ENDBRANCH  11  15
TORSDOF 4
