REMARK  Name = ZINC53473296
REMARK  6 active torsions:
REMARK  status: ('A' for Active; 'I' for Inactive)
REMARK    1  A    between atoms: C_4  and  C_7
REMARK    2  A    between atoms: C_7  and  N_11
REMARK    3  A    between atoms: C_12  and  C_14
REMARK    4  A    between atoms: C_14  and  O_15
REMARK    5  A    between atoms: O_15  and  C_16
REMARK    6  A    between atoms: C_21  and  C_22
REMARK                            x       y       z     vdW  Elec       q    Type
REMARK                         _______ _______ _______ _____ _____    ______ ____
ROOT
ATOM      1  N   UNL     1       4.818   0.081  -0.586  0.00  0.00    -0.303 N 
ATOM      2  C   UNL     1       5.112   1.287  -0.060  0.00  0.00    +0.251 C 
ATOM      3  O   UNL     1       4.521   1.680   0.924  0.00  0.00    -0.272 OA
ATOM      4  H   UNL     1       5.340  -0.265  -1.326  0.00  0.00    +0.150 HD
ENDROOT
BRANCH   1   5
ATOM      5  C   UNL     1       3.709  -0.706  -0.040  0.00  0.00    +0.060 C 
ATOM      6  C   UNL     1       3.937  -1.172   1.408  0.00  0.00    +0.030 C 
ATOM      7  C   UNL     1       4.605  -2.425   0.816  0.00  0.00    +0.005 C 
ATOM      8  C   UNL     1       3.751  -2.190  -0.441  0.00  0.00    +0.030 C 
BRANCH   5  12
ATOM      9  C   UNL     1      -0.096   1.132  -0.664  0.00  0.00    +0.000 A 
ATOM     10  C   UNL     1       0.002  -0.007   0.114  0.00  0.00    +0.000 A 
ATOM     11  C   UNL     1       1.234  -0.602   0.316  0.00  0.00    +0.006 A 
ATOM     12  C   UNL     1       2.367  -0.058  -0.260  0.00  0.00    -0.024 A 
ATOM     13  C   UNL     1       2.268   1.080  -1.039  0.00  0.00    +0.006 A 
ATOM     14  C   UNL     1       1.037   1.676  -1.240  0.00  0.00    +0.000 A 
ENDBRANCH   5  12
ENDBRANCH   1   5
BRANCH   2  15
ATOM     15  C   UNL     1       6.174   2.147  -0.694  0.00  0.00    +0.324 C 
BRANCH  15  16
ATOM     16  O   UNL     1       6.301   3.366   0.040  0.00  0.00    -0.482 OA
BRANCH  16  17
ATOM     17  C   UNL     1       7.222   4.259  -0.402  0.00  0.00    +0.133 A 
ATOM     18  C   UNL     1       7.987   3.973  -1.524  0.00  0.00    +0.046 A 
ATOM     19  C   UNL     1       8.924   4.881  -1.972  0.00  0.00    +0.004 A 
ATOM     20  C   UNL     1       9.108   6.084  -1.309  0.00  0.00    +0.001 A 
ATOM     21  C   UNL     1       8.357   6.384  -0.194  0.00  0.00    +0.017 A 
ATOM     22  C   UNL     1       7.401   5.476   0.268  0.00  0.00    +0.078 A 
BRANCH  22  23
ATOM     23  C   UNL     1       6.590   5.794   1.458  0.00  0.00    +0.245 C 
ATOM     24  O   UNL     1       5.762   4.999   1.861  0.00  0.00    -0.270 OA
ATOM     25  N   UNL     1       6.765   6.966   2.100  0.00  0.00    -0.325 N 
ATOM     26  H   UNL     1       7.425   7.601   1.780  0.00  0.00    +0.145 HD
ATOM     27  H   UNL     1       6.231   7.175   2.883  0.00  0.00    +0.145 HD
ENDBRANCH  22  23
ENDBRANCH  16  17
ENDBRANCH  15  16
ENDBRANCH   2  15
TORSDOF 6
