REMARK  Name = ZINC38752146
REMARK  9 active torsions:
REMARK  status: ('A' for Active; 'I' for Inactive)
REMARK    1  A    between atoms: C_7  and  C_10
REMARK    2  A    between atoms: C_10  and  C_11
REMARK    3  A    between atoms: C_11  and  C_13
REMARK    4  A    between atoms: C_11  and  N_30
REMARK    5  A    between atoms: N_15  and  C_16
REMARK    6  A    between atoms: C_16  and  C_17
REMARK    7  A    between atoms: C_17  and  C_19
REMARK    8  A    between atoms: C_17  and  N_25
REMARK    9  A    between atoms: C_31  and  C_33
REMARK                            x       y       z     vdW  Elec       q    Type
REMARK                         _______ _______ _______ _____ _____    ______ ____
ROOT
ATOM      1  C   UNL     1      -4.588   3.696  -2.482  0.00  0.00    +0.163 C 
ENDROOT
BRANCH   1   2
ATOM      2  C   UNL     1      -5.233   5.050  -2.340  0.00  0.00    +0.234 C 
ATOM      3  O   UNL     1      -4.603   6.053  -2.602  0.00  0.00    -0.274 OA
ATOM      4  N   UNL     1      -6.510   5.148  -1.920  0.00  0.00    -0.315 N 
ATOM      5  H   UNL     1      -7.014   4.346  -1.710  0.00  0.00    +0.149 HD
BRANCH   4   6
ATOM      6  C   UNL     1      -7.137   6.465  -1.782  0.00  0.00    +0.090 C 
BRANCH   6   7
ATOM      7  C   UNL     1      -8.589   6.293  -1.330  0.00  0.00    -0.037 C 
BRANCH   7   8
ATOM      8  N   UNL     1      -8.616   5.757   0.037  0.00  0.00    +0.383 N 
ATOM      9  C   UNL     1     -10.016   5.665   0.524  0.00  0.00    -0.078 C 
ATOM     10  C   UNL     1      -9.929   4.611   1.657  0.00  0.00    -0.020 C 
ATOM     11  C   UNL     1      -8.902   3.595   1.106  0.00  0.00    -0.020 C 
ATOM     12  C   UNL     1      -8.091   4.374   0.053  0.00  0.00    -0.078 C 
ATOM     13  H   UNL     1      -8.071   6.342   0.652  0.00  0.00    -0.081 HD
ENDBRANCH   7   8
BRANCH   7  14
ATOM     14  C   UNL     1      -9.296   7.650  -1.359  0.00  0.00    +0.042 C 
ATOM     15  C   UNL     1     -10.837   7.490  -1.284  0.00  0.00    +0.040 C 
ATOM     16  C   UNL     1     -11.516   8.481  -2.174  0.00  0.00    -0.019 C 
ATOM     17  C   UNL     1     -10.836   9.074  -3.135  0.00  0.00    +0.036 C 
ATOM     18  S   UNL     1      -9.171   8.441  -3.019  0.00  0.00    -0.131 S 
ENDBRANCH   7  14
ENDBRANCH   6   7
ENDBRANCH   4   6
ENDBRANCH   1   2
BRANCH   1  19
ATOM     19  N   UNL     1      -3.428   3.798  -3.371  0.00  0.00    -0.299 N 
ATOM     20  C   UNL     1      -2.404   4.614  -3.052  0.00  0.00    +0.251 C 
ATOM     21  O   UNL     1      -2.443   5.266  -2.025  0.00  0.00    -0.270 OA
ATOM     22  H   UNL     1      -3.397   3.279  -4.189  0.00  0.00    +0.150 HD
BRANCH  20  23
ATOM     23  C   UNL     1      -1.244   4.717  -3.941  0.00  0.00    +0.074 A 
ATOM     24  C   UNL     1      -0.097   5.483  -3.797  0.00  0.00    +0.021 A 
ATOM     25  C   UNL     1       0.828   5.369  -4.808  0.00  0.00    +0.008 A 
ATOM     26  C   UNL     1       0.568   4.540  -5.848  0.00  0.00    +0.046 A 
ATOM     27  S   UNL     1      -0.935   3.883  -5.487  0.00  0.00    -0.092 S 
ENDBRANCH  20  23
ENDBRANCH   1  19
BRANCH   1  28
ATOM     28  C   UNL     1      -4.135   3.200  -1.107  0.00  0.00    +0.069 C 
BRANCH  28  35
ATOM     29  C   UNL     1       0.063   1.451  -2.247  0.00  0.00    +0.001 A 
ATOM     30  C   UNL     1       0.093   0.064  -2.230  0.00  0.00    +0.002 A 
ATOM     31  C   UNL     1      -1.033  -0.660  -1.903  0.00  0.00    +0.026 A 
ATOM     32  C   UNL     1      -2.213   0.004  -1.586  0.00  0.00    +0.047 A 
ATOM     33  N   UNL     1      -3.473  -0.420  -1.228  0.00  0.00    -0.360 N 
ATOM     34  C   UNL     1      -4.286   0.660  -1.020  0.00  0.00    +0.087 A 
ATOM     35  C   UNL     1      -3.602   1.796  -1.231  0.00  0.00    -0.020 A 
ATOM     36  C   UNL     1      -2.238   1.411  -1.604  0.00  0.00    +0.003 A 
ATOM     37  C   UNL     1      -1.084   2.124  -1.933  0.00  0.00    +0.010 A 
ATOM     38  H   UNL     1      -3.744  -1.347  -1.136  0.00  0.00    +0.165 HD
ENDBRANCH  28  35
ENDBRANCH   1  28
TORSDOF 9
