REMARK  Name = ZINC24013586
REMARK  14 active torsions:
REMARK  status: ('A' for Active; 'I' for Inactive)
REMARK    1  A    between atoms: C_1  and  C_2
REMARK    2  A    between atoms: C_2  and  C_3
REMARK    3  A    between atoms: C_3  and  C_4
REMARK    4  A    between atoms: C_4  and  C_5
REMARK    5  A    between atoms: C_5  and  C_6
REMARK    6  A    between atoms: C_6  and  N_7
REMARK    7  A    between atoms: C_17  and  S_18
REMARK    8  A    between atoms: S_18  and  C_19
REMARK    9  A    between atoms: C_19  and  C_20
REMARK   10  A    between atoms: C_21  and  C_33
REMARK   11  A    between atoms: C_22  and  C_28
REMARK   12  A    between atoms: C_33  and  O_35
REMARK   13  A    between atoms: O_35  and  C_36
REMARK   14  A    between atoms: C_36  and  C_37
REMARK                            x       y       z     vdW  Elec       q    Type
REMARK                         _______ _______ _______ _____ _____    ______ ____
ROOT
ATOM      1  C   UNL     1       2.120   6.104  -0.021  0.00  0.00    +0.128 C 
ENDROOT
BRANCH   1   2
ATOM      2  C   UNL     1       2.277   7.603   0.005  0.00  0.00    +0.034 C 
ATOM      3  C   UNL     1       2.495   8.227   1.183  0.00  0.00    +0.082 C 
ATOM      4  C   UNL     1       2.652   9.734   1.163  0.00  0.00    +0.179 C 
ATOM      5  N   UNL     1       2.545  10.399  -0.146  0.00  0.00    -0.285 N 
ATOM      6  C   UNL     1       2.320   9.638  -1.235  0.00  0.00    +0.304 C 
ATOM      7  O   UNL     1       2.229  10.178  -2.321  0.00  0.00    -0.252 OA
ATOM      8  N   UNL     1       2.192   8.307  -1.161  0.00  0.00    -0.272 N 
ATOM      9  H   UNL     1       2.648  11.492  -0.218  0.00  0.00    +0.151 HD
ATOM     10  H   UNL     1       2.010   7.781  -2.110  0.00  0.00    +0.156 HD
BRANCH   4  11
ATOM     11  C   UNL     1       4.000  10.071   1.747  0.00  0.00    +0.130 A 
ATOM     12  C   UNL     1       4.250  10.355   3.037  0.00  0.00    +0.047 A 
ATOM     13  C   UNL     1       5.637  10.610   3.140  0.00  0.00    +0.041 A 
ATOM     14  C   UNL     1       6.152  10.466   1.905  0.00  0.00    +0.195 A 
ATOM     15  O   UNL     1       5.157  10.134   1.067  0.00  0.00    -0.466 OA
ENDBRANCH   4  11
BRANCH   3  16
ATOM     16  C   UNL     1       2.577   7.498   2.393  0.00  0.00    +0.339 C 
ATOM     17  O   UNL     1       1.622   7.460   3.146  0.00  0.00    -0.245 OA
BRANCH  16  18
ATOM     18  O   UNL     1       3.715   6.846   2.711  0.00  0.00    -0.462 OA
BRANCH  18  19
ATOM     19  C   UNL     1       3.728   6.130   3.948  0.00  0.00    +0.229 C 
ATOM     20  C   UNL     1       5.090   5.460   4.136  0.00  0.00    +0.048 C 
ENDBRANCH  18  19
ENDBRANCH  16  18
ENDBRANCH   3  16
ENDBRANCH   1   2
BRANCH   1  21
ATOM     21  S   UNL     1       0.374   5.685  -0.247  0.00  0.00    -0.082 S 
BRANCH  21  32
ATOM     22  N   UNL     1      -0.672   3.205  -0.391  0.00  0.00    -0.287 N 
ATOM     23  C   UNL     1      -0.639   1.852  -0.387  0.00  0.00    +0.262 A 
ATOM     24  O   UNL     1      -1.656   1.195  -0.516  0.00  0.00    -0.267 OA
ATOM     25  C   UNL     1       0.671   1.206  -0.228  0.00  0.00    +0.065 A 
ATOM     26  C   UNL     1       0.811  -0.181  -0.215  0.00  0.00    +0.015 A 
ATOM     27  C   UNL     1       2.054  -0.731  -0.058  0.00  0.00    +0.001 A 
ATOM     28  C   UNL     1       3.174   0.077   0.089  0.00  0.00    +0.002 A 
ATOM     29  C   UNL     1       3.065   1.439   0.081  0.00  0.00    +0.028 A 
ATOM     30  C   UNL     1       1.809   2.031  -0.078  0.00  0.00    +0.079 A 
ATOM     31  N   UNL     1       1.656   3.370  -0.092  0.00  0.00    -0.223 NA
ATOM     32  C   UNL     1       0.478   3.926  -0.241  0.00  0.00    +0.172 A 
BRANCH  22  33
ATOM     33  C   UNL     1      -1.951   3.901  -0.552  0.00  0.00    +0.127 C 
BRANCH  33  34
ATOM     34  C   UNL     1      -2.213   4.149  -2.039  0.00  0.00    +0.022 C 
BRANCH  34  35
ATOM     35  C   UNL     1      -3.549   4.875  -2.207  0.00  0.00    +0.002 C 
BRANCH  35  36
ATOM     36  C   UNL     1      -3.811   5.123  -3.694  0.00  0.00    -0.000 C 
BRANCH  36  38
ATOM     37  C   UNL     1      -5.409   6.098  -5.349  0.00  0.00    +0.004 C 
ATOM     38  C   UNL     1      -5.147   5.850  -3.862  0.00  0.00    -0.003 C 
ENDBRANCH  36  38
ENDBRANCH  35  36
ENDBRANCH  34  35
ENDBRANCH  33  34
ENDBRANCH  22  33
ENDBRANCH  21  32
ENDBRANCH   1  21
TORSDOF 12
