REMARK  Name = ZINC00140314
REMARK  8 active torsions:
REMARK  status: ('A' for Active; 'I' for Inactive)
REMARK    1  A    between atoms: C_1  and  C_2
REMARK    2  A    between atoms: C_3  and  C_12
REMARK    3  A    between atoms: C_12  and  C_13
REMARK    4  A    between atoms: C_13  and  N_14
REMARK    5  A    between atoms: C_18  and  C_22
REMARK    6  A    between atoms: C_18  and  C_23
REMARK    7  A    between atoms: C_19  and  C_20
REMARK    8  A    between atoms: C_19  and  O_21
REMARK                            x       y       z     vdW  Elec       q    Type
REMARK                         _______ _______ _______ _____ _____    ______ ____
ROOT
ATOM      1  C   UNL     1      -3.211   0.934   0.568  0.00  0.00    +0.056 C 
ENDROOT
BRANCH   1   4
ATOM      2  C   UNL     1      -6.109  -0.170   0.433  0.00  0.00    +0.063 C 
ATOM      3  C   UNL     1      -5.548   0.681   1.543  0.00  0.00    +0.017 A 
ATOM      4  C   UNL     1      -4.293   1.155   1.593  0.00  0.00    -0.018 A 
ATOM      5  C   UNL     1      -4.178   1.932   2.829  0.00  0.00    +0.003 A 
ATOM      6  C   UNL     1      -3.145   2.658   3.426  0.00  0.00    +0.010 A 
ATOM      7  C   UNL     1      -3.361   3.290   4.618  0.00  0.00    +0.001 A 
ATOM      8  C   UNL     1      -4.600   3.216   5.241  0.00  0.00    +0.002 A 
ATOM      9  C   UNL     1      -5.632   2.505   4.670  0.00  0.00    +0.026 A 
ATOM     10  C   UNL     1      -5.434   1.854   3.457  0.00  0.00    +0.047 A 
ATOM     11  N   UNL     1      -6.243   1.084   2.651  0.00  0.00    -0.358 N 
ATOM     12  H   UNL     1      -7.169   0.863   2.839  0.00  0.00    +0.166 HD
ENDBRANCH   1   4
BRANCH   1  13
ATOM     13  C   UNL     1      -2.419  -0.325   0.926  0.00  0.00    +0.119 C 
BRANCH  13  14
ATOM     14  N   UNL     1      -1.366  -0.539  -0.070  0.00  0.00    -0.235 N 
ATOM     15  C   UNL     1      -1.493  -1.255  -1.196  0.00  0.00    +0.406 C 
ATOM     16  O   UNL     1      -2.524  -1.814  -1.514  0.00  0.00    -0.226 OA
ATOM     17  O   UNL     1      -0.381  -1.297  -1.939  0.00  0.00    -0.440 OA
ATOM     18  C   UNL     1       0.673  -0.529  -1.282  0.00  0.00    +0.155 C 
ATOM     19  C   UNL     1       0.002  -0.004   0.002  0.00  0.00    +0.174 C 
ATOM     20  C   UNL     1      -0.019   1.526   0.010  0.00  0.00    +0.068 C 
ATOM     21  C   UNL     1       1.122   0.635  -2.167  0.00  0.00    +0.060 C 
ATOM     22  C   UNL     1       1.861  -1.430  -0.936  0.00  0.00    +0.060 C 
BRANCH  19  23
ATOM     23  O   UNL     1       0.675  -0.502   1.160  0.00  0.00    -0.368 OA
ATOM     24  H   UNL     1       0.274  -0.227   1.996  0.00  0.00    +0.212 HD
ENDBRANCH  19  23
ENDBRANCH  13  14
ENDBRANCH   1  13
TORSDOF 4
