REMARK  Name = ZINC20513145
REMARK  2 active torsions:
REMARK  status: ('A' for Active; 'I' for Inactive)
REMARK    1  A    between atoms: C_8  and  C_17
REMARK    2  A    between atoms: N_19  and  C_20
REMARK                            x       y       z     vdW  Elec       q    Type
REMARK                         _______ _______ _______ _____ _____    ______ ____
ROOT
ATOM      1  C   UNL     1      -2.459   6.322   2.006  0.00  0.00    +0.000 A 
ATOM      2  C   UNL     1      -3.363   5.729   2.869  0.00  0.00    +0.002 A 
ATOM      3  C   UNL     1      -3.450   4.354   2.948  0.00  0.00    +0.023 A 
ATOM      4  C   UNL     1      -2.633   3.553   2.154  0.00  0.00    +0.036 A 
ATOM      5  C   UNL     1      -1.723   4.161   1.295  0.00  0.00    -0.027 A 
ATOM      6  C   UNL     1      -1.639   5.534   1.219  0.00  0.00    +0.004 A 
ATOM      7  C   UNL     1      -0.997   3.042   0.598  0.00  0.00    +0.052 C 
ATOM      8  C   UNL     1       0.509   3.103   0.894  0.00  0.00    +0.076 C 
ATOM      9  C   UNL     1       1.143   2.646  -0.448  0.00  0.00    -0.003 C 
ATOM     10  C   UNL     1       0.162   3.250  -1.481  0.00  0.00    -0.066 C 
ATOM     11  N   UNL     1      -1.180   3.111  -0.857  0.00  0.00    +0.394 N 
ATOM     12  C   UNL     1      -1.729   1.826  -1.356  0.00  0.00    -0.077 C 
ATOM     13  C   UNL     1      -1.248   1.767  -2.826  0.00  0.00    -0.020 C 
ATOM     14  C   UNL     1       0.168   2.383  -2.750  0.00  0.00    -0.017 C 
ATOM     15  C   UNL     1      -1.601   1.782   1.165  0.00  0.00    +0.212 C 
ATOM     16  O   UNL     1      -1.303   0.643   0.872  0.00  0.00    -0.277 OA
ATOM     17  N   UNL     1      -2.532   2.164   2.058  0.00  0.00    -0.286 N 
ATOM     18  H   UNL     1      -3.176   1.522   2.677  0.00  0.00    +0.155 HD
ATOM     19  H   UNL     1      -1.853   3.951  -1.085  0.00  0.00    -0.079 HD
ENDROOT
BRANCH   8  20
ATOM     20  C   UNL     1       0.873   2.156   2.009  0.00  0.00    +0.220 C 
ATOM     21  O   UNL     1       1.308   1.054   1.751  0.00  0.00    -0.275 OA
ATOM     22  N   UNL     1       0.714   2.534   3.293  0.00  0.00    -0.281 N 
ATOM     23  H   UNL     1       0.248   3.503   3.527  0.00  0.00    +0.155 HD
BRANCH  22  24
ATOM     24  C   UNL     1       1.141   1.693   4.330  0.00  0.00    +0.111 A 
ATOM     25  C   UNL     1       0.209   0.992   5.086  0.00  0.00    +0.185 A 
ATOM     26  C   UNL     1       0.634   0.157   6.106  0.00  0.00    +0.198 A 
ATOM     27  C   UNL     1       1.986   0.029   6.381  0.00  0.00    +0.199 A 
ATOM     28  C   UNL     1       2.917   0.732   5.632  0.00  0.00    +0.198 A 
ATOM     29  C   UNL     1       2.497   1.564   4.607  0.00  0.00    +0.185 A 
ATOM     30  F   UNL     1       3.404   2.249   3.878  0.00  0.00    -0.200 F 
ATOM     31  F   UNL     1       4.235   0.606   5.902  0.00  0.00    -0.199 F 
ATOM     32  F   UNL     1       2.398  -0.782   7.380  0.00  0.00    -0.199 F 
ATOM     33  F   UNL     1      -0.271  -0.529   6.838  0.00  0.00    -0.199 F 
ATOM     34  F   UNL     1      -1.109   1.120   4.822  0.00  0.00    -0.200 F 
ENDBRANCH  22  24
ENDBRANCH   8  20
TORSDOF 2
