REMARK  Name = ZINC64591098
REMARK  8 active torsions:
REMARK  status: ('A' for Active; 'I' for Inactive)
REMARK    1  A    between atoms: C_1  and  C_2
REMARK    2  A    between atoms: C_2  and  C_3
REMARK    3  A    between atoms: C_2  and  N_19
REMARK    4  A    between atoms: C_3  and  N_4
REMARK    5  A    between atoms: C_5  and  C_7
REMARK    6  A    between atoms: N_9  and  C_10
REMARK    7  A    between atoms: N_9  and  C_11
REMARK    8  A    between atoms: C_15  and  C_17
REMARK                            x       y       z     vdW  Elec       q    Type
REMARK                         _______ _______ _______ _____ _____    ______ ____
ROOT
ATOM      1  N   UNL     1      -0.315  -1.496   2.154  0.00  0.00    -0.309 N 
ATOM      2  C   UNL     1       0.618  -2.060   2.947  0.00  0.00    +0.299 C 
ATOM      3  O   UNL     1       1.424  -1.362   3.527  0.00  0.00    -0.265 OA
ATOM      4  H   UNL     1      -0.959  -2.054   1.690  0.00  0.00    +0.149 HD
ENDROOT
BRANCH   2   5
ATOM      5  C   UNL     1       0.660  -3.543   3.112  0.00  0.00    +0.305 C 
ATOM      6  O   UNL     1      -0.094  -4.247   2.472  0.00  0.00    -0.265 OA
ATOM      7  N   UNL     1       1.535  -4.101   3.972  0.00  0.00    -0.267 N 
ATOM      8  C   UNL     1       2.363  -3.250   4.830  0.00  0.00    +0.139 C 
BRANCH   7   9
ATOM      9  C   UNL     1       1.652  -5.492   4.046  0.00  0.00    +0.038 A 
ATOM     10  C   UNL     1       1.083  -6.291   3.060  0.00  0.00    +0.023 A 
ATOM     11  C   UNL     1       1.197  -7.667   3.128  0.00  0.00    +0.003 A 
ATOM     12  C   UNL     1       1.875  -8.257   4.175  0.00  0.00    +0.019 A 
ATOM     13  C   UNL     1       2.450  -7.464   5.170  0.00  0.00    +0.054 A 
ATOM     14  C   UNL     1       2.341  -6.075   5.098  0.00  0.00    +0.042 A 
BRANCH  13  15
ATOM     15  C   UNL     1       3.154  -8.074   6.258  0.00  0.00    +0.099 C 
ATOM     16  N   UNL     1       3.712  -8.559   7.121  0.00  0.00    -0.191 NA
ENDBRANCH  13  15
ENDBRANCH   7   9
ENDBRANCH   2   5
BRANCH   1  17
ATOM     17  C   UNL     1      -0.356  -0.041   1.992  0.00  0.00    +0.089 C 
BRANCH  17  19
ATOM     18  C   UNL     1      -1.498   1.850   0.824  0.00  0.00    -0.012 C 
ATOM     19  C   UNL     1      -1.419   0.327   0.955  0.00  0.00    -0.054 C 
BRANCH  19  20
ATOM     20  N   UNL     1      -2.723  -0.195   1.385  0.00  0.00    +0.385 N 
ATOM     21  C   UNL     1      -3.755   0.200   0.414  0.00  0.00    -0.073 C 
ATOM     22  C   UNL     1      -5.028  -0.598   0.704  0.00  0.00    +0.017 C 
ATOM     23  C   UNL     1      -5.381  -0.482   2.164  0.00  0.00    -0.048 A 
ATOM     24  C   UNL     1      -6.660  -0.831   2.569  0.00  0.00    +0.004 A 
ATOM     25  C   UNL     1      -7.019  -0.740   3.899  0.00  0.00    +0.000 A 
ATOM     26  C   UNL     1      -6.098  -0.300   4.831  0.00  0.00    +0.000 A 
ATOM     27  C   UNL     1      -4.824   0.049   4.429  0.00  0.00    +0.002 A 
ATOM     28  C   UNL     1      -4.463  -0.040   3.093  0.00  0.00    -0.061 A 
ATOM     29  C   UNL     1      -3.066   0.359   2.697  0.00  0.00    -0.042 C 
ATOM     30  H   UNL     1      -2.681  -1.202   1.444  0.00  0.00    -0.081 HD
ENDBRANCH  19  20
ENDBRANCH  17  19
ENDBRANCH   1  17
TORSDOF 6
