REMARK  Name = ZINC09305731
REMARK  8 active torsions:
REMARK  status: ('A' for Active; 'I' for Inactive)
REMARK    1  A    between atoms: C_4  and  N_28
REMARK    2  A    between atoms: C_6  and  C_7
REMARK    3  A    between atoms: N_8  and  N_9
REMARK    4  A    between atoms: C_10  and  C_12
REMARK    5  A    between atoms: C_12  and  N_13
REMARK    6  A    between atoms: C_14  and  C_16
REMARK    7  A    between atoms: C_16  and  O_17
REMARK    8  A    between atoms: O_17  and  C_18
REMARK                            x       y       z     vdW  Elec       q    Type
REMARK                         _______ _______ _______ _____ _____    ______ ____
ROOT
ATOM      1  C   UNL     1      -1.214   3.626   0.028  0.00  0.00    +0.202 C 
ENDROOT
BRANCH   1   3
ATOM      2  N   UNL     1      -2.906   5.430   0.045  0.00  0.00    -0.206 N 
ATOM      3  C   UNL     1      -2.642   4.109   0.037  0.00  0.00    +0.249 C 
ATOM      4  O   UNL     1      -3.553   3.308   0.037  0.00  0.00    -0.272 OA
ATOM      5  H   UNL     1      -2.178   6.070   0.045  0.00  0.00    +0.177 HD
BRANCH   2   7
ATOM      6  C   UNL     1      -4.488   7.152   0.062  0.00  0.00    +0.138 C 
ATOM      7  N   UNL     1      -4.233   5.879   0.054  0.00  0.00    -0.188 NA
BRANCH   6  13
ATOM      8  C   UNL     1      -6.936   6.705   0.066  0.00  0.00    +0.011 A 
ATOM      9  C   UNL     1      -8.240   7.154   0.080  0.00  0.00    +0.018 A 
ATOM     10  C   UNL     1      -8.508   8.512   0.089  0.00  0.00    +0.048 A 
ATOM     11  C   UNL     1      -7.470   9.429   0.089  0.00  0.00    +0.141 A 
ATOM     12  C   UNL     1      -6.162   8.993   0.080  0.00  0.00    +0.043 A 
ATOM     13  C   UNL     1      -5.885   7.624   0.071  0.00  0.00    -0.003 A 
ATOM     14 BR   UNL     1     -10.300   9.118   0.101  0.00  0.00    -0.048 Br
BRANCH  11  15
ATOM     15  N   UNL     1      -7.766  10.879   0.099  0.00  0.00    +0.058 N 
ATOM     16  O   UNL     1      -6.854  11.686   0.099  0.00  0.00    -0.126 OA
ATOM     17  O   UNL     1      -8.921  11.265   0.106  0.00  0.00    -0.126 OA
ENDBRANCH  11  15
ENDBRANCH   6  13
ENDBRANCH   2   7
ENDBRANCH   1   3
BRANCH   1  18
ATOM     18  N   UNL     1      -1.195   2.161   0.019  0.00  0.00    -0.304 N 
ATOM     19  C   UNL     1      -0.018   1.503   0.010  0.00  0.00    +0.251 C 
ATOM     20  O   UNL     1       1.024   2.123   0.004  0.00  0.00    -0.272 OA
ATOM     21  H   UNL     1      -2.028   1.664   0.021  0.00  0.00    +0.149 HD
BRANCH  19  22
ATOM     22  C   UNL     1       0.002  -0.004   0.002  0.00  0.00    +0.324 C 
BRANCH  22  23
ATOM     23  O   UNL     1       1.356  -0.462  -0.013  0.00  0.00    -0.483 OA
BRANCH  23  24
ATOM     24  C   UNL     1       1.552  -1.807  -0.022  0.00  0.00    +0.121 A 
ATOM     25  C   UNL     1       0.466  -2.670  -0.011  0.00  0.00    +0.046 A 
ATOM     26  C   UNL     1       0.676  -4.032  -0.024  0.00  0.00    +0.007 A 
ATOM     27  C   UNL     1       1.966  -4.550  -0.036  0.00  0.00    -0.044 A 
ATOM     28  C   UNL     1       3.045  -3.695  -0.045  0.00  0.00    -0.041 A 
ATOM     29  C   UNL     1       2.837  -2.322  -0.037  0.00  0.00    +0.049 A 
ATOM     30  C   UNL     1       4.469  -4.187  -0.068  0.00  0.00    +0.035 C 
ATOM     31  C   UNL     1       4.538  -5.652   0.356  0.00  0.00    +0.005 C 
ATOM     32  C   UNL     1       3.525  -6.445  -0.479  0.00  0.00    +0.005 C 
ATOM     33  C   UNL     1       2.119  -6.048  -0.035  0.00  0.00    +0.035 C 
ENDBRANCH  23  24
ENDBRANCH  22  23
ENDBRANCH  19  22
ENDBRANCH   1  18
TORSDOF 8
