REMARK  Name = ZINC36207582
REMARK  15 active torsions:
REMARK  status: ('A' for Active; 'I' for Inactive)
REMARK    1  A    between atoms: C_1  and  C_2
REMARK    2  A    between atoms: C_7  and  O_8
REMARK    3  A    between atoms: O_8  and  C_9
REMARK    4  A    between atoms: C_9  and  C_10
REMARK    5  A    between atoms: C_10  and  C_12
REMARK    6  A    between atoms: C_10  and  O_37
REMARK    7  A    between atoms: C_12  and  N_13
REMARK    8  A    between atoms: N_13  and  C_14
REMARK    9  A    between atoms: N_13  and  C_34
REMARK   10  A    between atoms: C_14  and  C_15
REMARK   11  A    between atoms: C_21  and  C_26
REMARK   12  A    between atoms: C_29  and  C_33
REMARK   13  A    between atoms: C_30  and  C_32
REMARK   14  A    between atoms: C_34  and  C_35
REMARK   15  A    between atoms: C_34  and  C_36
REMARK                            x       y       z     vdW  Elec       q    Type
REMARK                         _______ _______ _______ _____ _____    ______ ____
ROOT
ATOM      1  C   UNL     1       0.995  -0.190   8.075  0.00  0.00    -0.003 C 
ENDROOT
BRANCH   1   2
ATOM      2  C   UNL     1       1.834   0.876   8.730  0.00  0.00    +0.094 A 
ATOM      3  N   UNL     1       2.806   0.516   9.607  0.00  0.00    -0.312 N 
ATOM      4  H   UNL     1       2.948  -0.424   9.800  0.00  0.00    +0.170 HD
ATOM      5  C   UNL     1       3.578   1.437  10.213  0.00  0.00    +0.260 A 
ATOM      6  O   UNL     1       4.447   1.097  10.997  0.00  0.00    -0.267 OA
ATOM      7  C   UNL     1       3.363   2.822   9.922  0.00  0.00    +0.080 A 
ATOM      8  C   UNL     1       4.058   3.993  10.443  0.00  0.00    +0.004 A 
ATOM      9  C   UNL     1       3.675   5.221  10.017  0.00  0.00    +0.056 A 
ATOM     10  S   UNL     1       2.346   4.869   8.882  0.00  0.00    -0.076 S 
ATOM     11  C   UNL     1       2.336   3.099   9.005  0.00  0.00    +0.116 A 
ATOM     12  N   UNL     1       1.617   2.131   8.441  0.00  0.00    -0.229 NA
BRANCH   8  13
ATOM     13  C   UNL     1       5.163   3.843  11.420  0.00  0.00    -0.016 A 
ATOM     14  C   UNL     1       4.992   3.049  12.553  0.00  0.00    +0.009 A 
ATOM     15  C   UNL     1       6.024   2.913  13.459  0.00  0.00    +0.004 A 
ATOM     16  C   UNL     1       7.226   3.562  13.244  0.00  0.00    -0.048 A 
ATOM     17  C   UNL     1       7.402   4.350  12.121  0.00  0.00    -0.047 A 
ATOM     18  C   UNL     1       6.379   4.490  11.206  0.00  0.00    +0.012 A 
ATOM     19  C   UNL     1       8.716   5.054  11.894  0.00  0.00    +0.044 C 
ATOM     20  C   UNL     1       8.350   3.409  14.237  0.00  0.00    +0.044 C 
ENDBRANCH   8  13
ENDBRANCH   1   2
BRANCH   1  21
ATOM     21  N   UNL     1      -0.091   0.440   7.314  0.00  0.00    +0.388 N 
ATOM     22  H   UNL     1       0.250   1.282   6.874  0.00  0.00    -0.081 HD
BRANCH  21  23
ATOM     23  C   UNL     1      -1.195   0.776   8.223  0.00  0.00    -0.074 C 
ATOM     24  C   UNL     1      -1.712  -0.499   8.892  0.00  0.00    -0.014 C 
ATOM     25  C   UNL     1      -0.696   1.748   9.294  0.00  0.00    -0.014 C 
ENDBRANCH  21  23
BRANCH  21  26
ATOM     26  C   UNL     1      -0.572  -0.491   6.284  0.00  0.00    -0.043 C 
BRANCH  26  27
ATOM     27  C   UNL     1      -1.586   0.221   5.386  0.00  0.00    +0.135 C 
BRANCH  27  28
ATOM     28  O   UNL     1      -2.777   0.487   6.129  0.00  0.00    -0.390 OA
ATOM     29  H   UNL     1      -3.170  -0.298   6.535  0.00  0.00    +0.210 HD
ENDBRANCH  27  28
BRANCH  27  30
ATOM     30  C   UNL     1      -1.920  -0.670   4.188  0.00  0.00    +0.258 C 
BRANCH  30  31
ATOM     31  O   UNL     1      -2.776   0.040   3.290  0.00  0.00    -0.489 OA
BRANCH  31  38
ATOM     32  C   UNL     1      -4.468   1.426   1.503  0.00  0.00    +0.047 C 
ATOM     33  C   UNL     1      -4.001   0.016   1.251  0.00  0.00    -0.009 A 
ATOM     34  C   UNL     1      -4.395  -0.649   0.106  0.00  0.00    +0.007 A 
ATOM     35  C   UNL     1      -3.966  -1.943  -0.126  0.00  0.00    +0.000 A 
ATOM     36  C   UNL     1      -3.143  -2.575   0.788  0.00  0.00    +0.004 A 
ATOM     37  C   UNL     1      -2.745  -1.914   1.934  0.00  0.00    +0.046 A 
ATOM     38  C   UNL     1      -3.170  -0.614   2.166  0.00  0.00    +0.124 A 
ENDBRANCH  31  38
ENDBRANCH  30  31
ENDBRANCH  27  30
ENDBRANCH  26  27
ENDBRANCH  21  26
ENDBRANCH   1  21
TORSDOF 10
