REMARK  Name = ZINC09168752
REMARK  7 active torsions:
REMARK  status: ('A' for Active; 'I' for Inactive)
REMARK    1  A    between atoms: C_1  and  C_2
REMARK    2  A    between atoms: C_2  and  O_3
REMARK    3  A    between atoms: O_3  and  C_4
REMARK    4  A    between atoms: C_11  and  C_13
REMARK    5  A    between atoms: C_19  and  C_21
REMARK    6  A    between atoms: C_25  and  S_27
REMARK    7  A    between atoms: S_27  and  C_28
REMARK                            x       y       z     vdW  Elec       q    Type
REMARK                         _______ _______ _______ _____ _____    ______ ____
ROOT
ATOM      1  C   UNL     1       1.743   3.250   0.002  0.00  0.00    +0.285 A 
ATOM      2  N   UNL     1       0.982   4.321   0.015  0.00  0.00    -0.103 NA
ATOM      3  N   UNL     1       1.724   5.371   0.013  0.00  0.00    -0.092 NA
ATOM      4  C   UNL     1       2.987   5.014  -0.001  0.00  0.00    +0.315 A 
ATOM      5  O   UNL     1       3.028   3.669  -0.002  0.00  0.00    -0.402 OA
ATOM      6  N   UNL     1       4.078   5.866  -0.007  0.00  0.00    -0.234 N 
ATOM      7  C   UNL     1       3.891   7.201   0.002  0.00  0.00    +0.252 C 
ATOM      8  O   UNL     1       2.764   7.657   0.015  0.00  0.00    -0.270 OA
ATOM      9  H   UNL     1       4.977   5.503  -0.017  0.00  0.00    +0.160 HD
ENDROOT
BRANCH   1  17
ATOM     10  C   UNL     1       1.702  -1.717  -0.023  0.00  0.00    +0.163 A 
ATOM     11  C   UNL     1       0.707  -2.678  -0.018  0.00  0.00    +0.049 A 
ATOM     12  C   UNL     1      -0.631  -2.311  -0.003  0.00  0.00    +0.004 A 
ATOM     13  C   UNL     1      -0.987  -0.991   0.007  0.00  0.00    +0.012 A 
ATOM     14  C   UNL     1       0.002  -0.004   0.002  0.00  0.00    +0.025 A 
ATOM     15  C   UNL     1       1.360  -0.366  -0.013  0.00  0.00    +0.177 A 
ATOM     16  O   UNL     1       2.086   0.771  -0.014  0.00  0.00    -0.446 OA
ATOM     17  C   UNL     1       1.282   1.853  -0.000  0.00  0.00    +0.192 A 
ATOM     18  C   UNL     1      -0.018   1.460   0.010  0.00  0.00    +0.063 A 
BRANCH  10  19
ATOM     19  O   UNL     1       3.010  -2.089  -0.037  0.00  0.00    -0.489 OA
BRANCH  19  21
ATOM     20  C   UNL     1       4.799  -3.714  -0.062  0.00  0.00    +0.048 C 
ATOM     21  C   UNL     1       3.285  -3.491  -0.047  0.00  0.00    +0.226 C 
ENDBRANCH  19  21
ENDBRANCH  10  19
ENDBRANCH   1  17
BRANCH   7  22
ATOM     22  C   UNL     1       5.056   8.111  -0.004  0.00  0.00    +0.038 A 
ATOM     23  C   UNL     1       6.352   7.590  -0.019  0.00  0.00    +0.013 A 
ATOM     24  C   UNL     1       7.438   8.441  -0.025  0.00  0.00    +0.002 A 
ATOM     25  C   UNL     1       7.249   9.810  -0.016  0.00  0.00    +0.015 A 
ATOM     26  C   UNL     1       5.964  10.339  -0.002  0.00  0.00    +0.008 A 
ATOM     27  C   UNL     1       4.865   9.492  -0.001  0.00  0.00    +0.027 A 
BRANCH  26  28
ATOM     28  S   UNL     1       5.730  12.086   0.008  0.00  0.00    -0.129 S 
ATOM     29  C   UNL     1       7.416  12.754  -0.004  0.00  0.00    +0.090 C 
ENDBRANCH  26  28
ENDBRANCH   7  22
TORSDOF 5
