REMARK  Name = ZINC32981958
REMARK  10 active torsions:
REMARK  status: ('A' for Active; 'I' for Inactive)
REMARK    1  A    between atoms: C_1  and  O_2
REMARK    2  A    between atoms: O_2  and  C_3
REMARK    3  A    between atoms: C_3  and  C_4
REMARK    4  A    between atoms: C_4  and  N_5
REMARK    5  A    between atoms: N_5  and  C_6
REMARK    6  A    between atoms: C_7  and  N_22
REMARK    7  A    between atoms: N_8  and  C_15
REMARK    8  A    between atoms: C_15  and  C_16
REMARK    9  A    between atoms: C_23  and  C_25
REMARK   10  A    between atoms: C_27  and  C_35
REMARK                            x       y       z     vdW  Elec       q    Type
REMARK                         _______ _______ _______ _____ _____    ______ ____
ROOT
ATOM      1  N   UNL     1      -2.447   6.490  -4.060  0.00  0.00    -0.258 N 
ATOM      2  C   UNL     1      -1.780   7.450  -3.389  0.00  0.00    +0.252 C 
ATOM      3  O   UNL     1      -1.515   8.502  -3.938  0.00  0.00    -0.270 OA
ENDROOT
BRANCH   2   4
ATOM      4  C   UNL     1      -1.372   7.225  -1.986  0.00  0.00    +0.049 A 
ATOM      5  C   UNL     1      -0.810   6.023  -1.584  0.00  0.00    +0.045 A 
ATOM      6  C   UNL     1      -0.431   5.854  -0.241  0.00  0.00    +0.107 A 
ATOM      7  N   UNL     1      -0.603   6.800   0.663  0.00  0.00    -0.244 NA
ATOM      8  C   UNL     1      -1.141   7.983   0.363  0.00  0.00    +0.073 A 
ATOM      9  C   UNL     1      -1.552   8.259  -0.966  0.00  0.00    +0.013 A 
ATOM     10  C   UNL     1      -2.115   9.501  -1.276  0.00  0.00    +0.011 A 
ATOM     11  C   UNL     1      -2.264  10.437  -0.295  0.00  0.00    +0.001 A 
ATOM     12  C   UNL     1      -1.862  10.172   1.012  0.00  0.00    +0.002 A 
ATOM     13  C   UNL     1      -1.311   8.974   1.348  0.00  0.00    +0.028 A 
BRANCH   6  14
ATOM     14  C   UNL     1       0.172   4.573   0.174  0.00  0.00    +0.153 A 
ATOM     15  C   UNL     1       0.590   4.256   1.431  0.00  0.00    +0.051 A 
ATOM     16  C   UNL     1       1.093   2.943   1.371  0.00  0.00    +0.042 A 
ATOM     17  C   UNL     1       0.968   2.529   0.093  0.00  0.00    +0.196 A 
ATOM     18  O   UNL     1       0.412   3.516  -0.626  0.00  0.00    -0.461 OA
ENDBRANCH   6  14
ENDBRANCH   2   4
BRANCH   1  19
ATOM     19  C   UNL     1      -2.853   5.317  -3.393  0.00  0.00    +0.140 A 
ATOM     20  C   UNL     1      -2.315   4.093  -3.735  0.00  0.00    +0.128 A 
ATOM     21  N   UNL     1      -2.735   2.965  -3.070  0.00  0.00    -0.276 N 
ATOM     22  C   UNL     1      -3.651   3.055  -2.088  0.00  0.00    +0.331 A 
ATOM     23  O   UNL     1      -4.006   2.046  -1.509  0.00  0.00    -0.246 OA
ATOM     24  N   UNL     1      -4.182   4.239  -1.737  0.00  0.00    -0.273 N 
ATOM     25  H   UNL     1      -4.930   4.290  -0.932  0.00  0.00    +0.173 HD
ATOM     26  C   UNL     1      -3.810   5.374  -2.361  0.00  0.00    +0.277 A 
ATOM     27  O   UNL     1      -4.298   6.442  -2.035  0.00  0.00    -0.266 OA
BRANCH  20  28
ATOM     28  N   UNL     1      -1.375   4.001  -4.734  0.00  0.00    -0.343 N 
ATOM     29  H   UNL     1      -0.951   3.022  -5.002  0.00  0.00    +0.144 HD
ATOM     30  H   UNL     1      -1.048   4.907  -5.265  0.00  0.00    +0.144 HD
ENDBRANCH  20  28
BRANCH  21  31
ATOM     31  C   UNL     1      -2.177   1.658  -3.427  0.00  0.00    +0.163 C 
BRANCH  31  32
ATOM     32  C   UNL     1      -3.025   1.028  -4.502  0.00  0.00    -0.028 A 
ATOM     33  C   UNL     1      -4.095   0.224  -4.156  0.00  0.00    +0.005 A 
ATOM     34  C   UNL     1      -4.869  -0.359  -5.143  0.00  0.00    +0.000 A 
ATOM     35  C   UNL     1      -4.579  -0.129  -6.475  0.00  0.00    +0.000 A 
ATOM     36  C   UNL     1      -3.512   0.679  -6.820  0.00  0.00    +0.000 A 
ATOM     37  C   UNL     1      -2.735   1.257  -5.834  0.00  0.00    +0.005 A 
ENDBRANCH  31  32
ENDBRANCH  21  31
ENDBRANCH   1  19
BRANCH   1  38
ATOM     38  C   UNL     1      -2.750   6.666  -5.482  0.00  0.00    +0.142 C 
BRANCH  38  39
ATOM     39  C   UNL     1      -4.162   7.234  -5.636  0.00  0.00    +0.179 C 
BRANCH  39  41
ATOM     40  C   UNL     1      -5.494   9.172  -5.167  0.00  0.00    +0.194 C 
ATOM     41  O   UNL     1      -4.211   8.547  -5.074  0.00  0.00    -0.381 OA
ENDBRANCH  39  41
ENDBRANCH  38  39
ENDBRANCH   1  38
TORSDOF 9
