REMARK  Name = ZINC63835764
REMARK  9 active torsions:
REMARK  status: ('A' for Active; 'I' for Inactive)
REMARK    1  A    between atoms: C_1  and  C_2
REMARK    2  A    between atoms: C_2  and  N_3
REMARK    3  A    between atoms: N_3  and  C_4
REMARK    4  A    between atoms: C_4  and  C_5
REMARK    5  A    between atoms: C_15  and  C_17
REMARK    6  A    between atoms: C_17  and  S_18
REMARK    7  A    between atoms: S_18  and  C_19
REMARK    8  A    between atoms: C_22  and  C_27
REMARK    9  A    between atoms: N_23  and  C_24
REMARK                            x       y       z     vdW  Elec       q    Type
REMARK                         _______ _______ _______ _____ _____    ______ ____
ROOT
ATOM      1  S   UNL     1      -2.126  -0.262  -4.196  0.00  0.00    -0.077 S 
ENDROOT
BRANCH   1   2
ATOM      2  C   UNL     1      -3.869  -0.313  -3.942  0.00  0.00    +0.193 A 
ATOM      3  N   UNL     1      -4.510   0.022  -2.832  0.00  0.00    -0.122 NA
ATOM      4  N   UNL     1      -5.776  -0.133  -2.988  0.00  0.00    -0.129 NA
ATOM      5  C   UNL     1      -6.025  -0.578  -4.211  0.00  0.00    +0.163 A 
ATOM      6  N   UNL     1      -4.805  -0.699  -4.852  0.00  0.00    -0.299 N 
BRANCH   5   7
ATOM      7  C   UNL     1      -7.287  -0.869  -4.754  0.00  0.00    +0.025 C 
ATOM      8  C   UNL     1      -8.525  -0.743  -4.124  0.00  0.00    +0.006 A 
ATOM      9  C   UNL     1      -8.898  -0.314  -2.832  0.00  0.00    +0.010 A 
ATOM     10  C   UNL     1     -10.210  -0.293  -2.483  0.00  0.00    +0.001 A 
ATOM     11  C   UNL     1     -11.211  -0.686  -3.374  0.00  0.00    +0.002 A 
ATOM     12  C   UNL     1     -10.925  -1.109  -4.630  0.00  0.00    +0.026 A 
ATOM     13  C   UNL     1      -9.576  -1.158  -5.068  0.00  0.00    +0.043 A 
ATOM     14  N   UNL     1      -9.045  -1.523  -6.218  0.00  0.00    -0.380 N 
ATOM     15  C   UNL     1      -7.588  -1.377  -6.146  0.00  0.00    +0.152 C 
ATOM     16  H   UNL     1      -9.541  -1.835  -6.991  0.00  0.00    +0.160 HD
ENDBRANCH   5   7
BRANCH   6  17
ATOM     17  C   UNL     1      -4.569  -1.151  -6.226  0.00  0.00    +0.091 C 
ATOM     18  C   UNL     1      -3.147  -1.579  -6.594  0.00  0.00    +0.027 C 
ATOM     19  C   UNL     1      -3.709  -0.259  -7.125  0.00  0.00    +0.027 C 
ENDBRANCH   6  17
ENDBRANCH   1   2
BRANCH   1  20
ATOM     20  C   UNL     1      -1.469   0.332  -2.613  0.00  0.00    +0.173 C 
BRANCH  20  22
ATOM     21  N   UNL     1       0.741   0.844  -1.628  0.00  0.00    -0.297 N 
ATOM     22  C   UNL     1       0.033   0.423  -2.695  0.00  0.00    +0.226 C 
ATOM     23  O   UNL     1       0.604   0.117  -3.720  0.00  0.00    -0.275 OA
BRANCH  21  25
ATOM     24  C   UNL     1      -0.296   2.702  -0.424  0.00  0.00    +0.024 C 
ATOM     25  C   UNL     1       0.052   1.213  -0.390  0.00  0.00    +0.105 C 
ENDBRANCH  21  25
BRANCH  21  26
ATOM     26  C   UNL     1       2.202   0.932  -1.708  0.00  0.00    +0.143 C 
BRANCH  26  27
ATOM     27  C   UNL     1       2.808  -0.378  -1.276  0.00  0.00    -0.026 A 
ATOM     28  C   UNL     1       3.119  -0.590   0.054  0.00  0.00    +0.009 A 
ATOM     29  C   UNL     1       3.677  -1.790   0.453  0.00  0.00    +0.050 A 
ATOM     30  C   UNL     1       3.926  -2.785  -0.480  0.00  0.00    +0.162 A 
ATOM     31  C   UNL     1       3.611  -2.573  -1.817  0.00  0.00    +0.162 A 
ATOM     32  C   UNL     1       3.048  -1.368  -2.210  0.00  0.00    +0.054 A 
ATOM     33  O   UNL     1       3.841  -3.539  -2.748  0.00  0.00    -0.485 OA
ATOM     34  C   UNL     1       4.742  -4.589  -2.378  0.00  0.00    +0.270 C 
ATOM     35  C   UNL     1       4.367  -5.069  -0.970  0.00  0.00    +0.270 C 
ATOM     36  O   UNL     1       4.480  -3.960  -0.072  0.00  0.00    -0.485 OA
ENDBRANCH  26  27
ENDBRANCH  21  26
ENDBRANCH  20  22
ENDBRANCH   1  20
TORSDOF 8
