REMARK  Name = ZINC35982352
REMARK  9 active torsions:
REMARK  status: ('A' for Active; 'I' for Inactive)
REMARK    1  A    between atoms: C_1  and  N_2
REMARK    2  A    between atoms: N_2  and  C_3
REMARK    3  A    between atoms: C_6  and  C_12
REMARK    4  A    between atoms: C_8  and  N_9
REMARK    5  A    between atoms: C_19  and  O_32
REMARK    6  A    between atoms: C_20  and  O_30
REMARK    7  A    between atoms: C_23  and  C_25
REMARK    8  A    between atoms: O_30  and  C_31
REMARK    9  A    between atoms: O_32  and  C_33
REMARK                            x       y       z     vdW  Elec       q    Type
REMARK                         _______ _______ _______ _____ _____    ______ ____
ROOT
ATOM      1  C   UNL     1       2.490  -2.777   4.314  0.00  0.00    +0.247 C 
ATOM      2  O   UNL     1       1.946  -2.130   3.441  0.00  0.00    -0.270 OA
ATOM      3  N   UNL     1       3.087  -2.148   5.346  0.00  0.00    -0.286 N 
ATOM      4  C   UNL     1       3.160  -0.679   5.409  0.00  0.00    +0.114 C 
ATOM      5  C   UNL     1       2.351  -0.220   6.621  0.00  0.00    +0.054 C 
ATOM      6  C   UNL     1       2.705  -1.031   7.840  0.00  0.00    -0.037 A 
ATOM      7  C   UNL     1       2.401  -0.488   9.083  0.00  0.00    +0.053 A 
ATOM      8  C   UNL     1       2.690  -1.181  10.244  0.00  0.00    +0.162 A 
ATOM      9  C   UNL     1       3.289  -2.435  10.166  0.00  0.00    +0.162 A 
ATOM     10  C   UNL     1       3.594  -2.970   8.928  0.00  0.00    +0.055 A 
ATOM     11  C   UNL     1       3.307  -2.267   7.766  0.00  0.00    -0.015 A 
ATOM     12  C   UNL     1       3.686  -2.900   6.454  0.00  0.00    +0.144 C 
ENDROOT
BRANCH   1  16
ATOM     13  C   UNL     1       2.509  -7.019   4.116  0.00  0.00    +0.058 A 
ATOM     14  C   UNL     1       3.625  -6.341   4.599  0.00  0.00    +0.026 A 
ATOM     15  C   UNL     1       3.622  -4.966   4.664  0.00  0.00    +0.015 A 
ATOM     16  C   UNL     1       2.497  -4.250   4.245  0.00  0.00    +0.039 A 
ATOM     17  C   UNL     1       1.378  -4.934   3.761  0.00  0.00    +0.047 A 
ATOM     18  C   UNL     1       1.389  -6.308   3.693  0.00  0.00    +0.148 A 
BRANCH  13  20
ATOM     19  C   UNL     1       3.726  -9.152   4.405  0.00  0.00    +0.125 C 
ATOM     20  N   UNL     1       2.515  -8.407   4.051  0.00  0.00    -0.345 N 
ATOM     21  H   UNL     1       1.717  -8.883   3.771  0.00  0.00    +0.146 HD
ENDBRANCH  13  20
BRANCH  18  22
ATOM     22  N   UNL     1       0.206  -7.032   3.175  0.00  0.00    +0.058 N 
ATOM     23  O   UNL     1      -0.423  -6.578   2.248  0.00  0.00    -0.126 OA
ATOM     24  O   UNL     1      -0.131  -8.078   3.679  0.00  0.00    -0.126 OA
ENDBRANCH  18  22
ENDBRANCH   1  16
BRANCH  12  25
ATOM     25  C   UNL     1       5.187  -2.890   6.313  0.00  0.00    +0.015 A 
ATOM     26  C   UNL     1       6.071  -3.894   6.533  0.00  0.00    +0.013 A 
ATOM     27  C   UNL     1       7.418  -3.656   6.336  0.00  0.00    +0.008 A 
ATOM     28  C   UNL     1       7.815  -2.425   5.929  0.00  0.00    +0.045 A 
ATOM     29  S   UNL     1       6.260  -1.557   5.805  0.00  0.00    -0.099 S 
ENDBRANCH  12  25
BRANCH   9  30
ATOM     30  O   UNL     1       3.574  -3.129  11.301  0.00  0.00    -0.491 OA
ATOM     31  C   UNL     1       4.190  -4.409  11.141  0.00  0.00    +0.277 C 
ENDBRANCH   9  30
BRANCH   8  32
ATOM     32  O   UNL     1       2.390  -0.641  11.455  0.00  0.00    -0.491 OA
ATOM     33  C   UNL     1       1.776   0.649  11.456  0.00  0.00    +0.277 C 
ENDBRANCH   8  32
TORSDOF 6
