REMARK  Name = ZINC43769679
REMARK  2 active torsions:
REMARK  status: ('A' for Active; 'I' for Inactive)
REMARK    1  A    between atoms: C_10  and  C_11
REMARK    2  A    between atoms: C_24  and  N_27
REMARK                            x       y       z     vdW  Elec       q    Type
REMARK                         _______ _______ _______ _____ _____    ______ ____
ROOT
ATOM      1  C   UNL     1       4.955  -0.409   0.555  0.00  0.00    +0.105 C 
ATOM      2  C   UNL     1       5.548  -0.078   1.913  0.00  0.00    +0.029 C 
ATOM      3  C   UNL     1       4.673   0.730   2.881  0.00  0.00    +0.033 C 
ATOM      4  C   UNL     1       5.729   1.479   3.697  0.00  0.00    -0.030 C 
ATOM      5  C   UNL     1       6.839   1.620   2.983  0.00  0.00    -0.023 C 
ATOM      6  C   UNL     1       6.640   0.999   1.638  0.00  0.00    +0.049 C 
ATOM      7  C   UNL     1       7.733   0.352   0.880  0.00  0.00    -0.017 A 
ATOM      8  C   UNL     1       9.057   0.693   1.053  0.00  0.00    +0.006 A 
ATOM      9  C   UNL     1      10.042   0.069   0.311  0.00  0.00    +0.003 A 
ATOM     10  C   UNL     1       9.700  -0.903  -0.612  0.00  0.00    +0.034 A 
ATOM     11  C   UNL     1       8.378  -1.256  -0.789  0.00  0.00    +0.147 A 
ATOM     12  C   UNL     1       7.381  -0.639  -0.043  0.00  0.00    +0.062 A 
ATOM     13  N   UNL     1       6.049  -1.038  -0.217  0.00  0.00    -0.335 N 
ATOM     14  H   UNL     1       5.840  -1.740  -0.854  0.00  0.00    +0.147 HD
ENDROOT
BRANCH   1  24
ATOM     15  C   UNL     1      -0.068   0.011   1.444  0.00  0.00    +0.001 A 
ATOM     16  C   UNL     1       0.982   0.916   1.304  0.00  0.00    +0.001 A 
ATOM     17  C   UNL     1       2.251   0.487   1.065  0.00  0.00    +0.009 A 
ATOM     18  C   UNL     1       2.510  -0.891   0.956  0.00  0.00    -0.013 A 
ATOM     19  C   UNL     1       1.442  -1.812   1.098  0.00  0.00    -0.018 A 
ATOM     20  C   UNL     1       0.144  -1.330   1.344  0.00  0.00    +0.008 A 
ATOM     21  C   UNL     1       1.700  -3.188   0.990  0.00  0.00    +0.008 A 
ATOM     22  C   UNL     1       2.969  -3.618   0.751  0.00  0.00    +0.001 A 
ATOM     23  C   UNL     1       4.019  -2.713   0.612  0.00  0.00    +0.006 A 
ATOM     24  C   UNL     1       3.806  -1.372   0.710  0.00  0.00    -0.019 A 
ENDBRANCH   1  24
BRANCH  11  25
ATOM     25  N   UNL     1       8.020  -2.297  -1.779  0.00  0.00    +0.058 N 
ATOM     26  O   UNL     1       8.732  -3.263  -1.925  0.00  0.00    -0.126 OA
ATOM     27  O   UNL     1       7.015  -2.181  -2.441  0.00  0.00    -0.126 OA
ENDBRANCH  11  25
TORSDOF 2
