REMARK  Name = ZINC10884611
REMARK  8 active torsions:
REMARK  status: ('A' for Active; 'I' for Inactive)
REMARK    1  A    between atoms: C_1  and  C_2
REMARK    2  A    between atoms: C_8  and  N_10
REMARK    3  A    between atoms: C_11  and  C_13
REMARK    4  A    between atoms: C_13  and  C_15
REMARK    5  A    between atoms: C_13  and  O_16
REMARK    6  A    between atoms: O_16  and  C_17
REMARK    7  A    between atoms: C_17  and  C_19
REMARK    8  A    between atoms: C_31  and  C_34
REMARK                            x       y       z     vdW  Elec       q    Type
REMARK                         _______ _______ _______ _____ _____    ______ ____
ROOT
ATOM      1  C   UNL     1       8.636  -0.678   1.824  0.00  0.00    +0.101 C 
ATOM      2  C   UNL     1       9.175  -1.980   1.227  0.00  0.00    +0.033 C 
ATOM      3  C   UNL     1      10.700  -1.899   1.131  0.00  0.00    +0.107 C 
ATOM      4  N   UNL     1      11.267  -1.680   2.468  0.00  0.00    -0.314 N 
ATOM      5  C   UNL     1      10.800  -0.411   3.041  0.00  0.00    +0.107 C 
ATOM      6  C   UNL     1       9.278  -0.448   3.196  0.00  0.00    +0.033 C 
ATOM      7  C   UNL     1      12.656  -1.731   2.435  0.00  0.00    +0.142 A 
ATOM      8  C   UNL     1      13.298  -2.874   1.918  0.00  0.00    +0.049 A 
ATOM      9  C   UNL     1      14.656  -2.935   1.882  0.00  0.00    +0.053 A 
ATOM     10  C   UNL     1      15.404  -1.845   2.365  0.00  0.00    +0.178 A 
ATOM     11  N   UNL     1      16.701  -1.598   2.468  0.00  0.00    -0.128 NA
ATOM     12  N   UNL     1      16.870  -0.433   2.990  0.00  0.00    -0.123 NA
ATOM     13  C   UNL     1      15.711   0.121   3.245  0.00  0.00    +0.258 A 
ATOM     14  N   UNL     1      14.749  -0.746   2.863  0.00  0.00    -0.187 N 
ATOM     15  N   UNL     1      13.353  -0.712   2.881  0.00  0.00    -0.148 NA
ENDROOT
BRANCH  13  16
ATOM     16  C   UNL     1      15.490   1.480   3.857  0.00  0.00    +0.454 C 
ATOM     17  F   UNL     1      16.681   2.213   3.806  0.00  0.00    -0.163 F 
ATOM     18  F   UNL     1      14.495   2.157   3.144  0.00  0.00    -0.163 F 
ATOM     19  F   UNL     1      15.091   1.333   5.190  0.00  0.00    -0.163 F 
ENDBRANCH  13  16
BRANCH   1  20
ATOM     20  C   UNL     1       7.141  -0.775   1.979  0.00  0.00    +0.311 C 
ATOM     21  O   UNL     1       6.638  -0.670   3.073  0.00  0.00    -0.251 OA
BRANCH  20  22
ATOM     22  O   UNL     1       6.366  -0.979   0.901  0.00  0.00    -0.452 OA
BRANCH  22  23
ATOM     23  C   UNL     1       4.934  -1.063   1.125  0.00  0.00    +0.258 C 
ATOM     24  C   UNL     1       4.544  -2.518   1.393  0.00  0.00    +0.062 C 
BRANCH  23  26
ATOM     25  N   UNL     1       2.862  -0.453  -0.081  0.00  0.00    -0.309 N 
ATOM     26  C   UNL     1       4.205  -0.564  -0.096  0.00  0.00    +0.254 C 
ATOM     27  O   UNL     1       4.827  -0.261  -1.092  0.00  0.00    -0.272 OA
ATOM     28  H   UNL     1       2.365  -0.695   0.716  0.00  0.00    +0.149 HD
BRANCH  25  35
ATOM     29  C   UNL     1       0.739  -2.027  -1.265  0.00  0.00    +0.009 C 
ATOM     30  C   UNL     1       0.718  -0.497  -1.257  0.00  0.00    +0.006 C 
ATOM     31  C   UNL     1       0.002  -0.004   0.002  0.00  0.00    +0.005 C 
ATOM     32  C   UNL     1      -0.019   1.526   0.010  0.00  0.00    +0.000 C 
ATOM     33  C   UNL     1       1.417   2.055  -0.000  0.00  0.00    +0.002 C 
ATOM     34  C   UNL     1       2.133   1.562  -1.259  0.00  0.00    +0.022 C 
ATOM     35  C   UNL     1       2.154   0.032  -1.268  0.00  0.00    +0.076 C 
ENDBRANCH  25  35
ENDBRANCH  23  26
ENDBRANCH  22  23
ENDBRANCH  20  22
ENDBRANCH   1  20
TORSDOF 6
