REMARK  Name = ZINC28350737
REMARK  5 active torsions:
REMARK  status: ('A' for Active; 'I' for Inactive)
REMARK    1  A    between atoms: C_1  and  C_2
REMARK    2  A    between atoms: C_5  and  S_7
REMARK    3  A    between atoms: S_7  and  N_10
REMARK    4  A    between atoms: C_14  and  C_17
REMARK    5  A    between atoms: C_22  and  C_25
REMARK                            x       y       z     vdW  Elec       q    Type
REMARK                         _______ _______ _______ _____ _____    ______ ____
ROOT
ATOM      1  C   UNL     1      -7.154   0.634  -0.129  0.00  0.00    +0.223 C 
ATOM      2  O   UNL     1      -6.967  -0.560  -0.035  0.00  0.00    -0.275 OA
ATOM      3  N   UNL     1      -6.105   1.480  -0.149  0.00  0.00    -0.264 N 
ATOM      4  C   UNL     1      -4.810   0.984  -0.064  0.00  0.00    +0.165 A 
ATOM      5  N   UNL     1      -3.663   1.638  -0.062  0.00  0.00    -0.225 NA
ATOM      6  C   UNL     1      -2.507   0.998   0.024  0.00  0.00    +0.080 A 
ATOM      7  C   UNL     1      -2.500  -0.365   0.123  0.00  0.00    +0.076 A 
ATOM      8  S   UNL     1      -4.255  -0.709   0.081  0.00  0.00    -0.060 S 
ATOM      9  H   UNL     1      -6.274   2.564  -0.234  0.00  0.00    +0.157 HD
ENDROOT
BRANCH   6  10
ATOM     10  C   UNL     1      -1.230   1.754   0.017  0.00  0.00    +0.001 A 
ATOM     11  C   UNL     1      -0.013   1.076   0.008  0.00  0.00    +0.013 A 
ATOM     12  C   UNL     1       1.172   1.778   0.000  0.00  0.00    +0.046 A 
ATOM     13  C   UNL     1       1.165   3.172   0.009  0.00  0.00    +0.124 A 
ATOM     14  C   UNL     1      -0.052   3.842   0.016  0.00  0.00    -0.002 A 
ATOM     15  C   UNL     1      -1.240   3.149   0.027  0.00  0.00    +0.017 A 
ATOM     16  C   UNL     1       0.257   5.327  -0.001  0.00  0.00    +0.080 C 
ATOM     17  C   UNL     1       1.748   5.338  -0.413  0.00  0.00    +0.234 C 
ATOM     18  O   UNL     1       2.209   4.048   0.021  0.00  0.00    -0.491 OA
ENDBRANCH   6  10
BRANCH   1  23
ATOM     19  N   UNL     1     -10.918   0.558  -0.132  0.00  0.00    -0.175 NA
ATOM     20  C   UNL     1     -11.253   1.545   0.904  0.00  0.00    +0.109 C 
ATOM     21  C   UNL     1     -10.237   2.689   0.843  0.00  0.00    +0.018 C 
ATOM     22  C   UNL     1      -8.822   2.117   0.954  0.00  0.00    +0.015 C 
ATOM     23  C   UNL     1      -8.558   1.173  -0.221  0.00  0.00    +0.091 C 
ATOM     24  C   UNL     1      -9.556   0.011  -0.172  0.00  0.00    +0.122 C 
BRANCH  19  25
ATOM     25  S   UNL     1     -12.055   0.074  -1.235  0.00  0.00    +0.067 S 
ATOM     26  O   UNL     1     -11.651  -1.208  -1.697  0.00  0.00    -0.152 OA
ATOM     27  O   UNL     1     -13.324   0.304  -0.638  0.00  0.00    -0.152 OA
BRANCH  25  32
ATOM     28  C   UNL     1     -12.342   4.286  -5.379  0.00  0.00    +0.051 C 
ATOM     29  C   UNL     1     -12.086   3.096  -4.491  0.00  0.00    -0.011 A 
ATOM     30  C   UNL     1     -11.254   2.045  -4.691  0.00  0.00    +0.013 A 
ATOM     31  C   UNL     1     -11.176   1.058  -3.727  0.00  0.00    +0.036 A 
ATOM     32  C   UNL     1     -11.942   1.165  -2.613  0.00  0.00    +0.143 A 
ATOM     33  S   UNL     1     -12.800   2.704  -2.903  0.00  0.00    -0.074 S 
ENDBRANCH  25  32
ENDBRANCH  19  25
ENDBRANCH   1  23
TORSDOF 4
