REMARK  Name = ZINC64735019
REMARK  6 active torsions:
REMARK  status: ('A' for Active; 'I' for Inactive)
REMARK    1  A    between atoms: C_7  and  C_10
REMARK    2  A    between atoms: C_10  and  C_11
REMARK    3  A    between atoms: C_11  and  C_13
REMARK    4  A    between atoms: C_11  and  N_22
REMARK    5  A    between atoms: N_15  and  C_16
REMARK    6  A    between atoms: C_23  and  C_25
REMARK                            x       y       z     vdW  Elec       q    Type
REMARK                         _______ _______ _______ _____ _____    ______ ____
ROOT
ATOM      1  C   UNL     1       0.457  -3.653  -1.462  0.00  0.00    +0.163 C 
ENDROOT
BRANCH   1   2
ATOM      2  C   UNL     1      -0.385  -4.904  -1.452  0.00  0.00    +0.234 C 
ATOM      3  O   UNL     1      -1.459  -4.916  -2.016  0.00  0.00    -0.274 OA
ATOM      4  N   UNL     1       0.057  -6.008  -0.819  0.00  0.00    -0.311 N 
ATOM      5  H   UNL     1       0.915  -5.998  -0.368  0.00  0.00    +0.149 HD
BRANCH   4   6
ATOM      6  C   UNL     1      -0.761  -7.224  -0.810  0.00  0.00    +0.073 C 
ATOM      7  C   UNL     1      -1.773  -7.149   0.335  0.00  0.00    +0.022 C 
ATOM      8  C   UNL     1      -2.627  -8.418   0.345  0.00  0.00    +0.002 C 
ATOM      9  C   UNL     1      -1.725  -9.639   0.540  0.00  0.00    +0.000 C 
ATOM     10  C   UNL     1      -0.713  -9.713  -0.605  0.00  0.00    +0.002 C 
ATOM     11  C   UNL     1       0.141  -8.444  -0.614  0.00  0.00    +0.022 C 
ENDBRANCH   4   6
ENDBRANCH   1   2
BRANCH   1  12
ATOM     12  N   UNL     1      -0.238  -2.603  -2.210  0.00  0.00    -0.300 N 
ATOM     13  C   UNL     1      -0.118  -2.539  -3.551  0.00  0.00    +0.245 C 
ATOM     14  O   UNL     1       0.567  -3.352  -4.139  0.00  0.00    -0.270 OA
ATOM     15  H   UNL     1      -0.785  -1.954  -1.741  0.00  0.00    +0.150 HD
BRANCH  13  16
ATOM     16  C   UNL     1      -0.818  -1.479  -4.306  0.00  0.00    +0.037 A 
ATOM     17  C   UNL     1      -1.601  -0.540  -3.632  0.00  0.00    +0.016 A 
ATOM     18  C   UNL     1      -2.253   0.446  -4.341  0.00  0.00    +0.039 A 
ATOM     19  C   UNL     1      -2.132   0.506  -5.721  0.00  0.00    +0.123 A 
ATOM     20  C   UNL     1      -1.356  -0.424  -6.395  0.00  0.00    +0.039 A 
ATOM     21  C   UNL     1      -0.695  -1.411  -5.695  0.00  0.00    +0.016 A 
ATOM     22  F   UNL     1      -2.773   1.475  -6.411  0.00  0.00    -0.205 F 
ENDBRANCH  13  16
ENDBRANCH   1  12
BRANCH   1  23
ATOM     23  C   UNL     1       0.691  -3.186  -0.024  0.00  0.00    +0.065 C 
BRANCH  23  30
ATOM     24  C   UNL     1      -0.016   1.348   0.009  0.00  0.00    +0.001 A 
ATOM     25  C   UNL     1       1.166   2.101   0.002  0.00  0.00    +0.002 A 
ATOM     26  C   UNL     1       2.391   1.535  -0.013  0.00  0.00    +0.026 A 
ATOM     27  C   UNL     1       2.529   0.120  -0.022  0.00  0.00    +0.043 A 
ATOM     28  N   UNL     1       3.587  -0.654  -0.037  0.00  0.00    -0.380 N 
ATOM     29  C   UNL     1       3.143  -2.053  -0.041  0.00  0.00    +0.144 C 
ATOM     30  C   UNL     1       1.631  -2.008  -0.025  0.00  0.00    -0.039 C 
ATOM     31  C   UNL     1       1.295  -0.698  -0.014  0.00  0.00    -0.001 A 
ATOM     32  C   UNL     1       0.002  -0.004   0.002  0.00  0.00    +0.010 A 
ATOM     33  H   UNL     1       4.509  -0.353  -0.045  0.00  0.00    +0.160 HD
ENDBRANCH  23  30
ENDBRANCH   1  23
TORSDOF 6
