REMARK  Name = ZINC36592848
REMARK  11 active torsions:
REMARK  status: ('A' for Active; 'I' for Inactive)
REMARK    1  A    between atoms: C_1  and  O_2
REMARK    2  A    between atoms: O_2  and  C_3
REMARK    3  A    between atoms: C_7  and  C_11
REMARK    4  A    between atoms: C_8  and  O_9
REMARK    5  A    between atoms: O_9  and  C_10
REMARK    6  A    between atoms: N_24  and  C_25
REMARK    7  A    between atoms: C_25  and  C_27
REMARK    8  A    between atoms: C_25  and  C_34
REMARK    9  A    between atoms: C_27  and  C_28
REMARK   10  A    between atoms: C_34  and  O_36
REMARK   11  A    between atoms: O_36  and  C_37
REMARK                            x       y       z     vdW  Elec       q    Type
REMARK                         _______ _______ _______ _____ _____    ______ ____
ROOT
ATOM      1  C   UNL     1      -2.596  -3.918   0.184  0.00  0.00    +0.160 C 
ATOM      2  C   UNL     1      -2.453  -4.289   1.641  0.00  0.00    +0.062 A 
ATOM      3  C   UNL     1      -3.483  -4.692   2.417  0.00  0.00    +0.040 A 
ATOM      4  N   UNL     1      -2.975  -4.931   3.658  0.00  0.00    -0.349 N 
ATOM      5  H   UNL     1      -3.471  -5.232   4.435  0.00  0.00    +0.166 HD
ATOM      6  C   UNL     1      -1.649  -4.669   3.602  0.00  0.00    +0.171 A 
ATOM      7  N   UNL     1      -1.347  -4.285   2.388  0.00  0.00    -0.348 N 
ATOM      8  C   UNL     1      -4.906  -4.841   1.948  0.00  0.00    +0.074 C 
ATOM      9  C   UNL     1      -5.080  -4.060   0.639  0.00  0.00    +0.116 C 
ATOM     10  N   UNL     1      -3.940  -4.344  -0.248  0.00  0.00    -0.273 N 
ATOM     11  C   UNL     1      -4.119  -4.978  -1.423  0.00  0.00    +0.304 C 
ATOM     12  O   UNL     1      -3.179  -5.131  -2.180  0.00  0.00    -0.253 OA
ATOM     13  N   UNL     1      -5.338  -5.442  -1.760  0.00  0.00    -0.286 N 
ATOM     14  H   UNL     1      -6.102  -5.257  -1.191  0.00  0.00    +0.151 HD
ATOM     15  H   UNL     1      -0.461  -4.037   2.081  0.00  0.00    +0.167 HD
ENDROOT
BRANCH   1  20
ATOM     16  C   UNL     1      -2.105  -0.511  -1.391  0.00  0.00    +0.162 A 
ATOM     17  C   UNL     1      -2.188   0.315  -0.281  0.00  0.00    +0.049 A 
ATOM     18  C   UNL     1      -2.403  -0.229   0.971  0.00  0.00    +0.004 A 
ATOM     19  C   UNL     1      -2.535  -1.597   1.120  0.00  0.00    +0.010 A 
ATOM     20  C   UNL     1      -2.453  -2.427   0.018  0.00  0.00    +0.024 A 
ATOM     21  C   UNL     1      -2.243  -1.888  -1.241  0.00  0.00    +0.167 A 
BRANCH  16  23
ATOM     22  C   UNL     1      -1.761   1.443  -2.701  0.00  0.00    +0.277 C 
ATOM     23  O   UNL     1      -1.893   0.023  -2.624  0.00  0.00    -0.491 OA
ENDBRANCH  16  23
BRANCH  21  24
ATOM     24  O   UNL     1      -2.168  -2.702  -2.328  0.00  0.00    -0.491 OA
ATOM     25  C   UNL     1      -0.884  -3.242  -2.646  0.00  0.00    +0.277 C 
ENDBRANCH  21  24
ENDBRANCH   1  20
BRANCH  13  26
ATOM     26  C   UNL     1      -5.511  -6.225  -2.986  0.00  0.00    +0.187 C 
BRANCH  26  27
ATOM     27  C   UNL     1      -5.197  -7.672  -2.707  0.00  0.00    +0.328 C 
ATOM     28  O   UNL     1      -4.862  -8.014  -1.597  0.00  0.00    -0.249 OA
BRANCH  27  29
ATOM     29  O   UNL     1      -5.288  -8.581  -3.690  0.00  0.00    -0.467 OA
ATOM     30  C   UNL     1      -4.975  -9.934  -3.354  0.00  0.00    +0.280 C 
ENDBRANCH  27  29
ENDBRANCH  26  27
BRANCH  26  31
ATOM     31  C   UNL     1      -6.957  -6.101  -3.471  0.00  0.00    +0.069 C 
BRANCH  31  32
ATOM     32  C   UNL     1      -7.234  -4.674  -3.867  0.00  0.00    -0.045 A 
ATOM     33  C   UNL     1      -7.710  -3.776  -2.930  0.00  0.00    +0.004 A 
ATOM     34  C   UNL     1      -7.964  -2.467  -3.293  0.00  0.00    +0.000 A 
ATOM     35  C   UNL     1      -7.742  -2.056  -4.594  0.00  0.00    +0.000 A 
ATOM     36  C   UNL     1      -7.266  -2.953  -5.531  0.00  0.00    +0.000 A 
ATOM     37  C   UNL     1      -7.007  -4.261  -5.167  0.00  0.00    +0.004 A 
ENDBRANCH  31  32
ENDBRANCH  26  31
ENDBRANCH  13  26
TORSDOF 8
