REMARK  Name = ZINC01890583
REMARK  8 active torsions:
REMARK  status: ('A' for Active; 'I' for Inactive)
REMARK    1  A    between atoms: C_1  and  N_2
REMARK    2  A    between atoms: N_2  and  C_3
REMARK    3  A    between atoms: N_2  and  C_29
REMARK    4  A    between atoms: C_3  and  C_4
REMARK    5  A    between atoms: C_5  and  C_15
REMARK    6  A    between atoms: N_17  and  N_18
REMARK    7  A    between atoms: C_19  and  C_20
REMARK    8  A    between atoms: C_25  and  N_26
REMARK                            x       y       z     vdW  Elec       q    Type
REMARK                         _______ _______ _______ _____ _____    ______ ____
ROOT
ATOM      1  C   UNL     1       3.137  -2.198   0.200  0.00  0.00    +0.063 A 
ATOM      2  C   UNL     1       3.097  -3.562   0.154  0.00  0.00    +0.170 A 
ATOM      3  N   UNL     1       1.810  -3.951   0.151  0.00  0.00    -0.124 NA
ATOM      4  N   UNL     1       1.046  -2.915   0.198  0.00  0.00    -0.058 NA
ATOM      5  N   UNL     1       1.855  -1.770   0.234  0.00  0.00    -0.194 N 
ATOM      6  C   UNL     1       1.419  -0.442   0.290  0.00  0.00    +0.240 A 
ATOM      7  C   UNL     1       0.023   0.002   0.321  0.00  0.00    +0.206 A 
ATOM      8  N   UNL     1       0.008   1.306   0.370  0.00  0.00    -0.032 NA
ATOM      9  O   UNL     1       1.351   1.755   0.373  0.00  0.00    -0.239 OA
ATOM     10  N   UNL     1       2.186   0.611   0.322  0.00  0.00    -0.027 NA
ATOM     11  N   UNL     1      -1.095  -0.825   0.301  0.00  0.00    -0.337 N 
ATOM     12  H   UNL     1      -2.104  -0.386   0.328  0.00  0.00    +0.144 HD
ATOM     13  H   UNL     1      -0.971  -1.917   0.258  0.00  0.00    +0.144 HD
ENDROOT
BRANCH   2  14
ATOM     14  C   UNL     1       4.268  -4.458   0.108  0.00  0.00    +0.285 C 
ATOM     15  O   UNL     1       5.391  -3.991   0.115  0.00  0.00    -0.267 OA
ATOM     16  N   UNL     1       4.093  -5.793   0.059  0.00  0.00    -0.202 N 
ATOM     17  H   UNL     1       3.077  -6.215   0.053  0.00  0.00    +0.178 HD
BRANCH  16  18
ATOM     18  N   UNL     1       5.205  -6.644   0.016  0.00  0.00    -0.187 NA
ATOM     19  C   UNL     1       5.037  -7.930  -0.031  0.00  0.00    +0.140 C 
BRANCH  19  20
ATOM     20  C   UNL     1       6.208  -8.826  -0.077  0.00  0.00    +0.025 A 
ATOM     21  C   UNL     1       7.494  -8.294  -0.192  0.00  0.00    +0.012 A 
ATOM     22  C   UNL     1       8.585  -9.137  -0.228  0.00  0.00    +0.001 A 
ATOM     23  C   UNL     1       8.406 -10.508  -0.163  0.00  0.00    +0.002 A 
ATOM     24  C   UNL     1       7.135 -11.042  -0.055  0.00  0.00    +0.033 A 
ATOM     25  C   UNL     1       6.035 -10.210  -0.012  0.00  0.00    +0.135 A 
BRANCH  25  26
ATOM     26  N   UNL     1       4.675 -10.784   0.104  0.00  0.00    +0.057 N 
ATOM     27  O   UNL     1       4.532 -11.981   0.277  0.00  0.00    -0.126 OA
ATOM     28  O   UNL     1       3.700 -10.058   0.026  0.00  0.00    -0.126 OA
ENDBRANCH  25  26
ENDBRANCH  19  20
ENDBRANCH  16  18
ENDBRANCH   2  14
BRANCH   1  29
ATOM     29  C   UNL     1       4.372  -1.335   0.212  0.00  0.00    -0.020 C 
BRANCH  29  31
ATOM     30  C   UNL     1       5.236  -2.355   2.231  0.00  0.00    -0.095 C 
ATOM     31  N   UNL     1       4.795  -1.104   1.600  0.00  0.00    +0.383 N 
ATOM     32  H   UNL     1       3.925  -0.732   2.161  0.00  0.00    -0.081 HD
BRANCH  31  33
ATOM     33  C   UNL     1       5.847  -0.081   1.667  0.00  0.00    -0.068 C 
ATOM     34  C   UNL     1       7.103  -0.595   0.962  0.00  0.00    -0.015 C 
ATOM     35  C   UNL     1       8.199   0.471   1.032  0.00  0.00    -0.002 C 
ATOM     36  C   UNL     1       8.524   0.773   2.496  0.00  0.00    -0.000 C 
ATOM     37  C   UNL     1       7.268   1.286   3.202  0.00  0.00    -0.002 C 
ATOM     38  C   UNL     1       6.172   0.221   3.132  0.00  0.00    -0.015 C 
ENDBRANCH  31  33
ENDBRANCH  29  31
ENDBRANCH   1  29
TORSDOF 7
