REMARK  Name = ZINC41543512
REMARK  12 active torsions:
REMARK  status: ('A' for Active; 'I' for Inactive)
REMARK    1  A    between atoms: C_1  and  C_2
REMARK    2  A    between atoms: C_3  and  C_35
REMARK    3  A    between atoms: C_6  and  C_34
REMARK    4  A    between atoms: C_7  and  C_8
REMARK    5  A    between atoms: C_8  and  C_10
REMARK    6  A    between atoms: N_14  and  C_26
REMARK    7  A    between atoms: C_15  and  C_17
REMARK    8  A    between atoms: C_20  and  C_23
REMARK    9  A    between atoms: C_23  and  C_24
REMARK   10  A    between atoms: C_23  and  C_25
REMARK   11  A    between atoms: C_26  and  C_27
REMARK   12  A    between atoms: C_27  and  N_28
REMARK                            x       y       z     vdW  Elec       q    Type
REMARK                         _______ _______ _______ _____ _____    ______ ____
ROOT
ATOM      1  C   UNL     1       0.057  -1.865   3.029  0.00  0.00    +0.076 C 
ATOM      2  C   UNL     1       0.152  -1.798   4.377  0.00  0.00    +0.249 C 
ATOM      3  C   UNL     1       0.195  -3.168   4.929  0.00  0.00    +0.288 C 
ATOM      4  O   UNL     1       0.278  -3.441   6.110  0.00  0.00    -0.266 OA
ATOM      5  N   UNL     1       0.127  -4.068   3.931  0.00  0.00    -0.285 N 
ATOM      6  C   UNL     1       0.029  -3.331   2.666  0.00  0.00    +0.145 C 
ATOM      7  O   UNL     1       0.200  -0.657   5.103  0.00  0.00    -0.282 OA
ENDROOT
BRANCH   6   8
ATOM      8  C   UNL     1       1.202  -3.668   1.782  0.00  0.00    -0.022 A 
ATOM      9  C   UNL     1       2.471  -3.761   2.322  0.00  0.00    +0.006 A 
ATOM     10  C   UNL     1       3.547  -4.071   1.511  0.00  0.00    +0.004 A 
ATOM     11  C   UNL     1       3.354  -4.288   0.160  0.00  0.00    -0.045 A 
ATOM     12  C   UNL     1       2.085  -4.196  -0.381  0.00  0.00    +0.004 A 
ATOM     13  C   UNL     1       1.009  -3.890   0.431  0.00  0.00    +0.006 A 
BRANCH  11  14
ATOM     14  C   UNL     1       4.527  -4.624  -0.724  0.00  0.00    +0.013 C 
ATOM     15  C   UNL     1       4.302  -5.992  -1.372  0.00  0.00    +0.012 C 
ATOM     16  C   UNL     1       4.665  -3.559  -1.815  0.00  0.00    +0.012 C 
ENDBRANCH  11  14
ENDBRANCH   6   8
BRANCH   1  17
ATOM     17  C   UNL     1      -0.011  -0.732   2.099  0.00  0.00    +0.197 C 
ATOM     18  O   UNL     1       1.011  -0.266   1.630  0.00  0.00    -0.287 OA
BRANCH  17  25
ATOM     19  C   UNL     1      -0.527   1.798   0.114  0.00  0.00    +0.046 C 
ATOM     20  C   UNL     1      -1.563   0.981   0.841  0.00  0.00    -0.019 A 
ATOM     21  C   UNL     1      -2.896   1.147   0.796  0.00  0.00    +0.017 A 
ATOM     22  N   UNL     1      -3.490   0.209   1.590  0.00  0.00    -0.361 N 
ATOM     23  H   UNL     1      -4.447   0.122   1.724  0.00  0.00    +0.165 HD
ATOM     24  C   UNL     1      -2.559  -0.578   2.162  0.00  0.00    +0.024 A 
ATOM     25  C   UNL     1      -1.317  -0.157   1.734  0.00  0.00    +0.045 A 
ATOM     26  C   UNL     1      -2.828  -1.725   3.103  0.00  0.00    +0.064 C 
ATOM     27  C   UNL     1      -3.619   2.201  -0.002  0.00  0.00    +0.063 C 
ENDBRANCH  17  25
ENDBRANCH   1  17
BRANCH   5  28
ATOM     28  C   UNL     1       0.143  -5.525   4.082  0.00  0.00    +0.090 C 
BRANCH  28  29
ATOM     29  C   UNL     1      -1.291  -6.037   4.236  0.00  0.00    -0.060 C 
BRANCH  29  30
ATOM     30  N   UNL     1      -1.275  -7.498   4.387  0.00  0.00    +0.381 N 
ATOM     31  C   UNL     1      -0.672  -7.872   5.692  0.00  0.00    -0.079 C 
ATOM     32  C   UNL     1      -1.226  -9.297   5.943  0.00  0.00    -0.020 C 
ATOM     33  C   UNL     1      -2.671  -9.207   5.400  0.00  0.00    -0.020 C 
ATOM     34  C   UNL     1      -2.658  -8.023   4.416  0.00  0.00    -0.079 C 
ATOM     35  H   UNL     1      -0.758  -7.921   3.630  0.00  0.00    -0.082 HD
ENDBRANCH  29  30
ENDBRANCH  28  29
ENDBRANCH   5  28
TORSDOF 7
