REMARK  Name = ZINC21200171
REMARK  12 active torsions:
REMARK  status: ('A' for Active; 'I' for Inactive)
REMARK    1  A    between atoms: C_1  and  C_2
REMARK    2  A    between atoms: C_5  and  C_28
REMARK    3  A    between atoms: C_6  and  S_8
REMARK    4  A    between atoms: S_8  and  N_11
REMARK    5  A    between atoms: N_11  and  C_12
REMARK    6  A    between atoms: C_12  and  C_13
REMARK    7  A    between atoms: C_13  and  C_14
REMARK    8  A    between atoms: N_16  and  C_17
REMARK    9  A    between atoms: C_17  and  C_18
REMARK   10  A    between atoms: C_18  and  N_25
REMARK   11  A    between atoms: N_25  and  C_26
REMARK   12  A    between atoms: N_25  and  C_27
REMARK                            x       y       z     vdW  Elec       q    Type
REMARK                         _______ _______ _______ _____ _____    ______ ____
ROOT
ATOM      1  C   UNL     1       4.178   1.993   1.529  0.00  0.00    +0.214 C 
ATOM      2  O   UNL     1       4.007   0.838   1.857  0.00  0.00    -0.276 OA
ATOM      3  N   UNL     1       3.213   2.655   0.861  0.00  0.00    -0.317 N 
ATOM      4  H   UNL     1       3.368   3.702   0.563  0.00  0.00    +0.149 HD
ENDROOT
BRANCH   1   5
ATOM      5  C   UNL     1       5.472   2.688   1.868  0.00  0.00    +0.112 C 
BRANCH   5   6
ATOM      6  C   UNL     1       6.388   1.722   2.620  0.00  0.00    +0.115 C 
BRANCH   6   7
ATOM      7  N   UNL     1       7.646   2.398   2.950  0.00  0.00    -0.189 NA
ATOM      8  H   UNL     1       7.997   3.238   2.333  0.00  0.00    +0.148 HD
BRANCH   7   9
ATOM      9  S   UNL     1       8.659   1.752   4.090  0.00  0.00    +0.059 S 
ATOM     10  O   UNL     1       9.804   2.593   4.138  0.00  0.00    -0.153 OA
ATOM     11  O   UNL     1       7.863   1.483   5.235  0.00  0.00    -0.153 OA
BRANCH   9  17
ATOM     12  C   UNL     1       8.883  -3.462   4.367  0.00  0.00    +0.044 C 
ATOM     13  C   UNL     1       9.274  -2.194   3.653  0.00  0.00    -0.049 A 
ATOM     14  C   UNL     1      10.061  -2.254   2.518  0.00  0.00    +0.004 A 
ATOM     15  C   UNL     1      10.421  -1.091   1.864  0.00  0.00    +0.005 A 
ATOM     16  C   UNL     1       9.993   0.133   2.344  0.00  0.00    -0.024 A 
ATOM     17  C   UNL     1       9.205   0.193   3.478  0.00  0.00    +0.108 A 
ATOM     18  C   UNL     1       8.849  -0.970   4.135  0.00  0.00    +0.032 A 
ATOM     19  C   UNL     1      10.385   1.401   1.631  0.00  0.00    +0.046 C 
ENDBRANCH   9  17
ENDBRANCH   7   9
ENDBRANCH   6   7
ENDBRANCH   5   6
ENDBRANCH   1   5
BRANCH   3  20
ATOM     20  C   UNL     1       1.955   1.978   0.531  0.00  0.00    +0.092 C 
BRANCH  20  21
ATOM     21  C   UNL     1       0.997   2.975  -0.123  0.00  0.00    -0.050 C 
ATOM     22  C   UNL     1       0.563   3.982   0.907  0.00  0.00    -0.010 C 
ATOM     23  C   UNL     1       0.652   3.327   2.300  0.00  0.00    -0.001 C 
ATOM     24  C   UNL     1      -0.492   2.474   2.586  0.00  0.00    -0.000 C 
ATOM     25  C   UNL     1      -0.607   1.294   1.600  0.00  0.00    -0.000 C 
ATOM     26  C   UNL     1      -1.237   1.794   0.328  0.00  0.00    -0.001 C 
ATOM     27  C   UNL     1      -0.191   2.201  -0.727  0.00  0.00    -0.010 C 
BRANCH  21  28
ATOM     28  N   UNL     1       1.707   3.674  -1.203  0.00  0.00    +0.381 N 
ATOM     29  C   UNL     1       2.099   2.740  -2.266  0.00  0.00    -0.096 C 
ATOM     30  C   UNL     1       0.894   4.774  -1.741  0.00  0.00    -0.096 C 
ATOM     31  H   UNL     1       2.624   4.108  -0.778  0.00  0.00    -0.082 HD
ENDBRANCH  21  28
ENDBRANCH  20  21
ENDBRANCH   3  20
TORSDOF 8
