REMARK  Name = ZINC39461251
REMARK  4 active torsions:
REMARK  status: ('A' for Active; 'I' for Inactive)
REMARK    1  A    between atoms: C_1  and  C_2
REMARK    2  A    between atoms: C_4  and  C_11
REMARK    3  A    between atoms: C_17  and  C_20
REMARK    4  A    between atoms: C_20  and  C_22
REMARK                            x       y       z     vdW  Elec       q    Type
REMARK                         _______ _______ _______ _____ _____    ______ ____
ROOT
ATOM      1  C   UNL     1      -1.545  -2.621  -1.426  0.00  0.00    +0.231 C 
ATOM      2  O   UNL     1      -1.854  -1.823  -2.285  0.00  0.00    -0.274 OA
ATOM      3  N   UNL     1      -1.533  -3.940  -1.705  0.00  0.00    -0.300 N 
ATOM      4  C   UNL     1      -1.276  -4.926  -0.646  0.00  0.00    +0.108 C 
ATOM      5  C   UNL     1      -0.126  -5.836  -1.089  0.00  0.00    +0.020 C 
ATOM      6  C   UNL     1      -0.460  -6.448  -2.451  0.00  0.00    +0.014 C 
ATOM      7  C   UNL     1      -0.621  -5.334  -3.488  0.00  0.00    +0.078 C 
ATOM      8  C   UNL     1      -1.782  -4.418  -3.071  0.00  0.00    +0.119 C 
ENDROOT
BRANCH   1  12
ATOM      9  C   UNL     1      -1.879   1.630   0.398  0.00  0.00    +0.045 C 
ATOM     10  C   UNL     1      -1.166   0.326   0.150  0.00  0.00    -0.033 C 
ATOM     11  C   UNL     1      -1.834  -0.816   0.199  0.00  0.00    -0.000 C 
ATOM     12  C   UNL     1      -1.174  -2.139  -0.047  0.00  0.00    +0.184 C 
ATOM     13  C   UNL     1       0.318  -2.053   0.051  0.00  0.00    +0.233 C 
ATOM     14  O   UNL     1       0.951  -3.076   0.203  0.00  0.00    -0.274 OA
ATOM     15  N   UNL     1       0.983  -0.889  -0.021  0.00  0.00    -0.285 N 
ATOM     16  C   UNL     1       0.279   0.316  -0.154  0.00  0.00    +0.029 C 
ATOM     17  C   UNL     1       0.901   1.433  -0.542  0.00  0.00    +0.034 C 
ATOM     18  H   UNL     1       1.952  -0.882   0.014  0.00  0.00    +0.155 HD
ENDBRANCH   1  12
BRANCH   7  19
ATOM     19  C   UNL     1      -0.917  -5.939  -4.836  0.00  0.00    +0.168 C 
ATOM     20  O   UNL     1      -2.066  -6.055  -5.209  0.00  0.00    -0.292 OA
BRANCH  19  21
ATOM     21  C   UNL     1       0.183  -6.388  -5.696  0.00  0.00    +0.025 A 
ATOM     22  C   UNL     1       1.497  -6.372  -5.237  0.00  0.00    +0.012 A 
ATOM     23  C   UNL     1       2.534  -6.797  -6.053  0.00  0.00    +0.001 A 
ATOM     24  C   UNL     1       2.315  -7.242  -7.322  0.00  0.00    +0.008 A 
ATOM     25  C   UNL     1       1.014  -7.287  -7.851  0.00  0.00    -0.017 A 
ATOM     26  C   UNL     1      -0.078  -6.868  -7.053  0.00  0.00    -0.007 A 
ATOM     27  C   UNL     1      -1.375  -6.916  -7.575  0.00  0.00    +0.009 A 
ATOM     28  C   UNL     1      -1.574  -7.370  -8.845  0.00  0.00    +0.001 A 
ATOM     29  C   UNL     1      -0.503  -7.788  -9.632  0.00  0.00    +0.001 A 
ATOM     30  C   UNL     1       0.773  -7.744  -9.159  0.00  0.00    +0.008 A 
ENDBRANCH  19  21
ENDBRANCH   7  19
TORSDOF 3
