REMARK  Name = ZINC06198004
REMARK  11 active torsions:
REMARK  status: ('A' for Active; 'I' for Inactive)
REMARK    1  A    between atoms: C_1  and  C_2
REMARK    2  A    between atoms: C_2  and  C_3
REMARK    3  A    between atoms: C_10  and  C_15
REMARK    4  A    between atoms: C_15  and  C_17
REMARK    5  A    between atoms: C_15  and  N_70
REMARK    6  A    between atoms: N_21  and  C_22
REMARK    7  A    between atoms: C_22  and  C_23
REMARK    8  A    between atoms: C_23  and  O_24
REMARK    9  A    between atoms: O_24  and  C_25
REMARK   10  A    between atoms: C_28  and  C_31
REMARK   11  A    between atoms: C_31  and  C_32
REMARK                            x       y       z     vdW  Elec       q    Type
REMARK                         _______ _______ _______ _____ _____    ______ ____
ROOT
ATOM      1  C   UNL     1       1.133   7.465   0.032  0.00  0.00    +0.039 C 
ENDROOT
BRANCH   1   9
ATOM      2  C   UNL     1      -1.678   1.971  -0.406  0.00  0.00    -0.047 A 
ATOM      3  C   UNL     1      -0.520   1.205  -0.425  0.00  0.00    +0.005 A 
ATOM      4  C   UNL     1       0.720   1.802  -0.357  0.00  0.00    +0.026 A 
ATOM      5  C   UNL     1       0.815   3.187  -0.262  0.00  0.00    +0.049 A 
ATOM      6  C   UNL     1      -0.361   3.960  -0.237  0.00  0.00    -0.001 A 
ATOM      7  C   UNL     1      -1.609   3.331  -0.307  0.00  0.00    +0.013 A 
ATOM      8  C   UNL     1      -0.251   5.416  -0.137  0.00  0.00    +0.017 A 
ATOM      9  C   UNL     1       0.985   5.969  -0.072  0.00  0.00    +0.011 A 
ATOM     10  C   UNL     1       2.133   5.149  -0.102  0.00  0.00    +0.251 A 
ATOM     11  O   UNL     1       3.235   5.667  -0.043  0.00  0.00    -0.268 OA
ATOM     12  N   UNL     1       2.042   3.811  -0.193  0.00  0.00    -0.322 N 
ATOM     13  H   UNL     1       2.877   3.260  -0.211  0.00  0.00    +0.169 HD
BRANCH   2  15
ATOM     14  C   UNL     1      -3.517   0.970   0.923  0.00  0.00    +0.009 C 
ATOM     15  C   UNL     1      -3.022   1.295  -0.488  0.00  0.00    +0.032 C 
ENDBRANCH   2  15
ENDBRANCH   1   9
BRANCH   1  21
ATOM     16  C   UNL     1       2.248   9.391  -0.923  0.00  0.00    -0.077 C 
ATOM     17  C   UNL     1       3.288   9.829  -1.956  0.00  0.00    -0.015 C 
ATOM     18  C   UNL     1       2.784   9.479  -3.360  0.00  0.00    -0.010 C 
ATOM     19  C   UNL     1       2.512   7.975  -3.436  0.00  0.00    -0.015 C 
ATOM     20  C   UNL     1       1.494   7.591  -2.359  0.00  0.00    -0.077 C 
ATOM     21  N   UNL     1       2.048   7.930  -1.032  0.00  0.00    +0.389 N 
ATOM     22  H   UNL     1       2.955   7.461  -0.919  0.00  0.00    -0.080 HD
BRANCH  18  23
ATOM     23  C   UNL     1       3.845   9.860  -4.394  0.00  0.00    +0.038 C 
BRANCH  23  24
ATOM     24  C   UNL     1       4.024  11.356  -4.404  0.00  0.00    -0.047 A 
ATOM     25  C   UNL     1       3.260  12.138  -5.249  0.00  0.00    +0.003 A 
ATOM     26  C   UNL     1       3.421  13.511  -5.255  0.00  0.00    +0.000 A 
ATOM     27  C   UNL     1       4.353  14.101  -4.422  0.00  0.00    +0.000 A 
ATOM     28  C   UNL     1       5.121  13.319  -3.580  0.00  0.00    +0.000 A 
ATOM     29  C   UNL     1       4.957  11.946  -3.571  0.00  0.00    +0.003 A 
ENDBRANCH  23  24
ENDBRANCH  18  23
ENDBRANCH   1  21
BRANCH   1  30
ATOM     30  C   UNL     1       1.722   7.820   1.373  0.00  0.00    +0.142 A 
ATOM     31  N   UNL     1       2.970   7.669   1.744  0.00  0.00    -0.115 NA
ATOM     32  N   UNL     1       3.078   8.089   2.957  0.00  0.00    -0.023 NA
ATOM     33  N   UNL     1       1.929   8.497   3.372  0.00  0.00    -0.044 NA
ATOM     34  N   UNL     1       1.067   8.347   2.424  0.00  0.00    -0.228 N 
BRANCH  34  35
ATOM     35  C   UNL     1      -0.356   8.687   2.480  0.00  0.00    +0.175 C 
BRANCH  35  36
ATOM     36  C   UNL     1      -1.150   7.478   2.980  0.00  0.00    +0.183 C 
BRANCH  36  37
ATOM     37  O   UNL     1      -2.539   7.810   3.035  0.00  0.00    -0.381 OA
ATOM     38  C   UNL     1      -3.373   6.744   3.493  0.00  0.00    +0.194 C 
ENDBRANCH  36  37
ENDBRANCH  35  36
ENDBRANCH  34  35
ENDBRANCH   1  30
TORSDOF 9
