REMARK  Name = ZINC44783200
REMARK  3 active torsions:
REMARK  status: ('A' for Active; 'I' for Inactive)
REMARK    1  A    between atoms: C_4  and  C_7
REMARK    2  A    between atoms: C_4  and  C_11
REMARK    3  A    between atoms: N_8  and  O_9
REMARK                            x       y       z     vdW  Elec       q    Type
REMARK                         _______ _______ _______ _____ _____    ______ ____
ROOT
ATOM      1  C   UNL     1      -0.239   1.244   0.271  0.00  0.00    +0.000 C 
ATOM      2  C   UNL     1       1.126   1.892   0.032  0.00  0.00    +0.001 C 
ATOM      3  C   UNL     1       2.074   1.520   1.174  0.00  0.00    +0.024 C 
ATOM      4  C   UNL     1       2.233  -0.001   1.229  0.00  0.00    +0.105 C 
ATOM      5  C   UNL     1       0.868  -0.649   1.468  0.00  0.00    +0.024 C 
ATOM      6  C   UNL     1      -0.080  -0.276   0.326  0.00  0.00    +0.001 C 
ENDROOT
BRANCH   4   7
ATOM      7  C   UNL     1       2.802  -0.494  -0.076  0.00  0.00    +0.229 C 
ATOM      8  O   UNL     1       2.138  -1.211  -0.794  0.00  0.00    -0.275 OA
ATOM      9  N   UNL     1       4.048  -0.139  -0.446  0.00  0.00    -0.301 N 
ATOM     10  C   UNL     1       5.005   0.613   0.380  0.00  0.00    +0.108 C 
ATOM     11  C   UNL     1       6.283   0.808  -0.463  0.00  0.00    +0.020 C 
ATOM     12  C   UNL     1       5.768   0.647  -1.918  0.00  0.00    +0.020 C 
ATOM     13  C   UNL     1       4.681  -0.445  -1.742  0.00  0.00    +0.108 C 
ENDBRANCH   4   7
BRANCH   4  14
ATOM     14  C   UNL     1       3.167  -0.368   2.354  0.00  0.00    +0.147 C 
ATOM     15  N   UNL     1       3.390  -1.610   2.629  0.00  0.00    -0.076 NA
ATOM     16  N   UNL     1       3.782   0.622   3.089  0.00  0.00    -0.343 N 
ATOM     17  H   UNL     1       3.672   1.552   2.837  0.00  0.00    +0.144 HD
ATOM     18  H   UNL     1       4.325   0.388   3.858  0.00  0.00    +0.144 HD
BRANCH  15  19
ATOM     19  O   UNL     1       2.854  -2.626   1.802  0.00  0.00    -0.408 OA
ATOM     20  H   UNL     1       3.075  -3.523   2.087  0.00  0.00    +0.328 HD
ENDBRANCH  15  19
ENDBRANCH   4  14
TORSDOF 3
