REMARK  Name = ZINC19989042
REMARK  10 active torsions:
REMARK  status: ('A' for Active; 'I' for Inactive)
REMARK    1  A    between atoms: C_1  and  C_2
REMARK    2  A    between atoms: C_5  and  S_8
REMARK    3  A    between atoms: S_8  and  C_9
REMARK    4  A    between atoms: C_9  and  C_10
REMARK    5  A    between atoms: C_10  and  O_11
REMARK    6  A    between atoms: O_11  and  C_12
REMARK    7  A    between atoms: C_12  and  C_13
REMARK    8  A    between atoms: C_13  and  N_14
REMARK    9  A    between atoms: C_16  and  C_23
REMARK   10  A    between atoms: C_19  and  C_22
REMARK                            x       y       z     vdW  Elec       q    Type
REMARK                         _______ _______ _______ _____ _____    ______ ____
ROOT
ATOM      1  O   UNL     1       0.246  -6.843   3.274  0.00  0.00    -0.378 OA
ENDROOT
BRANCH   1   2
ATOM      2  C   UNL     1       0.254  -6.475   1.893  0.00  0.00    +0.171 C 
BRANCH   2   3
ATOM      3  C   UNL     1       0.373  -4.955   1.772  0.00  0.00    +0.102 C 
BRANCH   3   4
ATOM      4  S   UNL     1       0.383  -4.487   0.019  0.00  0.00    -0.123 S 
BRANCH   4   9
ATOM      5  C   UNL     1       0.862   1.529   0.114  0.00  0.00    +0.044 C 
ATOM      6  C   UNL     1       0.743   0.027   0.090  0.00  0.00    -0.050 A 
ATOM      7  C   UNL     1       0.672  -0.640  -1.119  0.00  0.00    +0.004 A 
ATOM      8  C   UNL     1       0.562  -2.016  -1.145  0.00  0.00    +0.015 A 
ATOM      9  C   UNL     1       0.524  -2.731   0.047  0.00  0.00    +0.008 A 
ATOM     10  C   UNL     1       0.596  -2.057   1.260  0.00  0.00    +0.015 A 
ATOM     11  C   UNL     1       0.711  -0.681   1.278  0.00  0.00    +0.004 A 
ENDBRANCH   4   9
ENDBRANCH   3   4
ENDBRANCH   2   3
ENDBRANCH   1   2
BRANCH   1  12
ATOM     12  C   UNL     1       0.138  -8.250   3.500  0.00  0.00    +0.175 C 
BRANCH  12  13
ATOM     13  C   UNL     1       0.139  -8.527   5.005  0.00  0.00    +0.112 C 
BRANCH  13  14
ATOM     14  N   UNL     1      -1.065  -7.943   5.611  0.00  0.00    -0.295 NA
ATOM     15  C   UNL     1      -0.895  -7.773   7.062  0.00  0.00    +0.115 C 
ATOM     16  C   UNL     1      -2.146  -7.109   7.643  0.00  0.00    +0.130 C 
ATOM     17  O   UNL     1      -3.293  -7.901   7.320  0.00  0.00    -0.371 OA
ATOM     18  C   UNL     1      -3.489  -8.085   5.916  0.00  0.00    +0.130 C 
ATOM     19  C   UNL     1      -2.252  -8.759   5.318  0.00  0.00    +0.115 C 
ATOM     20  C   UNL     1      -4.716  -8.969   5.683  0.00  0.00    +0.039 C 
ATOM     21  C   UNL     1      -2.306  -5.710   7.045  0.00  0.00    +0.039 C 
ENDBRANCH  13  14
ENDBRANCH  12  13
ENDBRANCH   1  12
TORSDOF 7
