REMARK  Name = ZINC12654427
REMARK  11 active torsions:
REMARK  status: ('A' for Active; 'I' for Inactive)
REMARK    1  A    between atoms: C_1  and  C_2
REMARK    2  A    between atoms: C_2  and  O_3
REMARK    3  A    between atoms: O_3  and  C_4
REMARK    4  A    between atoms: C_4  and  C_6
REMARK    5  A    between atoms: C_6  and  C_7
REMARK    6  A    between atoms: C_7  and  C_8
REMARK    7  A    between atoms: C_8  and  C_10
REMARK    8  A    between atoms: C_8  and  C_11
REMARK    9  A    between atoms: C_17  and  C_35
REMARK   10  A    between atoms: C_28  and  O_34
REMARK   11  A    between atoms: C_32  and  C_33
REMARK                            x       y       z     vdW  Elec       q    Type
REMARK                         _______ _______ _______ _____ _____    ______ ____
ROOT
ATOM      1  C   UNL     1      -0.849   1.510  -3.712  0.00  0.00    -0.002 C 
ATOM      2  C   UNL     1      -2.288   0.968  -3.614  0.00  0.00    +0.004 C 
ATOM      3  C   UNL     1      -2.659   0.505  -5.036  0.00  0.00    +0.004 C 
ATOM      4  C   UNL     1      -1.312   0.078  -5.676  0.00  0.00    -0.001 C 
ATOM      5  C   UNL     1      -0.274   0.999  -5.031  0.00  0.00    -0.026 C 
ATOM      6  C   UNL     1       1.123   0.442  -4.959  0.00  0.00    +0.007 C 
ATOM      7  C   UNL     1       1.189  -1.039  -4.602  0.00  0.00    +0.005 C 
ATOM      8  C   UNL     1       0.349  -1.810  -5.625  0.00  0.00    +0.002 C 
ATOM      9  C   UNL     1      -1.110  -1.411  -5.415  0.00  0.00    -0.003 C 
ATOM     10  C   UNL     1      -1.587  -1.802  -4.020  0.00  0.00    +0.008 C 
ATOM     11  C   UNL     1      -1.480  -3.321  -3.835  0.00  0.00    +0.031 C 
ATOM     12  C   UNL     1      -0.046  -3.730  -4.124  0.00  0.00    -0.065 C 
ATOM     13  C   UNL     1       0.599  -4.401  -3.216  0.00  0.00    +0.004 C 
ATOM     14  C   UNL     1       2.027  -4.834  -3.388  0.00  0.00    +0.137 C 
ATOM     15  C   UNL     1       2.309  -5.014  -4.883  0.00  0.00    +0.036 C 
ATOM     16  C   UNL     1       2.004  -3.696  -5.593  0.00  0.00    +0.014 C 
ATOM     17  C   UNL     1       0.541  -3.314  -5.441  0.00  0.00    -0.008 C 
ATOM     18  C   UNL     1      -0.227  -4.038  -6.554  0.00  0.00    +0.016 C 
ATOM     19  C   UNL     1      -0.173   2.242  -5.959  0.00  0.00    +0.012 C 
ENDROOT
BRANCH   1  20
ATOM     20  C   UNL     1      -0.037   1.099  -2.490  0.00  0.00    -0.010 C 
ATOM     21  C   UNL     1       1.130   2.071  -2.304  0.00  0.00    +0.008 C 
BRANCH  20  22
ATOM     22  C   UNL     1      -0.931   1.131  -1.249  0.00  0.00    +0.014 C 
BRANCH  22  23
ATOM     23  C   UNL     1      -0.151   0.600  -0.045  0.00  0.00    +0.121 C 
BRANCH  23  24
ATOM     24  C   UNL     1      -1.031   0.632   1.178  0.00  0.00    +0.307 C 
ATOM     25  O   UNL     1      -2.167   1.037   1.094  0.00  0.00    -0.251 OA
BRANCH  24  26
ATOM     26  O   UNL     1      -0.555   0.209   2.359  0.00  0.00    -0.465 OA
BRANCH  26  28
ATOM     27  C   UNL     1      -0.744  -0.250   4.743  0.00  0.00    +0.048 C 
ATOM     28  C   UNL     1      -1.459   0.268   3.494  0.00  0.00    +0.229 C 
ENDBRANCH  26  28
ENDBRANCH  24  26
ENDBRANCH  23  24
ENDBRANCH  22  23
ENDBRANCH  20  22
ENDBRANCH   1  20
BRANCH  14  29
ATOM     29  O   UNL     1       2.241  -6.070  -2.705  0.00  0.00    -0.388 OA
ATOM     30  H   UNL     1       2.081  -6.026  -1.752  0.00  0.00    +0.210 HD
ENDBRANCH  14  29
TORSDOF 7
