REMARK  Name = ZINC35193210
REMARK  18 active torsions:
REMARK  status: ('A' for Active; 'I' for Inactive)
REMARK    1  A    between atoms: C_1  and  C_2
REMARK    2  A    between atoms: C_2  and  C_3
REMARK    3  A    between atoms: C_3  and  C_4
REMARK    4  A    between atoms: C_4  and  C_5
REMARK    5  A    between atoms: C_5  and  C_6
REMARK    6  A    between atoms: C_9  and  C_13
REMARK    7  A    between atoms: N_15  and  C_16
REMARK    8  A    between atoms: C_16  and  C_17
REMARK    9  A    between atoms: C_17  and  C_18
REMARK   10  A    between atoms: C_21  and  O_26
REMARK   11  A    between atoms: C_22  and  O_24
REMARK   12  A    between atoms: O_24  and  C_25
REMARK   13  A    between atoms: O_26  and  C_27
REMARK   14  A    between atoms: C_28  and  C_30
REMARK   15  A    between atoms: C_32  and  O_38
REMARK   16  A    between atoms: C_34  and  O_36
REMARK   17  A    between atoms: O_36  and  C_37
REMARK   18  A    between atoms: O_38  and  C_39
REMARK                            x       y       z     vdW  Elec       q    Type
REMARK                         _______ _______ _______ _____ _____    ______ ____
ROOT
ATOM      1  C   UNL     1       1.051  -3.371   3.231  0.00  0.00    +0.135 C 
ATOM      2  N   UNL     1       1.962  -4.211   4.031  0.00  0.00    -0.273 N 
ATOM      3  C   UNL     1       1.540  -5.593   4.243  0.00  0.00    +0.173 C 
ATOM      4  C   UNL     1       0.717  -6.113   3.028  0.00  0.00    +0.103 C 
ATOM      5  S   UNL     1      -0.231  -4.565   2.657  0.00  0.00    -0.136 S 
ATOM      6  C   UNL     1       3.115  -3.732   4.537  0.00  0.00    +0.248 C 
ATOM      7  O   UNL     1       3.792  -4.425   5.272  0.00  0.00    -0.270 OA
ENDROOT
BRANCH   6   8
ATOM      8  C   UNL     1       3.558  -2.362   4.199  0.00  0.00    +0.044 A 
ATOM      9  C   UNL     1       2.744  -1.535   3.424  0.00  0.00    +0.059 A 
ATOM     10  C   UNL     1       3.162  -0.252   3.110  0.00  0.00    +0.124 A 
ATOM     11  C   UNL     1       4.389   0.210   3.564  0.00  0.00    +0.091 A 
ATOM     12  C   UNL     1       5.201  -0.609   4.335  0.00  0.00    +0.124 A 
ATOM     13  C   UNL     1       4.788  -1.891   4.659  0.00  0.00    +0.059 A 
BRANCH  12  14
ATOM     14  O   UNL     1       6.402  -0.151   4.777  0.00  0.00    -0.495 OA
ATOM     15  C   UNL     1       6.763   1.182   4.411  0.00  0.00    +0.277 C 
ENDBRANCH  12  14
BRANCH  10  16
ATOM     16  O   UNL     1       2.370   0.554   2.355  0.00  0.00    -0.495 OA
ATOM     17  C   UNL     1       2.910   1.821   1.974  0.00  0.00    +0.277 C 
ENDBRANCH  10  16
ENDBRANCH   6   8
BRANCH   3  18
ATOM     18  C   UNL     1       2.759  -6.461   4.423  0.00  0.00    +0.234 C 
ATOM     19  O   UNL     1       3.808  -6.150   3.900  0.00  0.00    -0.274 OA
ATOM     20  N   UNL     1       2.683  -7.583   5.166  0.00  0.00    -0.313 N 
ATOM     21  H   UNL     1       1.863  -7.798   5.639  0.00  0.00    +0.149 HD
BRANCH  20  22
ATOM     22  C   UNL     1       3.837  -8.480   5.258  0.00  0.00    +0.109 C 
BRANCH  22  23
ATOM     23  C   UNL     1       3.453  -9.726   6.059  0.00  0.00    +0.054 C 
BRANCH  23  24
ATOM     24  C   UNL     1       4.667 -10.600   6.241  0.00  0.00    -0.042 A 
ATOM     25  C   UNL     1       5.003 -11.525   5.270  0.00  0.00    +0.007 A 
ATOM     26  C   UNL     1       6.115 -12.329   5.432  0.00  0.00    +0.049 A 
ATOM     27  C   UNL     1       6.896 -12.210   6.570  0.00  0.00    +0.161 A 
ATOM     28  C   UNL     1       6.559 -11.279   7.548  0.00  0.00    +0.162 A 
ATOM     29  C   UNL     1       5.445 -10.472   7.377  0.00  0.00    +0.053 A 
BRANCH  28  30
ATOM     30  O   UNL     1       7.322 -11.158   8.666  0.00  0.00    -0.491 OA
ATOM     31  C   UNL     1       6.916 -10.182   9.627  0.00  0.00    +0.277 C 
ENDBRANCH  28  30
BRANCH  27  32
ATOM     32  O   UNL     1       7.991 -13.001   6.731  0.00  0.00    -0.491 OA
ATOM     33  C   UNL     1       8.276 -13.934   5.687  0.00  0.00    +0.277 C 
ENDBRANCH  27  32
ENDBRANCH  23  24
ENDBRANCH  22  23
ENDBRANCH  20  22
ENDBRANCH   3  18
BRANCH   1  34
ATOM     34  C   UNL     1       0.422  -2.278   4.097  0.00  0.00    +0.033 C 
BRANCH  34  35
ATOM     35  C   UNL     1      -0.499  -1.411   3.235  0.00  0.00    +0.003 C 
BRANCH  35  36
ATOM     36  C   UNL     1      -1.127  -0.318   4.101  0.00  0.00    -0.000 C 
BRANCH  36  38
ATOM     37  C   UNL     1      -2.677   1.642   4.106  0.00  0.00    +0.004 C 
ATOM     38  C   UNL     1      -2.049   0.548   3.240  0.00  0.00    -0.003 C 
ENDBRANCH  36  38
ENDBRANCH  35  36
ENDBRANCH  34  35
ENDBRANCH   1  34
TORSDOF 13
