REMARK  Name = ZINC05246141
REMARK  5 active torsions:
REMARK  status: ('A' for Active; 'I' for Inactive)
REMARK    1  A    between atoms: N_4  and  C_7
REMARK    2  A    between atoms: C_11  and  N_25
REMARK    3  A    between atoms: C_12  and  C_15
REMARK    4  A    between atoms: N_17  and  C_18
REMARK    5  A    between atoms: C_18  and  C_19
REMARK                            x       y       z     vdW  Elec       q    Type
REMARK                         _______ _______ _______ _____ _____    ______ ____
ROOT
ATOM      1  C   UNL     1      -3.440   2.952   7.566  0.00  0.00    +0.103 A 
ATOM      2  C   UNL     1      -2.426   2.158   8.126  0.00  0.00    -0.005 A 
ATOM      3  C   UNL     1      -1.459   1.639   7.331  0.00  0.00    -0.030 A 
ATOM      4  C   UNL     1      -1.480   1.917   5.935  0.00  0.00    +0.031 A 
ATOM      5  C   UNL     1      -0.548   1.465   4.914  0.00  0.00    +0.054 A 
ATOM      6  C   UNL     1      -0.762   1.862   3.611  0.00  0.00    +0.097 A 
ATOM      7  S   UNL     1      -2.241   2.852   3.721  0.00  0.00    -0.064 S 
ATOM      8  C   UNL     1      -2.537   2.727   5.467  0.00  0.00    +0.089 A 
ATOM      9  C   UNL     1      -0.348   0.766   7.847  0.00  0.00    +0.036 C 
ATOM     10  C   UNL     1      -0.211   0.910   9.362  0.00  0.00    +0.005 C 
ATOM     11  C   UNL     1      -1.597   0.721   9.990  0.00  0.00    +0.005 C 
ATOM     12  C   UNL     1      -2.466   1.920   9.614  0.00  0.00    +0.039 C 
ATOM     13  N   UNL     1      -3.517   3.250   6.241  0.00  0.00    -0.337 N 
ATOM     14  H   UNL     1      -4.268   3.833   5.854  0.00  0.00    +0.168 HD
ENDROOT
BRANCH   1  18
ATOM     15  C   UNL     1      -6.806   4.981   9.038  0.00  0.00    +0.003 C 
ATOM     16  C   UNL     1      -5.404   5.482   9.396  0.00  0.00    +0.019 C 
ATOM     17  C   UNL     1      -4.399   4.943   8.376  0.00  0.00    +0.106 C 
ATOM     18  N   UNL     1      -4.430   3.475   8.384  0.00  0.00    -0.316 N 
ATOM     19  C   UNL     1      -5.754   2.970   7.997  0.00  0.00    +0.106 C 
ATOM     20  C   UNL     1      -6.800   3.450   9.006  0.00  0.00    +0.019 C 
ENDBRANCH   1  18
BRANCH   6  21
ATOM     21  C   UNL     1       0.004   1.553   2.462  0.00  0.00    +0.253 C 
ATOM     22  O   UNL     1       0.997   0.856   2.562  0.00  0.00    -0.270 OA
ATOM     23  N   UNL     1      -0.365   2.031   1.257  0.00  0.00    -0.308 N 
ATOM     24  H   UNL     1      -1.156   2.587   1.178  0.00  0.00    +0.149 HD
BRANCH  23  25
ATOM     25  C   UNL     1       0.428   1.712   0.068  0.00  0.00    +0.136 C 
BRANCH  25  26
ATOM     26  C   UNL     1      -0.203   2.373  -1.159  0.00  0.00    +0.135 C 
ATOM     27  C   UNL     1       0.625   2.042  -2.416  0.00  0.00    +0.035 C 
ATOM     28  C   UNL     1      -0.382   1.337  -3.358  0.00  0.00    +0.031 C 
ATOM     29  C   UNL     1      -1.744   1.817  -2.796  0.00  0.00    +0.160 C 
ATOM     30  O   UNL     1      -1.526   1.851  -1.369  0.00  0.00    -0.375 OA
ENDBRANCH  25  26
ENDBRANCH  23  25
ENDBRANCH   6  21
BRANCH   5  31
ATOM     31  N   UNL     1       0.531   0.657   5.243  0.00  0.00    -0.356 N 
ATOM     32  H   UNL     1       1.340   0.687   4.709  0.00  0.00    +0.142 HD
ATOM     33  H   UNL     1       0.477   0.063   6.008  0.00  0.00    +0.142 HD
ENDBRANCH   5  31
TORSDOF 5
