REMARK  Name = ZINC05560248
REMARK  5 active torsions:
REMARK  status: ('A' for Active; 'I' for Inactive)
REMARK    1  A    between atoms: C_1  and  C_2
REMARK    2  A    between atoms: C_3  and  C_17
REMARK    3  A    between atoms: C_4  and  C_10
REMARK    4  A    between atoms: N_19  and  C_20
REMARK    5  A    between atoms: C_25  and  C_26
REMARK                            x       y       z     vdW  Elec       q    Type
REMARK                         _______ _______ _______ _____ _____    ______ ____
ROOT
ATOM      1  C   UNL     1      -0.046   4.903  -0.397  0.00  0.00    +0.061 C 
ATOM      2  C   UNL     1      -0.136   3.444  -0.032  0.00  0.00    +0.019 C 
ATOM      3  C   UNL     1      -1.333   2.913   0.292  0.00  0.00    +0.056 C 
ATOM      4  C   UNL     1      -1.380   1.441   0.648  0.00  0.00    +0.142 C 
ATOM      5  N   UNL     1      -0.103   0.707   0.622  0.00  0.00    -0.288 N 
ATOM      6  C   UNL     1       1.015   1.377   0.278  0.00  0.00    +0.304 C 
ATOM      7  O   UNL     1       2.073   0.780   0.249  0.00  0.00    -0.252 OA
ATOM      8  N   UNL     1       0.998   2.679  -0.033  0.00  0.00    -0.273 N 
ATOM      9  H   UNL     1      -0.068  -0.236   0.843  0.00  0.00    +0.151 HD
ATOM     10  H   UNL     1       1.836   3.104  -0.272  0.00  0.00    +0.156 HD
ENDROOT
BRANCH   4  11
ATOM     11  C   UNL     1      -1.956   1.321   2.035  0.00  0.00    -0.022 A 
ATOM     12  C   UNL     1      -1.150   1.530   3.139  0.00  0.00    +0.007 A 
ATOM     13  C   UNL     1      -1.680   1.425   4.411  0.00  0.00    +0.020 A 
ATOM     14  C   UNL     1      -3.014   1.101   4.580  0.00  0.00    +0.041 A 
ATOM     15  C   UNL     1      -3.819   0.886   3.475  0.00  0.00    +0.020 A 
ATOM     16  C   UNL     1      -3.289   0.997   2.204  0.00  0.00    +0.007 A 
ATOM     17 CL   UNL     1      -3.678   0.962   6.178  0.00  0.00    -0.084 Cl
ENDBRANCH   4  11
BRANCH   3  18
ATOM     18  C   UNL     1      -2.508   3.704   0.294  0.00  0.00    +0.248 C 
ATOM     19  O   UNL     1      -3.335   3.568  -0.589  0.00  0.00    -0.270 OA
ATOM     20  N   UNL     1      -2.711   4.608   1.273  0.00  0.00    -0.281 N 
ATOM     21  H   UNL     1      -2.015   4.777   1.928  0.00  0.00    +0.155 HD
BRANCH  20  22
ATOM     22  C   UNL     1      -3.923   5.301   1.345  0.00  0.00    +0.045 A 
ATOM     23  C   UNL     1      -4.641   5.569   0.186  0.00  0.00    +0.024 A 
ATOM     24  C   UNL     1      -5.840   6.250   0.261  0.00  0.00    +0.002 A 
ATOM     25  C   UNL     1      -6.321   6.675   1.487  0.00  0.00    +0.001 A 
ATOM     26  C   UNL     1      -5.606   6.414   2.641  0.00  0.00    +0.014 A 
ATOM     27  C   UNL     1      -4.408   5.729   2.574  0.00  0.00    +0.076 A 
BRANCH  27  28
ATOM     28  C   UNL     1      -3.629   5.446   3.832  0.00  0.00    +0.419 C 
ATOM     29  F   UNL     1      -4.353   5.899   4.941  0.00  0.00    -0.166 F 
ATOM     30  F   UNL     1      -3.414   4.068   3.948  0.00  0.00    -0.166 F 
ATOM     31  F   UNL     1      -2.397   6.107   3.777  0.00  0.00    -0.166 F 
ENDBRANCH  27  28
ENDBRANCH  20  22
ENDBRANCH   3  18
TORSDOF 4
