REMARK  Name = ZINC11666653
REMARK  6 active torsions:
REMARK  status: ('A' for Active; 'I' for Inactive)
REMARK    1  A    between atoms: C_1  and  C_2
REMARK    2  A    between atoms: C_5  and  C_7
REMARK    3  A    between atoms: C_18  and  O_33
REMARK    4  A    between atoms: C_22  and  C_32
REMARK    5  A    between atoms: C_27  and  C_31
REMARK    6  A    between atoms: C_28  and  O_30
REMARK                            x       y       z     vdW  Elec       q    Type
REMARK                         _______ _______ _______ _____ _____    ______ ____
ROOT
ATOM      1  C   UNL     1       1.680  -1.729   0.041  0.00  0.00    +0.048 C 
ATOM      2  C   UNL     1       0.827  -2.747   0.109  0.00  0.00    -0.037 C 
ATOM      3  C   UNL     1       1.188  -4.223   0.195  0.00  0.00    +0.038 C 
ATOM      4  C   UNL     1      -0.064  -4.939  -0.338  0.00  0.00    +0.005 C 
ATOM      5  C   UNL     1      -0.105  -6.399   0.059  0.00  0.00    +0.001 C 
ATOM      6  C   UNL     1       1.219  -7.088  -0.354  0.00  0.00    +0.031 C 
ATOM      7  C   UNL     1       1.173  -8.529   0.063  0.00  0.00    -0.027 C 
ATOM      8  C   UNL     1       0.460  -8.953   1.065  0.00  0.00    -0.065 C 
ATOM      9  C   UNL     1       0.505 -10.433   1.407  0.00  0.00    +0.062 C 
ATOM     10  C   UNL     1       0.829 -10.573   2.897  0.00  0.00    +0.119 C 
ATOM     11  C   UNL     1      -0.187  -9.777   3.717  0.00  0.00    +0.032 C 
ATOM     12  C   UNL     1      -0.049  -8.290   3.383  0.00  0.00    +0.014 C 
ATOM     13  C   UNL     1      -0.405  -8.067   1.911  0.00  0.00    -0.008 C 
ATOM     14  C   UNL     1      -0.283  -6.593   1.562  0.00  0.00    +0.003 C 
ATOM     15  C   UNL     1      -1.560  -5.865   2.002  0.00  0.00    +0.005 C 
ATOM     16  C   UNL     1      -1.391  -4.372   1.740  0.00  0.00    +0.010 C 
ATOM     17  C   UNL     1      -1.219  -4.105   0.242  0.00  0.00    +0.001 C 
ATOM     18  C   UNL     1      -0.686  -2.653   0.110  0.00  0.00    +0.147 C 
ATOM     19  C   UNL     1      -2.524  -4.315  -0.530  0.00  0.00    +0.014 C 
ATOM     20  C   UNL     1      -1.862  -8.486   1.705  0.00  0.00    +0.016 C 
ENDROOT
BRANCH   1  25
ATOM     21  C   UNL     1      -1.438   2.172   0.475  0.00  0.00    +0.086 C 
ATOM     22  C   UNL     1      -0.179   1.367   0.278  0.00  0.00    +0.103 A 
ATOM     23  C   UNL     1       1.047   1.872   0.037  0.00  0.00    +0.045 A 
ATOM     24  C   UNL     1       1.927   0.779  -0.087  0.00  0.00    +0.049 A 
ATOM     25  C   UNL     1       1.180  -0.347   0.086  0.00  0.00    +0.128 A 
ATOM     26  O   UNL     1      -0.095   0.027   0.307  0.00  0.00    -0.461 OA
ENDBRANCH   1  25
BRANCH  18  27
ATOM     27  O   UNL     1      -1.141  -2.074  -1.115  0.00  0.00    -0.387 OA
ATOM     28  H   UNL     1      -0.728  -1.225  -1.326  0.00  0.00    +0.210 HD
ENDBRANCH  18  27
BRANCH  10  29
ATOM     29  O   UNL     1       2.142 -10.070   3.148  0.00  0.00    -0.391 OA
ATOM     30  H   UNL     1       2.840 -10.530   2.661  0.00  0.00    +0.210 HD
ENDBRANCH  10  29
TORSDOF 3
