REMARK  Name = ZINC63933239
REMARK  7 active torsions:
REMARK  status: ('A' for Active; 'I' for Inactive)
REMARK    1  A    between atoms: C_1  and  C_2
REMARK    2  A    between atoms: C_8  and  C_14
REMARK    3  A    between atoms: C_14  and  N_15
REMARK    4  A    between atoms: N_15  and  C_16
REMARK    5  A    between atoms: N_15  and  S_23
REMARK    6  A    between atoms: C_16  and  C_17
REMARK    7  A    between atoms: S_23  and  C_26
REMARK                            x       y       z     vdW  Elec       q    Type
REMARK                         _______ _______ _______ _____ _____    ______ ____
ROOT
ATOM      1  N   UNL     1       1.271  -1.833   5.711  0.00  0.00    -0.173 NA
ENDROOT
BRANCH   1   2
ATOM      2  S   UNL     1       2.009  -0.353   5.796  0.00  0.00    +0.061 S 
ATOM      3  O   UNL     1       2.445  -0.194   7.139  0.00  0.00    -0.153 OA
ATOM      4  O   UNL     1       2.900  -0.279   4.692  0.00  0.00    -0.153 OA
BRANCH   2   5
ATOM      5  C   UNL     1       0.765   0.865   5.523  0.00  0.00    +0.105 A 
ATOM      6  C   UNL     1       0.577   1.389   4.258  0.00  0.00    +0.028 A 
ATOM      7  C   UNL     1      -0.398   2.345   4.044  0.00  0.00    +0.002 A 
ATOM      8  C   UNL     1      -1.186   2.776   5.095  0.00  0.00    +0.000 A 
ATOM      9  C   UNL     1      -0.998   2.252   6.360  0.00  0.00    +0.002 A 
ATOM     10  C   UNL     1      -0.025   1.293   6.573  0.00  0.00    +0.028 A 
ENDBRANCH   2   5
ENDBRANCH   1   2
BRANCH   1  11
ATOM     11  C   UNL     1       1.294  -2.592   4.458  0.00  0.00    +0.126 C 
BRANCH  11  19
ATOM     12  C   UNL     1      -2.504   0.246   0.561  0.00  0.00    +0.045 C 
ATOM     13  C   UNL     1      -1.838  -1.105   0.499  0.00  0.00    -0.029 A 
ATOM     14  C   UNL     1      -1.786  -1.777  -0.681  0.00  0.00    +0.005 A 
ATOM     15  C   UNL     1      -1.184  -3.029  -0.807  0.00  0.00    +0.001 A 
ATOM     16  C   UNL     1      -0.611  -3.650   0.257  0.00  0.00    +0.009 A 
ATOM     17  C   UNL     1      -0.632  -2.981   1.558  0.00  0.00    -0.007 A 
ATOM     18  C   UNL     1      -0.070  -3.566   2.654  0.00  0.00    -0.003 C 
ATOM     19  C   UNL     1      -0.138  -2.801   3.962  0.00  0.00    +0.114 C 
ATOM     20  C   UNL     1      -0.823  -1.453   3.944  0.00  0.00    +0.225 C 
ATOM     21  O   UNL     1      -0.905  -0.797   4.965  0.00  0.00    -0.275 OA
ATOM     22  N   UNL     1      -1.332  -0.991   2.814  0.00  0.00    -0.284 N 
ATOM     23  C   UNL     1      -1.270  -1.657   1.661  0.00  0.00    +0.043 A 
ATOM     24  H   UNL     1      -1.767  -0.124   2.824  0.00  0.00    +0.155 HD
ENDBRANCH  11  19
ENDBRANCH   1  11
BRANCH   1  25
ATOM     25  C   UNL     1       0.595  -2.384   6.888  0.00  0.00    +0.141 C 
BRANCH  25  26
ATOM     26  C   UNL     1       1.553  -3.312   7.639  0.00  0.00    +0.134 C 
ATOM     27  C   UNL     1       0.813  -3.990   8.812  0.00  0.00    +0.035 C 
ATOM     28  C   UNL     1       1.891  -3.984   9.930  0.00  0.00    +0.031 C 
ATOM     29  C   UNL     1       2.624  -2.653   9.624  0.00  0.00    +0.160 C 
ATOM     30  O   UNL     1       2.635  -2.551   8.189  0.00  0.00    -0.375 OA
ENDBRANCH  25  26
ENDBRANCH   1  25
TORSDOF 6
