REMARK  Name = ZINC39666172
REMARK  11 active torsions:
REMARK  status: ('A' for Active; 'I' for Inactive)
REMARK    1  A    between atoms: C_1  and  C_2
REMARK    2  A    between atoms: C_5  and  O_8
REMARK    3  A    between atoms: O_8  and  C_9
REMARK    4  A    between atoms: C_9  and  C_11
REMARK    5  A    between atoms: C_9  and  C_12
REMARK    6  A    between atoms: C_12  and  N_13
REMARK    7  A    between atoms: C_14  and  C_16
REMARK    8  A    between atoms: C_27  and  C_29
REMARK    9  A    between atoms: C_32  and  O_39
REMARK   10  A    between atoms: C_33  and  C_35
REMARK   11  A    between atoms: O_39  and  C_40
REMARK                            x       y       z     vdW  Elec       q    Type
REMARK                         _______ _______ _______ _____ _____    ______ ____
ROOT
ATOM      1  C   UNL     1       4.658  -6.549   0.313  0.00  0.00    +0.100 C 
ATOM      2  C   UNL     1       4.938  -5.632  -0.898  0.00  0.00    +0.121 C 
ATOM      3  N   UNL     1       6.230  -6.113  -1.442  0.00  0.00    -0.296 N 
ATOM      4  C   UNL     1       6.152  -7.589  -1.324  0.00  0.00    +0.115 C 
ATOM      5  C   UNL     1       5.457  -7.833   0.029  0.00  0.00    -0.004 C 
ATOM      6  C   UNL     1       4.515  -9.029  -0.070  0.00  0.00    -0.010 C 
ATOM      7  C   UNL     1       5.337 -10.302  -0.294  0.00  0.00    -0.082 C 
ATOM      8  N   UNL     1       6.275 -10.483   0.820  0.00  0.00    +0.379 N 
ATOM      9  C   UNL     1       7.236  -9.374   0.851  0.00  0.00    -0.082 C 
ATOM     10  C   UNL     1       6.495  -8.062   1.123  0.00  0.00    -0.010 C 
ATOM     11  C   UNL     1       7.246  -5.376  -1.932  0.00  0.00    +0.247 C 
ATOM     12  O   UNL     1       7.137  -4.168  -2.012  0.00  0.00    -0.270 OA
ATOM     13  H   UNL     1       5.763 -10.508   1.689  0.00  0.00    -0.086 HD
ATOM     14  H   UNL     1       6.772 -11.354   0.701  0.00  0.00    -0.086 HD
ENDROOT
BRANCH  11  15
ATOM     15  C   UNL     1       8.491  -6.035  -2.372  0.00  0.00    +0.038 A 
ATOM     16  C   UNL     1       8.456  -7.344  -2.860  0.00  0.00    +0.016 A 
ATOM     17  C   UNL     1       9.620  -7.955  -3.270  0.00  0.00    +0.047 A 
ATOM     18  C   UNL     1      10.829  -7.272  -3.198  0.00  0.00    +0.132 A 
ATOM     19  C   UNL     1      10.867  -5.970  -2.713  0.00  0.00    +0.097 A 
ATOM     20  C   UNL     1       9.707  -5.350  -2.307  0.00  0.00    +0.029 A 
BRANCH  19  21
ATOM     21  C   UNL     1      12.180  -5.234  -2.638  0.00  0.00    +0.421 C 
ATOM     22  F   UNL     1      11.967  -3.952  -2.121  0.00  0.00    -0.166 F 
ATOM     23  F   UNL     1      13.059  -5.933  -1.803  0.00  0.00    -0.166 F 
ATOM     24  F   UNL     1      12.734  -5.135  -3.918  0.00  0.00    -0.166 F 
ENDBRANCH  19  21
BRANCH  18  25
ATOM     25  O   UNL     1      11.973  -7.878  -3.603  0.00  0.00    -0.495 OA
ATOM     26  C   UNL     1      11.862  -9.217  -4.090  0.00  0.00    +0.277 C 
ENDBRANCH  18  25
ENDBRANCH  11  15
BRANCH   1  28
ATOM     27  N   UNL     1       2.625  -7.096   1.611  0.00  0.00    -0.312 N 
ATOM     28  C   UNL     1       3.186  -6.857   0.410  0.00  0.00    +0.218 C 
ATOM     29  O   UNL     1       2.507  -6.890  -0.594  0.00  0.00    -0.275 OA
ATOM     30  H   UNL     1       3.169  -7.069   2.414  0.00  0.00    +0.149 HD
BRANCH  27  31
ATOM     31  C   UNL     1       1.194  -7.395   1.705  0.00  0.00    +0.148 C 
BRANCH  31  32
ATOM     32  C   UNL     1       0.816  -7.624   3.170  0.00  0.00    +0.187 C 
ATOM     33  C   UNL     1      -0.649  -8.058   3.256  0.00  0.00    +0.053 C 
BRANCH  32  34
ATOM     34  O   UNL     1       0.997  -6.411   3.904  0.00  0.00    -0.488 OA
BRANCH  34  39
ATOM     35  C   UNL     1       2.249  -6.896   9.374  0.00  0.00    +0.044 C 
ATOM     36  C   UNL     1       1.914  -6.767   7.910  0.00  0.00    -0.050 A 
ATOM     37  C   UNL     1       1.617  -7.894   7.168  0.00  0.00    +0.007 A 
ATOM     38  C   UNL     1       1.310  -7.778   5.826  0.00  0.00    +0.046 A 
ATOM     39  C   UNL     1       1.299  -6.528   5.224  0.00  0.00    +0.121 A 
ATOM     40  C   UNL     1       1.596  -5.398   5.971  0.00  0.00    +0.046 A 
ATOM     41  C   UNL     1       1.898  -5.519   7.314  0.00  0.00    +0.007 A 
ENDBRANCH  34  39
ENDBRANCH  32  34
ENDBRANCH  31  32
ENDBRANCH  27  31
ENDBRANCH   1  28
TORSDOF 8
