REMARK  Name = ZINC36556365
REMARK  19 active torsions:
REMARK  status: ('A' for Active; 'I' for Inactive)
REMARK    1  A    between atoms: C_1  and  C_2
REMARK    2  A    between atoms: C_5  and  C_7
REMARK    3  A    between atoms: C_7  and  N_8
REMARK    4  A    between atoms: N_8  and  C_9
REMARK    5  A    between atoms: C_9  and  C_11
REMARK    6  A    between atoms: C_9  and  C_18
REMARK    7  A    between atoms: C_16  and  O_17
REMARK    8  A    between atoms: N_20  and  C_21
REMARK    9  A    between atoms: C_21  and  C_22
REMARK   10  A    between atoms: C_21  and  C_23
REMARK   11  A    between atoms: C_21  and  C_24
REMARK   12  A    between atoms: C_24  and  C_25
REMARK   13  A    between atoms: C_25  and  C_26
REMARK   14  A    between atoms: C_25  and  C_27
REMARK   15  A    between atoms: C_25  and  C_28
REMARK   16  A    between atoms: C_29  and  C_31
REMARK   17  A    between atoms: C_31  and  C_33
REMARK   18  A    between atoms: C_31  and  O_39
REMARK   19  A    between atoms: O_39  and  C_40
REMARK                            x       y       z     vdW  Elec       q    Type
REMARK                         _______ _______ _______ _____ _____    ______ ____
ROOT
ATOM      1  C   UNL     1       3.149  -3.396  -1.329  0.00  0.00    +0.196 C 
ENDROOT
BRANCH   1   2
ATOM      2  C   UNL     1       2.181  -2.255  -1.510  0.00  0.00    +0.023 A 
ATOM      3  C   UNL     1       1.058  -2.168  -0.710  0.00  0.00    +0.009 A 
ATOM      4  C   UNL     1       0.169  -1.123  -0.875  0.00  0.00    +0.001 A 
ATOM      5  C   UNL     1       0.401  -0.161  -1.841  0.00  0.00    +0.004 A 
ATOM      6  C   UNL     1       1.522  -0.243  -2.644  0.00  0.00    +0.046 A 
ATOM      7  C   UNL     1       2.419  -1.289  -2.476  0.00  0.00    +0.122 A 
BRANCH   7   8
ATOM      8  O   UNL     1       3.526  -1.369  -3.260  0.00  0.00    -0.506 OA
ATOM      9  H   UNL     1       3.394  -1.869  -4.077  0.00  0.00    +0.292 HD
ENDBRANCH   7   8
ENDBRANCH   1   2
BRANCH   1  10
ATOM     10  C   UNL     1       4.289  -2.952  -0.449  0.00  0.00    +0.239 C 
ATOM     11  O   UNL     1       4.505  -3.524   0.598  0.00  0.00    -0.273 OA
ATOM     12  N   UNL     1       5.069  -1.919  -0.826  0.00  0.00    -0.308 N 
ATOM     13  H   UNL     1       4.896  -1.462  -1.664  0.00  0.00    +0.149 HD
BRANCH  12  14
ATOM     14  C   UNL     1       6.178  -1.488   0.029  0.00  0.00    +0.030 C 
ATOM     15  C   UNL     1       5.621  -0.898   1.326  0.00  0.00    +0.031 C 
ATOM     16  C   UNL     1       7.067  -2.689   0.356  0.00  0.00    +0.031 C 
BRANCH  14  17
ATOM     17  C   UNL     1       7.002  -0.426  -0.702  0.00  0.00    +0.031 C 
BRANCH  17  18
ATOM     18  C   UNL     1       7.242  -0.871  -2.146  0.00  0.00    -0.036 C 
ATOM     19  C   UNL     1       6.013  -0.535  -2.993  0.00  0.00    +0.010 C 
ATOM     20  C   UNL     1       8.464  -0.142  -2.708  0.00  0.00    +0.010 C 
ATOM     21  C   UNL     1       7.489  -2.381  -2.180  0.00  0.00    +0.010 C 
ENDBRANCH  17  18
ENDBRANCH  14  17
ENDBRANCH  12  14
ENDBRANCH   1  10
BRANCH   1  22
ATOM     22  N   UNL     1       2.461  -4.527  -0.703  0.00  0.00    -0.276 N 
ATOM     23  C   UNL     1       2.083  -4.454   0.589  0.00  0.00    +0.250 C 
ATOM     24  O   UNL     1       2.292  -3.443   1.226  0.00  0.00    -0.272 OA
BRANCH  22  25
ATOM     25  C   UNL     1       2.182  -5.736  -1.480  0.00  0.00    +0.183 C 
BRANCH  25  30
ATOM     26  C   UNL     1       6.661  -7.924  -2.250  0.00  0.00    +0.086 C 
ATOM     27  C   UNL     1       5.289  -7.642  -1.693  0.00  0.00    +0.102 A 
ATOM     28  C   UNL     1       4.664  -8.358  -0.741  0.00  0.00    +0.045 A 
ATOM     29  C   UNL     1       3.409  -7.745  -0.525  0.00  0.00    +0.046 A 
ATOM     30  C   UNL     1       3.341  -6.691  -1.358  0.00  0.00    +0.122 A 
ATOM     31  O   UNL     1       4.486  -6.630  -2.059  0.00  0.00    -0.463 OA
ENDBRANCH  25  30
ENDBRANCH  22  25
BRANCH  23  32
ATOM     32  C   UNL     1       1.403  -5.629   1.242  0.00  0.00    +0.233 C 
BRANCH  32  33
ATOM     33  C   UNL     1      -0.068  -5.605   0.912  0.00  0.00    -0.010 A 
ATOM     34  C   UNL     1      -0.877  -4.613   1.433  0.00  0.00    +0.006 A 
ATOM     35  C   UNL     1      -2.225  -4.591   1.131  0.00  0.00    +0.000 A 
ATOM     36  C   UNL     1      -2.765  -5.561   0.307  0.00  0.00    +0.000 A 
ATOM     37  C   UNL     1      -1.955  -6.553  -0.215  0.00  0.00    +0.000 A 
ATOM     38  C   UNL     1      -0.606  -6.572   0.084  0.00  0.00    +0.006 A 
ENDBRANCH  32  33
BRANCH  32  39
ATOM     39  O   UNL     1       1.574  -5.552   2.659  0.00  0.00    -0.366 OA
ATOM     40  C   UNL     1       2.747  -6.213   3.139  0.00  0.00    +0.195 C 
ENDBRANCH  32  39
ENDBRANCH  23  32
ENDBRANCH   1  22
TORSDOF 12
