REMARK  Name = ZINC10751577
REMARK  9 active torsions:
REMARK  status: ('A' for Active; 'I' for Inactive)
REMARK    1  A    between atoms: C_1  and  N_60
REMARK    2  A    between atoms: C_2  and  N_60
REMARK    3  A    between atoms: C_3  and  C_4
REMARK    4  A    between atoms: C_3  and  N_60
REMARK    5  A    between atoms: C_4  and  C_5
REMARK    6  A    between atoms: C_5  and  N_6
REMARK    7  A    between atoms: C_17  and  C_19
REMARK    8  A    between atoms: N_24  and  S_26
REMARK    9  A    between atoms: S_26  and  C_29
REMARK                            x       y       z     vdW  Elec       q    Type
REMARK                         _______ _______ _______ _____ _____    ______ ____
ROOT
ATOM      1  N   UNL     1      -0.571   1.399  -3.685  0.00  0.00    -0.250 N 
ATOM      2  C   UNL     1      -0.099   0.653  -4.753  0.00  0.00    +0.168 A 
ATOM      3  N   UNL     1       0.896  -0.202  -4.785  0.00  0.00    -0.224 NA
ATOM      4  C   UNL     1       1.249  -0.865  -5.908  0.00  0.00    +0.080 A 
ATOM      5  C   UNL     1       2.292  -1.805  -6.076  0.00  0.00    +0.032 A 
ATOM      6  C   UNL     1       2.517  -2.392  -7.293  0.00  0.00    +0.040 A 
ATOM      7  C   UNL     1       1.736  -2.087  -8.402  0.00  0.00    +0.125 A 
ATOM      8  C   UNL     1       0.706  -1.171  -8.273  0.00  0.00    +0.055 A 
ATOM      9  C   UNL     1       0.474  -0.579  -7.056  0.00  0.00    +0.043 A 
ATOM     10  S   UNL     1      -0.697   0.605  -6.437  0.00  0.00    -0.052 S 
ATOM     11  F   UNL     1       1.979  -2.679  -9.591  0.00  0.00    -0.205 F 
ATOM     12  C   UNL     1      -0.092   1.176  -2.444  0.00  0.00    +0.226 C 
ATOM     13  O   UNL     1      -0.559   1.775  -1.498  0.00  0.00    -0.275 OA
ENDROOT
BRANCH  12  14
ATOM     14  C   UNL     1       1.022   0.183  -2.233  0.00  0.00    +0.091 C 
ATOM     15  C   UNL     1       2.328   0.756  -2.789  0.00  0.00    +0.015 C 
ATOM     16  C   UNL     1       3.453  -0.265  -2.604  0.00  0.00    +0.018 C 
ATOM     17  C   UNL     1       3.644  -0.544  -1.110  0.00  0.00    +0.109 C 
ATOM     18  N   UNL     1       2.354  -0.958  -0.535  0.00  0.00    -0.175 NA
ATOM     19  C   UNL     1       1.185  -0.091  -0.735  0.00  0.00    +0.122 C 
BRANCH  18  20
ATOM     20  S   UNL     1       2.219  -2.372   0.317  0.00  0.00    +0.067 S 
ATOM     21  O   UNL     1       3.518  -2.675   0.809  0.00  0.00    -0.152 OA
ATOM     22  O   UNL     1       1.095  -2.225   1.173  0.00  0.00    -0.152 OA
BRANCH  20  23
ATOM     23  C   UNL     1       1.810  -3.639  -0.837  0.00  0.00    +0.143 A 
ATOM     24  C   UNL     1       2.637  -4.439  -1.555  0.00  0.00    +0.036 A 
ATOM     25  C   UNL     1       2.087  -5.378  -2.408  0.00  0.00    +0.010 A 
ATOM     26  C   UNL     1       0.738  -5.463  -2.509  0.00  0.00    +0.047 A 
ATOM     27  S   UNL     1       0.201  -4.196  -1.372  0.00  0.00    -0.077 S 
ENDBRANCH  20  23
ENDBRANCH  18  20
ENDBRANCH  12  14
BRANCH   1  28
ATOM     28  C   UNL     1      -1.588   2.429  -3.903  0.00  0.00    +0.114 C 
BRANCH  28  29
ATOM     29  C   UNL     1      -0.910   3.792  -4.059  0.00  0.00    +0.001 C 
BRANCH  29  30
ATOM     30  C   UNL     1      -1.973   4.868  -4.288  0.00  0.00    -0.078 C 
BRANCH  30  33
ATOM     31  C   UNL     1      -0.509   6.222  -5.661  0.00  0.00    -0.097 C 
ATOM     32  C   UNL     1      -2.310   7.262  -4.421  0.00  0.00    -0.097 C 
ATOM     33  N   UNL     1      -1.303   6.180  -4.415  0.00  0.00    +0.376 N 
ATOM     34  H   UNL     1      -0.675   6.313  -3.614  0.00  0.00    -0.083 HD
ENDBRANCH  30  33
ENDBRANCH  29  30
ENDBRANCH  28  29
ENDBRANCH   1  28
TORSDOF 7
