REMARK  Name = ZINC12764140
REMARK  11 active torsions:
REMARK  status: ('A' for Active; 'I' for Inactive)
REMARK    1  A    between atoms: C_1  and  C_2
REMARK    2  A    between atoms: C_2  and  O_3
REMARK    3  A    between atoms: O_3  and  C_4
REMARK    4  A    between atoms: C_4  and  C_6
REMARK    5  A    between atoms: C_7  and  C_22
REMARK    6  A    between atoms: C_12  and  C_14
REMARK    7  A    between atoms: C_17  and  O_20
REMARK    8  A    between atoms: O_20  and  C_21
REMARK    9  A    between atoms: C_22  and  S_23
REMARK   10  A    between atoms: S_23  and  C_24
REMARK   11  A    between atoms: C_28  and  C_30
REMARK                            x       y       z     vdW  Elec       q    Type
REMARK                         _______ _______ _______ _____ _____    ______ ____
ROOT
ATOM      1  C   UNL     1      -6.943   2.707   4.755  0.00  0.00    +0.079 C 
ATOM      2  C   UNL     1      -6.169   3.598   4.098  0.00  0.00    +0.034 C 
ATOM      3  N   UNL     1      -6.682   4.782   3.652  0.00  0.00    -0.272 N 
ATOM      4  C   UNL     1      -7.956   5.153   3.828  0.00  0.00    +0.304 C 
ATOM      5  O   UNL     1      -8.321   6.229   3.395  0.00  0.00    -0.252 OA
ATOM      6  N   UNL     1      -8.849   4.372   4.468  0.00  0.00    -0.288 N 
ATOM      7  C   UNL     1      -8.395   3.071   4.989  0.00  0.00    +0.144 C 
ATOM      8  H   UNL     1      -6.089   5.390   3.183  0.00  0.00    +0.156 HD
ATOM      9  H   UNL     1      -9.767   4.661   4.585  0.00  0.00    +0.151 HD
ENDROOT
BRANCH   7  10
ATOM     10  C   UNL     1      -8.650   3.051   6.474  0.00  0.00    -0.022 A 
ATOM     11  C   UNL     1      -8.408   4.181   7.231  0.00  0.00    +0.009 A 
ATOM     12  C   UNL     1      -8.646   4.167   8.592  0.00  0.00    +0.046 A 
ATOM     13  C   UNL     1      -9.118   3.012   9.200  0.00  0.00    +0.120 A 
ATOM     14  C   UNL     1      -9.354   1.877   8.438  0.00  0.00    +0.046 A 
ATOM     15  C   UNL     1      -9.120   1.899   7.077  0.00  0.00    +0.009 A 
BRANCH  13  16
ATOM     16  O   UNL     1      -9.347   2.993  10.540  0.00  0.00    -0.495 OA
ATOM     17  C   UNL     1      -9.081   4.198  11.260  0.00  0.00    +0.277 C 
ENDBRANCH  13  16
ENDBRANCH   7  10
BRANCH   1  18
ATOM     18  C   UNL     1      -6.415   1.477   5.212  0.00  0.00    +0.339 C 
ATOM     19  O   UNL     1      -5.218   1.267   5.149  0.00  0.00    -0.245 OA
BRANCH  18  20
ATOM     20  O   UNL     1      -7.239   0.536   5.719  0.00  0.00    -0.462 OA
BRANCH  20  22
ATOM     21  C   UNL     1      -7.720  -1.620   6.701  0.00  0.00    +0.048 C 
ATOM     22  C   UNL     1      -6.637  -0.682   6.162  0.00  0.00    +0.229 C 
ENDBRANCH  20  22
ENDBRANCH  18  20
ENDBRANCH   1  18
BRANCH   2  23
ATOM     23  C   UNL     1      -4.718   3.277   3.849  0.00  0.00    +0.128 C 
BRANCH  23  24
ATOM     24  S   UNL     1      -3.694   4.116   5.084  0.00  0.00    -0.080 S 
BRANCH  24  25
ATOM     25  C   UNL     1      -2.096   3.582   4.570  0.00  0.00    +0.189 A 
ATOM     26  N   UNL     1      -1.988   2.780   3.520  0.00  0.00    -0.230 NA
ATOM     27  C   UNL     1      -0.803   2.360   3.108  0.00  0.00    +0.116 A 
ATOM     28  C   UNL     1       0.333   2.769   3.789  0.00  0.00    +0.052 A 
ATOM     29  C   UNL     1       0.185   3.608   4.883  0.00  0.00    +0.148 A 
ATOM     30  N   UNL     1      -1.030   3.986   5.245  0.00  0.00    -0.218 NA
BRANCH  29  31
ATOM     31  C   UNL     1       1.392   4.078   5.652  0.00  0.00    +0.434 C 
ATOM     32  F   UNL     1       1.862   5.274   5.098  0.00  0.00    -0.164 F 
ATOM     33  F   UNL     1       2.396   3.106   5.584  0.00  0.00    -0.164 F 
ATOM     34  F   UNL     1       1.039   4.291   6.989  0.00  0.00    -0.164 F 
ENDBRANCH  29  31
ENDBRANCH  24  25
ENDBRANCH  23  24
ENDBRANCH   2  23
TORSDOF 9
