REMARK  Name = ZINC03572621
REMARK  5 active torsions:
REMARK  status: ('A' for Active; 'I' for Inactive)
REMARK    1  A    between atoms: C_7  and  C_11
REMARK    2  A    between atoms: C_11  and  C_13
REMARK    3  A    between atoms: C_13  and  O_14
REMARK    4  A    between atoms: O_14  and  C_15
REMARK    5  A    between atoms: C_20  and  N_21
REMARK                            x       y       z     vdW  Elec       q    Type
REMARK                         _______ _______ _______ _____ _____    ______ ____
ROOT
ATOM      1  C   UNL     1       3.615   5.886  -0.002  0.00  0.00    +0.202 C 
ATOM      2  O   UNL     1       4.587   5.160  -0.015  0.00  0.00    -0.288 OA
ENDROOT
BRANCH   1   9
ATOM      3  C   UNL     1       7.379   8.621  -0.024  0.00  0.00    +0.001 A 
ATOM      4  C   UNL     1       7.038   9.966  -0.013  0.00  0.00    +0.002 A 
ATOM      5  C   UNL     1       5.717  10.355   0.002  0.00  0.00    +0.026 A 
ATOM      6  C   UNL     1       4.710   9.395   0.006  0.00  0.00    +0.047 A 
ATOM      7  C   UNL     1       5.057   8.035  -0.005  0.00  0.00    +0.010 A 
ATOM      8  C   UNL     1       6.396   7.655  -0.019  0.00  0.00    +0.011 A 
ATOM      9  C   UNL     1       3.781   7.293   0.004  0.00  0.00    +0.046 A 
ATOM     10  C   UNL     1       2.784   8.245   0.013  0.00  0.00    +0.095 A 
ATOM     11  N   UNL     1       3.332   9.475   0.020  0.00  0.00    -0.360 N 
ATOM     12  H   UNL     1       2.828  10.303   0.030  0.00  0.00    +0.165 HD
ENDBRANCH   1   9
BRANCH   1  13
ATOM     13  C   UNL     1       2.230   5.291   0.009  0.00  0.00    +0.308 C 
BRANCH  13  14
ATOM     14  O   UNL     1       2.325   3.865   0.000  0.00  0.00    -0.482 OA
BRANCH  14  15
ATOM     15  C   UNL     1       1.157   3.169   0.008  0.00  0.00    +0.154 A 
ATOM     16  C   UNL     1      -0.054   3.845   0.023  0.00  0.00    +0.086 A 
ATOM     17  C   UNL     1      -1.241   3.135   0.031  0.00  0.00    +0.127 A 
ATOM     18  C   UNL     1      -1.219   1.750   0.017  0.00  0.00    +0.041 A 
ATOM     19  C   UNL     1      -0.013   1.076   0.008  0.00  0.00    +0.039 A 
ATOM     20  C   UNL     1       1.175   1.782   0.000  0.00  0.00    +0.168 A 
ATOM     21  F   UNL     1      -2.421   3.792   0.045  0.00  0.00    -0.205 F 
BRANCH  20  22
ATOM     22  N   UNL     1       2.466   1.059  -0.016  0.00  0.00    +0.060 N 
ATOM     23  O   UNL     1       2.482  -0.159  -0.023  0.00  0.00    -0.126 OA
ATOM     24  O   UNL     1       3.513   1.681  -0.023  0.00  0.00    -0.126 OA
ENDBRANCH  20  22
ENDBRANCH  14  15
ENDBRANCH  13  14
ENDBRANCH   1  13
TORSDOF 5
