REMARK  Name = ZINC09818857
REMARK  6 active torsions:
REMARK  status: ('A' for Active; 'I' for Inactive)
REMARK    1  A    between atoms: C_1  and  C_2
REMARK    2  A    between atoms: C_7  and  N_8
REMARK    3  A    between atoms: C_9  and  C_11
REMARK    4  A    between atoms: C_11  and  C_12
REMARK    5  A    between atoms: N_17  and  S_18
REMARK    6  A    between atoms: S_18  and  C_21
REMARK                            x       y       z     vdW  Elec       q    Type
REMARK                         _______ _______ _______ _____ _____    ______ ____
ROOT
ATOM      1  C   UNL     1       3.494  -2.447   0.269  0.00  0.00    +0.059 A 
ATOM      2  C   UNL     1       4.067  -3.303  -0.611  0.00  0.00    +0.072 A 
ATOM      3  S   UNL     1       3.430  -4.864  -0.020  0.00  0.00    -0.059 S 
ATOM      4  C   UNL     1       2.485  -4.239   1.296  0.00  0.00    +0.178 A 
ATOM      5  N   UNL     1       2.708  -2.942   1.207  0.00  0.00    -0.228 NA
ATOM      6  N   UNL     1       1.698  -4.926   2.207  0.00  0.00    -0.194 N 
ATOM      7  H   UNL     1       1.220  -4.442   2.898  0.00  0.00    +0.176 HD
ENDROOT
BRANCH   6   8
ATOM      8  S   UNL     1       1.573  -6.575   2.114  0.00  0.00    +0.074 S 
ATOM      9  O   UNL     1       0.730  -6.979   3.185  0.00  0.00    -0.150 OA
ATOM     10  O   UNL     1       1.284  -6.885   0.758  0.00  0.00    -0.150 OA
BRANCH   8  11
ATOM     11  C   UNL     1       3.170  -7.238   2.453  0.00  0.00    +0.109 A 
ATOM     12  C   UNL     1       4.060  -7.458   1.419  0.00  0.00    +0.030 A 
ATOM     13  C   UNL     1       5.315  -7.973   1.685  0.00  0.00    +0.022 A 
ATOM     14  C   UNL     1       5.676  -8.279   2.985  0.00  0.00    +0.041 A 
ATOM     15  C   UNL     1       4.782  -8.063   4.019  0.00  0.00    +0.022 A 
ATOM     16  C   UNL     1       3.530  -7.543   3.753  0.00  0.00    +0.030 A 
ATOM     17 CL   UNL     1       7.250  -8.931   3.319  0.00  0.00    -0.084 Cl
ENDBRANCH   8  11
ENDBRANCH   6   8
BRANCH   1  18
ATOM     18  C   UNL     1       3.744  -0.964   0.175  0.00  0.00    +0.152 C 
BRANCH  18  20
ATOM     19  N   UNL     1       2.403   1.106  -0.015  0.00  0.00    -0.285 N 
ATOM     20  C   UNL     1       2.426  -0.238   0.078  0.00  0.00    +0.223 C 
ATOM     21  O   UNL     1       1.387  -0.864   0.085  0.00  0.00    -0.275 OA
ATOM     22  H   UNL     1       3.233   1.602  -0.087  0.00  0.00    +0.155 HD
BRANCH  19  29
ATOM     23  C   UNL     1       2.289   3.655   1.243  0.00  0.00    +0.046 C 
ATOM     24  C   UNL     1       1.080   3.033   0.592  0.00  0.00    -0.028 A 
ATOM     25  C   UNL     1      -0.128   3.703   0.596  0.00  0.00    +0.020 A 
ATOM     26  C   UNL     1      -1.238   3.133  -0.001  0.00  0.00    +0.018 A 
ATOM     27  C   UNL     1      -1.140   1.892  -0.607  0.00  0.00    +0.017 A 
ATOM     28  C   UNL     1       0.064   1.216  -0.608  0.00  0.00    +0.024 A 
ATOM     29  C   UNL     1       1.180   1.786  -0.010  0.00  0.00    +0.036 A 
ATOM     30 BR   UNL     1      -2.890   4.053   0.005  0.00  0.00    -0.050 Br
ENDBRANCH  19  29
ENDBRANCH  18  20
ENDBRANCH   1  18
TORSDOF 5
