REMARK  Name = ZINC36524076
REMARK  12 active torsions:
REMARK  status: ('A' for Active; 'I' for Inactive)
REMARK    1  A    between atoms: C_1  and  C_2
REMARK    2  A    between atoms: C_5  and  S_8
REMARK    3  A    between atoms: S_8  and  C_11
REMARK    4  A    between atoms: C_11  and  N_12
REMARK    5  A    between atoms: C_13  and  C_15
REMARK    6  A    between atoms: C_15  and  C_17
REMARK    7  A    between atoms: C_15  and  N_26
REMARK    8  A    between atoms: C_20  and  N_23
REMARK    9  A    between atoms: N_26  and  C_27
REMARK   10  A    between atoms: C_28  and  C_30
REMARK   11  A    between atoms: C_35  and  O_36
REMARK   12  A    between atoms: O_36  and  C_37
REMARK                            x       y       z     vdW  Elec       q    Type
REMARK                         _______ _______ _______ _____ _____    ______ ____
ROOT
ATOM      1  C   UNL     1       3.367  -5.236   3.356  0.00  0.00    +0.192 C 
ENDROOT
BRANCH   1   2
ATOM      2  C   UNL     1       2.232  -4.366   3.832  0.00  0.00    -0.018 A 
ATOM      3  C   UNL     1       2.491  -3.100   4.325  0.00  0.00    +0.008 A 
ATOM      4  C   UNL     1       1.450  -2.303   4.762  0.00  0.00    +0.033 A 
ATOM      5  C   UNL     1       0.150  -2.770   4.706  0.00  0.00    +0.126 A 
ATOM      6  C   UNL     1      -0.109  -4.035   4.212  0.00  0.00    +0.033 A 
ATOM      7  C   UNL     1       0.932  -4.831   3.771  0.00  0.00    +0.008 A 
BRANCH   5   8
ATOM      8  N   UNL     1      -0.964  -1.916   5.174  0.00  0.00    +0.056 N 
ATOM      9  O   UNL     1      -0.738  -0.810   5.606  0.00  0.00    -0.126 OA
ATOM     10  O   UNL     1      -2.101  -2.325   5.125  0.00  0.00    -0.126 OA
ENDBRANCH   5   8
ENDBRANCH   1   2
BRANCH   1  12
ATOM     11  N   UNL     1       2.728  -5.070   0.972  0.00  0.00    -0.294 N 
ATOM     12  C   UNL     1       3.002  -5.856   2.031  0.00  0.00    +0.239 C 
ATOM     13  O   UNL     1       2.956  -7.063   1.919  0.00  0.00    -0.273 OA
ATOM     14  H   UNL     1       2.765  -4.105   1.062  0.00  0.00    +0.150 HD
BRANCH  11  15
ATOM     15  C   UNL     1       2.374  -5.673  -0.315  0.00  0.00    +0.278 C 
BRANCH  15  16
ATOM     16  S   UNL     1       0.568  -5.764  -0.464  0.00  0.00    +0.013 S 
ATOM     17  O   UNL     1       0.005  -6.298   0.727  0.00  0.00    -0.168 OA
ATOM     18  O   UNL     1       0.207  -6.289  -1.734  0.00  0.00    -0.168 OA
BRANCH  16  23
ATOM     19  C   UNL     1      -1.273  -0.020  -0.594  0.00  0.00    +0.044 C 
ATOM     20  C   UNL     1      -0.813  -1.455  -0.562  0.00  0.00    -0.050 A 
ATOM     21  C   UNL     1      -0.503  -2.108  -1.740  0.00  0.00    +0.005 A 
ATOM     22  C   UNL     1      -0.081  -3.424  -1.710  0.00  0.00    +0.027 A 
ATOM     23  C   UNL     1       0.031  -4.087  -0.502  0.00  0.00    +0.090 A 
ATOM     24  C   UNL     1      -0.278  -3.433   0.676  0.00  0.00    +0.027 A 
ATOM     25  C   UNL     1      -0.696  -2.115   0.647  0.00  0.00    +0.005 A 
ENDBRANCH  16  23
ENDBRANCH  15  16
ENDBRANCH  11  15
ENDBRANCH   1  12
BRANCH   1  26
ATOM     26  N   UNL     1       3.617  -6.293   4.338  0.00  0.00    -0.285 N 
ATOM     27  C   UNL     1       2.569  -7.268   4.648  0.00  0.00    +0.133 C 
ATOM     28  C   UNL     1       4.812  -6.369   4.957  0.00  0.00    +0.251 C 
ATOM     29  O   UNL     1       5.709  -5.611   4.642  0.00  0.00    -0.270 OA
BRANCH  28  30
ATOM     30  C   UNL     1       5.031  -7.371   6.017  0.00  0.00    +0.078 A 
ATOM     31  C   UNL     1       4.633  -8.697   5.824  0.00  0.00    +0.017 A 
ATOM     32  C   UNL     1       4.841  -9.628   6.818  0.00  0.00    +0.001 A 
ATOM     33  C   UNL     1       5.444  -9.257   8.009  0.00  0.00    +0.004 A 
ATOM     34  C   UNL     1       5.842  -7.950   8.213  0.00  0.00    +0.046 A 
ATOM     35  C   UNL     1       5.645  -7.001   7.221  0.00  0.00    +0.132 A 
BRANCH  35  36
ATOM     36  O   UNL     1       6.040  -5.718   7.418  0.00  0.00    -0.494 OA
ATOM     37  C   UNL     1       6.659  -5.415   8.670  0.00  0.00    +0.277 C 
ENDBRANCH  35  36
ENDBRANCH  28  30
ENDBRANCH   1  26
TORSDOF 9
