REMARK  Name = ZINC34998475
REMARK  13 active torsions:
REMARK  status: ('A' for Active; 'I' for Inactive)
REMARK    1  A    between atoms: C_1  and  C_2
REMARK    2  A    between atoms: C_9  and  C_11
REMARK    3  A    between atoms: C_11  and  C_12
REMARK    4  A    between atoms: C_12  and  C_13
REMARK    5  A    between atoms: C_18  and  C_20
REMARK    6  A    between atoms: C_20  and  C_22
REMARK    7  A    between atoms: C_20  and  N_25
REMARK    8  A    between atoms: C_22  and  C_23
REMARK    9  A    between atoms: C_22  and  C_24
REMARK   10  A    between atoms: C_26  and  C_28
REMARK   11  A    between atoms: C_28  and  C_29
REMARK   12  A    between atoms: C_28  and  C_30
REMARK   13  A    between atoms: C_28  and  C_31
REMARK                            x       y       z     vdW  Elec       q    Type
REMARK                         _______ _______ _______ _____ _____    ______ ____
ROOT
ATOM      1  C   UNL     1      -0.126   1.921   0.054  0.00  0.00    +0.029 C 
ATOM      2  C   UNL     1       0.164   0.425   0.187  0.00  0.00    +0.090 C 
ATOM      3  C   UNL     1      -1.157  -0.355   0.210  0.00  0.00    +0.130 C 
ATOM      4  N   UNL     1      -1.840  -0.084   1.482  0.00  0.00    -0.297 N 
ATOM      5  C   UNL     1      -1.123  -0.338   2.739  0.00  0.00    +0.127 C 
ATOM      6  C   UNL     1       0.198   0.442   2.716  0.00  0.00    +0.127 C 
ATOM      7  N   UNL     1       0.885   0.172   1.442  0.00  0.00    -0.296 N 
ATOM      8  C   UNL     1       2.147  -0.302   1.425  0.00  0.00    +0.216 C 
ATOM      9  O   UNL     1       2.697  -0.523   0.367  0.00  0.00    -0.276 OA
ATOM     10  C   UNL     1      -3.102   0.390   1.496  0.00  0.00    +0.236 C 
ATOM     11  O   UNL     1      -3.660   0.658   0.453  0.00  0.00    -0.274 OA
ENDROOT
BRANCH   8  12
ATOM     12  C   UNL     1       2.873  -0.557   2.720  0.00  0.00    +0.096 C 
BRANCH  12  13
ATOM     13  C   UNL     1       4.277  -1.088   2.422  0.00  0.00    +0.013 C 
BRANCH  13  14
ATOM     14  C   UNL     1       5.015  -1.347   3.737  0.00  0.00    -0.011 C 
ATOM     15  C   UNL     1       5.302  -0.011   4.453  0.00  0.00    +0.003 C 
ATOM     16  C   UNL     1       6.700  -0.215   5.089  0.00  0.00    +0.000 C 
ATOM     17  C   UNL     1       7.450  -1.035   4.011  0.00  0.00    +0.000 C 
ATOM     18  C   UNL     1       6.380  -1.998   3.456  0.00  0.00    +0.003 C 
ENDBRANCH  13  14
ENDBRANCH  12  13
ENDBRANCH   8  12
BRANCH  10  19
ATOM     19  C   UNL     1      -3.819   0.586   2.807  0.00  0.00    +0.162 C 
BRANCH  19  20
ATOM     20  N   UNL     1      -4.846   1.618   2.651  0.00  0.00    -0.303 N 
ATOM     21  C   UNL     1      -5.263   2.321   3.723  0.00  0.00    +0.220 C 
ATOM     22  O   UNL     1      -4.787   2.099   4.816  0.00  0.00    -0.275 OA
ATOM     23  H   UNL     1      -5.227   1.796   1.777  0.00  0.00    +0.149 HD
BRANCH  21  24
ATOM     24  C   UNL     1      -6.320   3.384   3.563  0.00  0.00    +0.055 C 
ATOM     25  C   UNL     1      -5.824   4.454   2.589  0.00  0.00    +0.022 C 
ATOM     26  C   UNL     1      -7.601   2.750   3.017  0.00  0.00    +0.022 C 
BRANCH  24  27
ATOM     27  C   UNL     1      -6.608   4.025   4.922  0.00  0.00    +0.124 C 
ATOM     28 CL   UNL     1      -7.872   5.296   4.731  0.00  0.00    -0.124 Cl
ENDBRANCH  24  27
ENDBRANCH  21  24
ENDBRANCH  19  20
BRANCH  19  29
ATOM     29  C   UNL     1      -4.477  -0.729   3.230  0.00  0.00    +0.012 C 
ATOM     30  C   UNL     1      -3.400  -1.798   3.428  0.00  0.00    +0.009 C 
ATOM     31  C   UNL     1      -5.235  -0.520   4.542  0.00  0.00    +0.009 C 
ENDBRANCH  19  29
ENDBRANCH  10  19
TORSDOF 8
