REMARK  Name = ZINC22762639
REMARK  10 active torsions:
REMARK  status: ('A' for Active; 'I' for Inactive)
REMARK    1  A    between atoms: C_1  and  C_2
REMARK    2  A    between atoms: C_2  and  C_3
REMARK    3  A    between atoms: C_3  and  N_4
REMARK    4  A    between atoms: C_8  and  S_10
REMARK    5  A    between atoms: S_10  and  C_11
REMARK    6  A    between atoms: C_11  and  C_13
REMARK    7  A    between atoms: C_11  and  C_14
REMARK    8  A    between atoms: N_19  and  C_20
REMARK    9  A    between atoms: C_23  and  C_27
REMARK   10  A    between atoms: C_25  and  C_26
REMARK                            x       y       z     vdW  Elec       q    Type
REMARK                         _______ _______ _______ _____ _____    ______ ____
ROOT
ATOM      1  C   UNL     1      -2.138   1.046   1.262  0.00  0.00    +0.233 C 
ATOM      2  O   UNL     1      -2.423   0.083   1.940  0.00  0.00    -0.274 OA
ATOM      3  N   UNL     1      -3.088   1.658   0.527  0.00  0.00    -0.239 N 
ATOM      4  C   UNL     1      -4.355   1.199   0.546  0.00  0.00    +0.310 C 
ATOM      5  O   UNL     1      -4.641   0.233   1.226  0.00  0.00    -0.252 OA
ATOM      6  N   UNL     1      -5.305   1.810  -0.189  0.00  0.00    -0.269 N 
ATOM      7  H   UNL     1      -2.829   2.532  -0.089  0.00  0.00    +0.159 HD
ATOM      8  H   UNL     1      -5.068   2.737  -0.731  0.00  0.00    +0.156 HD
ENDROOT
BRANCH   6   9
ATOM      9  C   UNL     1      -6.592   1.266  -0.262  0.00  0.00    +0.038 A 
ATOM     10  C   UNL     1      -6.786  -0.093  -0.047  0.00  0.00    +0.024 A 
ATOM     11  C   UNL     1      -8.057  -0.627  -0.120  0.00  0.00    +0.005 A 
ATOM     12  C   UNL     1      -9.136   0.189  -0.406  0.00  0.00    -0.050 A 
ATOM     13  C   UNL     1      -8.947   1.542  -0.620  0.00  0.00    +0.008 A 
ATOM     14  C   UNL     1      -7.678   2.083  -0.544  0.00  0.00    -0.029 A 
ATOM     15  C   UNL     1      -7.473   3.559  -0.771  0.00  0.00    +0.045 C 
ATOM     16  C   UNL     1     -10.522  -0.397  -0.484  0.00  0.00    +0.044 C 
ENDBRANCH   6   9
BRANCH   1  17
ATOM     17  C   UNL     1      -0.721   1.560   1.240  0.00  0.00    +0.136 C 
ATOM     18  C   UNL     1      -0.016   1.056  -0.021  0.00  0.00    +0.029 C 
BRANCH  17  19
ATOM     19  S   UNL     1       0.162   0.961   2.707  0.00  0.00    -0.084 S 
BRANCH  19  24
ATOM     20  N   UNL     1       5.515   3.139   3.161  0.00  0.00    -0.322 N 
ATOM     21  C   UNL     1       4.218   2.751   2.848  0.00  0.00    +0.182 A 
ATOM     22  N   UNL     1       3.463   3.104   1.826  0.00  0.00    -0.125 NA
ATOM     23  N   UNL     1       2.193   2.590   1.702  0.00  0.00    -0.133 NA
ATOM     24  C   UNL     1       1.731   1.755   2.614  0.00  0.00    +0.161 A 
ATOM     25  S   UNL     1       3.126   1.640   3.724  0.00  0.00    -0.025 S 
ATOM     26  H   UNL     1       6.004   2.745   4.064  0.00  0.00    +0.148 HD
BRANCH  20  27
ATOM     27  C   UNL     1       6.231   4.073   2.288  0.00  0.00    +0.103 C 
BRANCH  27  29
ATOM     28  C   UNL     1       8.375   5.308   1.944  0.00  0.00    +0.005 C 
ATOM     29  C   UNL     1       7.628   4.333   2.856  0.00  0.00    +0.015 C 
ENDBRANCH  27  29
ENDBRANCH  20  27
ENDBRANCH  19  24
ENDBRANCH  17  19
ENDBRANCH   1  17
TORSDOF 6
