REMARK  Name = ZINC09544332
REMARK  8 active torsions:
REMARK  status: ('A' for Active; 'I' for Inactive)
REMARK    1  A    between atoms: C_10  and  C_13
REMARK    2  A    between atoms: C_13  and  C_14
REMARK    3  A    between atoms: C_14  and  O_16
REMARK    4  A    between atoms: O_16  and  C_17
REMARK    5  A    between atoms: C_17  and  C_18
REMARK    6  A    between atoms: N_20  and  C_21
REMARK    7  A    between atoms: C_24  and  N_31
REMARK    8  A    between atoms: C_26  and  C_27
REMARK                            x       y       z     vdW  Elec       q    Type
REMARK                         _______ _______ _______ _____ _____    ______ ____
ROOT
ATOM      1  C   UNL     1       0.169  -4.149   2.515  0.00  0.00    +0.328 C 
ENDROOT
BRANCH   1   2
ATOM      2  C   UNL     1       0.396  -4.734   3.884  0.00  0.00    +0.255 C 
ATOM      3  O   UNL     1       0.626  -4.005   4.825  0.00  0.00    -0.272 OA
ATOM      4  N   UNL     1       0.343  -6.069   4.064  0.00  0.00    -0.282 N 
ATOM      5  H   UNL     1       0.094  -6.648   3.326  0.00  0.00    +0.155 HD
BRANCH   4   6
ATOM      6  C   UNL     1       0.646  -6.620   5.314  0.00  0.00    +0.045 A 
ATOM      7  C   UNL     1       0.308  -5.938   6.476  0.00  0.00    +0.026 A 
ATOM      8  C   UNL     1       0.604  -6.486   7.708  0.00  0.00    +0.034 A 
ATOM      9  C   UNL     1       1.247  -7.708   7.786  0.00  0.00    +0.127 A 
ATOM     10  C   UNL     1       1.590  -8.387   6.631  0.00  0.00    +0.047 A 
ATOM     11  C   UNL     1       1.292  -7.846   5.396  0.00  0.00    +0.078 A 
BRANCH  11  12
ATOM     12  C   UNL     1       1.666  -8.587   4.138  0.00  0.00    +0.419 C 
ATOM     13  F   UNL     1       2.301  -9.788   4.475  0.00  0.00    -0.166 F 
ATOM     14  F   UNL     1       0.511  -8.862   3.398  0.00  0.00    -0.166 F 
ATOM     15  F   UNL     1       2.534  -7.800   3.374  0.00  0.00    -0.166 F 
ENDBRANCH  11  12
BRANCH   9  16
ATOM     16  N   UNL     1       1.568  -8.290   9.108  0.00  0.00    +0.056 N 
ATOM     17  O   UNL     1       2.134  -9.367   9.179  0.00  0.00    -0.126 OA
ATOM     18  O   UNL     1       1.266  -7.693  10.126  0.00  0.00    -0.126 OA
ENDBRANCH   9  16
ENDBRANCH   4   6
ENDBRANCH   1   2
BRANCH   1  19
ATOM     19  O   UNL     1       0.277  -2.702   2.583  0.00  0.00    -0.455 OA
BRANCH  19  20
ATOM     20  C   UNL     1       0.100  -2.024   1.438  0.00  0.00    +0.309 C 
ATOM     21  O   UNL     1      -0.138  -2.618   0.414  0.00  0.00    -0.251 OA
BRANCH  20  22
ATOM     22  C   UNL     1       0.197  -0.520   1.431  0.00  0.00    +0.144 C 
BRANCH  22  32
ATOM     23  C   UNL     1       4.696   2.209   0.119  0.00  0.00    +0.002 A 
ATOM     24  C   UNL     1       4.977   0.938  -0.349  0.00  0.00    +0.001 A 
ATOM     25  C   UNL     1       3.944   0.095  -0.714  0.00  0.00    +0.016 A 
ATOM     26  C   UNL     1       2.631   0.524  -0.607  0.00  0.00    +0.030 A 
ATOM     27  C   UNL     1       2.339   1.802  -0.130  0.00  0.00    +0.047 A 
ATOM     28  C   UNL     1       3.389   2.642   0.229  0.00  0.00    +0.024 A 
ATOM     29  N   UNL     1       1.031   2.253   0.011  0.00  0.00    -0.284 N 
ATOM     30  C   UNL     1      -0.069   1.507   0.023  0.00  0.00    +0.231 C 
ATOM     31  O   UNL     1      -1.145   2.066   0.040  0.00  0.00    -0.274 OA
ATOM     32  C   UNL     1      -0.044   0.001   0.013  0.00  0.00    +0.148 C 
ATOM     33  S   UNL     1       1.307  -0.545  -1.076  0.00  0.00    -0.110 S 
ATOM     34  H   UNL     1       0.908   3.210   0.109  0.00  0.00    +0.155 HD
ENDBRANCH  22  32
ENDBRANCH  20  22
ENDBRANCH  19  20
ENDBRANCH   1  19
TORSDOF 8
