REMARK  Name = ZINC36899381
REMARK  1 active torsions:
REMARK  status: ('A' for Active; 'I' for Inactive)
REMARK    1  A    between atoms: C_5  and  N_7
REMARK                            x       y       z     vdW  Elec       q    Type
REMARK                         _______ _______ _______ _____ _____    ______ ____
ROOT
ATOM      1  N   UNL     1       1.236  -2.075  -0.019  0.00  0.00    -0.279 N 
ATOM      2  C   UNL     1       1.251  -2.906   1.093  0.00  0.00    +0.093 A 
ATOM      3  C   UNL     1       1.271  -4.220   0.598  0.00  0.00    +0.093 A 
ATOM      4  C   UNL     1       1.289  -5.292   1.494  0.00  0.00    +0.030 A 
ATOM      5  C   UNL     1       1.288  -5.051   2.850  0.00  0.00    +0.004 A 
ATOM      6  C   UNL     1       1.269  -3.751   3.334  0.00  0.00    +0.022 A 
ATOM      7  C   UNL     1       1.251  -2.680   2.461  0.00  0.00    +0.067 A 
ATOM      8 CL   UNL     1       1.228  -1.057   3.076  0.00  0.00    -0.081 Cl
ATOM      9  N   UNL     1       1.267  -4.138  -0.759  0.00  0.00    -0.214 NA
ATOM     10  C   UNL     1       1.241  -2.880  -1.125  0.00  0.00    +0.199 A 
ATOM     11  N   UNL     1       1.224  -2.434  -2.429  0.00  0.00    -0.329 N 
ATOM     12  H   UNL     1       1.208  -1.483  -2.617  0.00  0.00    +0.145 HD
ATOM     13  H   UNL     1       1.228  -3.073  -3.160  0.00  0.00    +0.145 HD
ENDROOT
BRANCH   1  18
ATOM     14  C   UNL     1      -0.017   1.377   0.010  0.00  0.00    +0.002 A 
ATOM     15  C   UNL     1       1.171   2.080   0.002  0.00  0.00    +0.004 A 
ATOM     16  C   UNL     1       2.390   1.413  -0.011  0.00  0.00    -0.042 A 
ATOM     17  C   UNL     1       2.415   0.037  -0.014  0.00  0.00    -0.020 A 
ATOM     18  C   UNL     1       1.215  -0.674  -0.010  0.00  0.00    +0.053 A 
ATOM     19  C   UNL     1       0.002  -0.004   0.002  0.00  0.00    +0.026 A 
ATOM     20  C   UNL     1       3.698  -0.751  -0.012  0.00  0.00    +0.037 C 
ATOM     21  C   UNL     1       4.869   0.129  -0.445  0.00  0.00    +0.005 C 
ATOM     22  C   UNL     1       4.850   1.410   0.397  0.00  0.00    +0.005 C 
ATOM     23  C   UNL     1       3.644   2.246  -0.027  0.00  0.00    +0.035 C 
ENDBRANCH   1  18
TORSDOF 1
