REMARK  Name = ZINC32861103
REMARK  5 active torsions:
REMARK  status: ('A' for Active; 'I' for Inactive)
REMARK    1  A    between atoms: C_1  and  C_2
REMARK    2  A    between atoms: C_15  and  C_17
REMARK    3  A    between atoms: C_17  and  S_18
REMARK    4  A    between atoms: S_18  and  C_19
REMARK    5  A    between atoms: N_28  and  C_29
REMARK                            x       y       z     vdW  Elec       q    Type
REMARK                         _______ _______ _______ _____ _____    ______ ____
ROOT
ATOM      1  C   UNL     1      -7.591  -3.502   1.467  0.00  0.00    +0.029 C 
ATOM      2  C   UNL     1      -7.011  -3.467   0.051  0.00  0.00    +0.087 C 
ATOM      3  C   UNL     1      -8.043  -2.868  -0.906  0.00  0.00    +0.118 C 
ATOM      4  C   UNL     1      -7.378  -2.460  -2.195  0.00  0.00    +0.219 C 
ATOM      5  O   UNL     1      -7.527  -3.138  -3.189  0.00  0.00    -0.275 OA
ATOM      6  N   UNL     1      -6.617  -1.345  -2.251  0.00  0.00    -0.284 N 
ATOM      7  C   UNL     1      -6.360  -0.599  -1.095  0.00  0.00    +0.055 A 
ATOM      8  C   UNL     1      -6.529   0.776  -1.082  0.00  0.00    +0.025 A 
ATOM      9  C   UNL     1      -6.239   1.494   0.081  0.00  0.00    +0.002 A 
ATOM     10  C   UNL     1      -5.781   0.839   1.210  0.00  0.00    +0.002 A 
ATOM     11  C   UNL     1      -5.622  -0.535   1.202  0.00  0.00    +0.025 A 
ATOM     12  C   UNL     1      -5.920  -1.258   0.059  0.00  0.00    +0.058 A 
ATOM     13  N   UNL     1      -5.795  -2.653   0.044  0.00  0.00    -0.266 N 
ATOM     14  C   UNL     1      -4.579  -3.234   0.029  0.00  0.00    +0.230 C 
ATOM     15  O   UNL     1      -4.484  -4.443   0.021  0.00  0.00    -0.274 OA
ATOM     16  H   UNL     1      -6.192  -1.017  -3.212  0.00  0.00    +0.155 HD
ENDROOT
BRANCH  14  17
ATOM     17  C   UNL     1      -3.337  -2.381   0.021  0.00  0.00    +0.173 C 
BRANCH  17  18
ATOM     18  S   UNL     1      -1.873  -3.446   0.001  0.00  0.00    -0.078 S 
BRANCH  18  19
ATOM     19  C   UNL     1      -0.605  -2.224  -0.005  0.00  0.00    +0.173 A 
ATOM     20  N   UNL     1      -0.932  -0.947   0.005  0.00  0.00    -0.216 NA
ATOM     21  C   UNL     1       0.002  -0.004   0.002  0.00  0.00    +0.116 A 
ATOM     22  C   UNL     1       1.375  -0.313  -0.013  0.00  0.00    +0.072 A 
ATOM     23  C   UNL     1       2.262   0.838  -0.015  0.00  0.00    +0.023 A 
ATOM     24  C   UNL     1       1.735   2.071  -0.003  0.00  0.00    +0.048 A 
ATOM     25  S   UNL     1      -0.022   1.770   0.012  0.00  0.00    -0.077 S 
ATOM     26  C   UNL     1       1.700  -1.706  -0.024  0.00  0.00    +0.263 A 
ATOM     27  O   UNL     1       2.864  -2.069  -0.037  0.00  0.00    -0.267 OA
ATOM     28  N   UNL     1       0.704  -2.611  -0.019  0.00  0.00    -0.290 N 
ATOM     29  C   UNL     1       1.030  -4.039  -0.031  0.00  0.00    +0.154 C 
ENDBRANCH  18  19
ENDBRANCH  17  18
ENDBRANCH  14  17
TORSDOF 3
