REMARK  Name = ZINC46728390
REMARK  8 active torsions:
REMARK  status: ('A' for Active; 'I' for Inactive)
REMARK    1  A    between atoms: C_1  and  O_2
REMARK    2  A    between atoms: O_2  and  C_3
REMARK    3  A    between atoms: C_6  and  C_9
REMARK    4  A    between atoms: C_9  and  C_11
REMARK    5  A    between atoms: C_9  and  N_28
REMARK    6  A    between atoms: C_11  and  N_12
REMARK    7  A    between atoms: N_15  and  C_16
REMARK    8  A    between atoms: C_16  and  C_17
REMARK                            x       y       z     vdW  Elec       q    Type
REMARK                         _______ _______ _______ _____ _____    ______ ____
ROOT
ATOM      1  C   UNL     1      -5.145  -3.059  -1.400  0.00  0.00    +0.095 C 
ENDROOT
BRANCH   1   2
ATOM      2  N   UNL     1      -5.451  -1.894  -2.234  0.00  0.00    -0.301 N 
ATOM      3  C   UNL     1      -5.742  -2.058  -3.540  0.00  0.00    +0.300 C 
ATOM      4  O   UNL     1      -5.750  -3.172  -4.025  0.00  0.00    -0.253 OA
ATOM      5  N   UNL     1      -6.023  -0.986  -4.307  0.00  0.00    -0.296 N 
ATOM      6  H   UNL     1      -5.444  -1.005  -1.846  0.00  0.00    +0.150 HD
ATOM      7  H   UNL     1      -6.016  -0.097  -3.920  0.00  0.00    +0.150 HD
BRANCH   5   8
ATOM      8  C   UNL     1      -6.339  -1.164  -5.726  0.00  0.00    +0.153 C 
BRANCH   8   9
ATOM      9  C   UNL     1      -6.617   0.200  -6.362  0.00  0.00    +0.228 C 
ATOM     10  C   UNL     1      -6.963   0.018  -7.846  0.00  0.00    +0.275 C 
ATOM     11  O   UNL     1      -7.230   1.309  -8.405  0.00  0.00    -0.485 OA
ATOM     12  C   UNL     1      -8.046   2.129  -7.688  0.00  0.00    +0.162 A 
ATOM     13  C   UNL     1      -8.634   3.219  -8.312  0.00  0.00    +0.049 A 
ATOM     14  C   UNL     1      -9.462   4.063  -7.595  0.00  0.00    +0.004 A 
ATOM     15  C   UNL     1      -9.706   3.823  -6.256  0.00  0.00    +0.004 A 
ATOM     16  C   UNL     1      -9.124   2.737  -5.629  0.00  0.00    +0.049 A 
ATOM     17  C   UNL     1      -8.293   1.886  -6.342  0.00  0.00    +0.163 A 
ATOM     18  O   UNL     1      -7.734   0.816  -5.713  0.00  0.00    -0.480 OA
ENDBRANCH   8   9
ENDBRANCH   5   8
ENDBRANCH   1   2
BRANCH   1  19
ATOM     19  C   UNL     1      -4.725  -2.591  -0.005  0.00  0.00    -0.020 C 
BRANCH  19  20
ATOM     20  N   UNL     1      -4.496  -3.760   0.855  0.00  0.00    +0.385 N 
ATOM     21  C   UNL     1      -5.745  -4.518   0.992  0.00  0.00    -0.078 C 
ATOM     22  C   UNL     1      -5.492  -5.780   1.819  0.00  0.00    -0.019 C 
ATOM     23  C   UNL     1      -4.982  -5.380   3.207  0.00  0.00    -0.004 C 
ATOM     24  C   UNL     1      -3.720  -4.527   3.049  0.00  0.00    -0.019 C 
ATOM     25  C   UNL     1      -4.038  -3.312   2.176  0.00  0.00    -0.078 C 
ATOM     26  H   UNL     1      -3.791  -4.349   0.438  0.00  0.00    -0.081 HD
ENDBRANCH  19  20
BRANCH  19  30
ATOM     27  C   UNL     1      -1.127  -0.304  -0.292  0.00  0.00    +0.120 A 
ATOM     28  C   UNL     1      -2.351   0.338  -0.177  0.00  0.00    +0.046 A 
ATOM     29  C   UNL     1      -3.513  -0.403  -0.085  0.00  0.00    +0.005 A 
ATOM     30  C   UNL     1      -3.456  -1.785  -0.106  0.00  0.00    -0.059 A 
ATOM     31  C   UNL     1      -2.237  -2.428  -0.220  0.00  0.00    +0.005 A 
ATOM     32  C   UNL     1      -1.073  -1.690  -0.319  0.00  0.00    +0.046 A 
BRANCH  27  34
ATOM     33  C   UNL     1      -0.113   1.845  -0.349  0.00  0.00    +0.277 C 
ATOM     34  O   UNL     1       0.018   0.423  -0.383  0.00  0.00    -0.495 OA
ENDBRANCH  27  34
ENDBRANCH  19  30
ENDBRANCH   1  19
TORSDOF 7
