REMARK  Name = ZINC30642163
REMARK  10 active torsions:
REMARK  status: ('A' for Active; 'I' for Inactive)
REMARK    1  A    between atoms: C_1  and  C_2
REMARK    2  A    between atoms: C_2  and  C_3
REMARK    3  A    between atoms: C_3  and  C_5
REMARK    4  A    between atoms: C_3  and  N_22
REMARK    5  A    between atoms: C_5  and  N_6
REMARK    6  A    between atoms: C_7  and  C_9
REMARK    7  A    between atoms: C_13  and  N_15
REMARK    8  A    between atoms: N_18  and  C_19
REMARK    9  A    between atoms: C_19  and  C_20
REMARK   10  A    between atoms: C_19  and  C_21
REMARK                            x       y       z     vdW  Elec       q    Type
REMARK                         _______ _______ _______ _____ _____    ______ ____
ROOT
ATOM      1  N   UNL     1      -4.692  -5.978  -0.626  0.00  0.00    -0.313 N 
ATOM      2  C   UNL     1      -5.176  -4.743  -0.867  0.00  0.00    +0.244 C 
ATOM      3  O   UNL     1      -6.356  -4.508  -0.694  0.00  0.00    -0.270 OA
ATOM      4  H   UNL     1      -3.624  -6.190  -0.783  0.00  0.00    +0.149 HD
ENDROOT
BRANCH   2   5
ATOM      5  C   UNL     1      -4.271  -3.674  -1.341  0.00  0.00    +0.038 A 
ATOM      6  C   UNL     1      -2.916  -3.941  -1.541  0.00  0.00    +0.013 A 
ATOM      7  C   UNL     1      -2.074  -2.942  -1.984  0.00  0.00    +0.003 A 
ATOM      8  C   UNL     1      -2.568  -1.676  -2.237  0.00  0.00    +0.023 A 
ATOM      9  C   UNL     1      -3.915  -1.398  -2.035  0.00  0.00    +0.035 A 
ATOM     10  C   UNL     1      -4.769  -2.395  -1.590  0.00  0.00    +0.036 A 
BRANCH   9  11
ATOM     11  N   UNL     1      -4.410  -0.113  -2.287  0.00  0.00    -0.269 N 
ATOM     12  C   UNL     1      -5.657   0.045  -2.773  0.00  0.00    +0.304 C 
ATOM     13  O   UNL     1      -6.315  -0.927  -3.089  0.00  0.00    -0.253 OA
ATOM     14  N   UNL     1      -6.175   1.282  -2.910  0.00  0.00    -0.297 N 
ATOM     15  H   UNL     1      -3.781   0.767  -2.087  0.00  0.00    +0.156 HD
ATOM     16  H   UNL     1      -5.580   2.162  -2.624  0.00  0.00    +0.151 HD
BRANCH  14  17
ATOM     17  C   UNL     1      -7.530   1.454  -3.439  0.00  0.00    +0.068 C 
ATOM     18  C   UNL     1      -8.108   2.779  -2.938  0.00  0.00    +0.027 C 
ATOM     19  C   UNL     1      -7.484   1.464  -4.968  0.00  0.00    +0.027 C 
ENDBRANCH  14  17
ENDBRANCH   9  11
ENDBRANCH   2   5
BRANCH   1  20
ATOM     20  C   UNL     1      -5.588  -7.037  -0.157  0.00  0.00    +0.089 C 
BRANCH  20  21
ATOM     21  C   UNL     1      -4.773  -8.293   0.157  0.00  0.00    -0.051 C 
BRANCH  21  22
ATOM     22  N   UNL     1      -3.725  -7.966   1.133  0.00  0.00    +0.385 N 
ATOM     23  C   UNL     1      -2.623  -8.939   1.070  0.00  0.00    -0.073 C 
ATOM     24  C   UNL     1      -1.423  -8.362   1.819  0.00  0.00    +0.017 C 
ATOM     25  C   UNL     1      -1.849  -7.886   3.184  0.00  0.00    -0.048 A 
ATOM     26  C   UNL     1      -0.871  -7.660   4.141  0.00  0.00    +0.004 A 
ATOM     27  C   UNL     1      -1.217  -7.215   5.401  0.00  0.00    +0.000 A 
ATOM     28  C   UNL     1      -2.546  -6.994   5.711  0.00  0.00    +0.000 A 
ATOM     29  C   UNL     1      -3.521  -7.221   4.760  0.00  0.00    +0.002 A 
ATOM     30  C   UNL     1      -3.174  -7.669   3.494  0.00  0.00    -0.061 A 
ATOM     31  C   UNL     1      -4.273  -7.906   2.492  0.00  0.00    -0.042 C 
ATOM     32  H   UNL     1      -3.330  -6.972   0.877  0.00  0.00    -0.081 HD
ENDBRANCH  21  22
BRANCH  21  34
ATOM     33  C   UNL     1      -4.894 -10.648   0.983  0.00  0.00    +0.002 C 
ATOM     34  C   UNL     1      -5.695  -9.367   0.738  0.00  0.00    -0.017 C 
ENDBRANCH  21  34
ENDBRANCH  20  21
ENDBRANCH   1  20
TORSDOF 7
