REMARK  Name = ZINC24834502
REMARK  10 active torsions:
REMARK  status: ('A' for Active; 'I' for Inactive)
REMARK    1  A    between atoms: C_1  and  C_2
REMARK    2  A    between atoms: C_2  and  C_3
REMARK    3  A    between atoms: C_4  and  C_31
REMARK    4  A    between atoms: C_6  and  C_8
REMARK    5  A    between atoms: N_10  and  C_11
REMARK    6  A    between atoms: C_11  and  C_12
REMARK    7  A    between atoms: C_17  and  C_20
REMARK    8  A    between atoms: C_20  and  N_21
REMARK    9  A    between atoms: C_23  and  C_30
REMARK   10  A    between atoms: C_26  and  C_29
REMARK                            x       y       z     vdW  Elec       q    Type
REMARK                         _______ _______ _______ _____ _____    ______ ____
ROOT
ATOM      1  C   UNL     1      -6.464  -2.407   4.464  0.00  0.00    +0.236 C 
ATOM      2  O   UNL     1      -5.449  -2.035   5.013  0.00  0.00    -0.274 OA
ATOM      3  N   UNL     1      -7.522  -2.801   5.200  0.00  0.00    -0.263 N 
ATOM      4  C   UNL     1      -7.451  -2.779   6.588  0.00  0.00    +0.165 A 
ATOM      5  N   UNL     1      -8.372  -3.128   7.460  0.00  0.00    -0.228 NA
ATOM      6  C   UNL     1      -8.147  -3.049   8.758  0.00  0.00    +0.064 A 
ATOM      7  C   UNL     1      -6.931  -2.595   9.146  0.00  0.00    +0.073 A 
ATOM      8  S   UNL     1      -6.161  -2.308   7.561  0.00  0.00    -0.060 S 
ATOM      9  H   UNL     1      -8.334  -3.099   4.761  0.00  0.00    +0.157 HD
ENDROOT
BRANCH   1  10
ATOM     10  C   UNL     1      -6.542  -2.431   2.959  0.00  0.00    +0.200 C 
BRANCH  10  13
ATOM     11  C   UNL     1      -5.111  -1.895   1.061  0.00  0.00    +0.251 C 
ATOM     12  O   UNL     1      -6.019  -2.228   0.321  0.00  0.00    -0.270 OA
ATOM     13  N   UNL     1      -5.273  -1.960   2.397  0.00  0.00    -0.302 N 
ATOM     14  H   UNL     1      -4.550  -1.695   2.987  0.00  0.00    +0.150 HD
BRANCH  11  18
ATOM     15  C   UNL     1      -1.412  -0.526   0.013  0.00  0.00    -0.007 A 
ATOM     16  C   UNL     1      -2.201  -0.814  -1.051  0.00  0.00    -0.040 A 
ATOM     17  C   UNL     1      -3.474  -1.284  -0.831  0.00  0.00    +0.024 A 
ATOM     18  C   UNL     1      -3.842  -1.425   0.498  0.00  0.00    +0.074 A 
ATOM     19  S   UNL     1      -2.367  -0.891   1.345  0.00  0.00    -0.088 S 
ATOM     20  C   UNL     1      -1.692  -0.620  -2.456  0.00  0.00    +0.044 C 
BRANCH  15  22
ATOM     21  C   UNL     1      -0.019   1.526   0.010  0.00  0.00    +0.009 C 
ATOM     22  C   UNL     1       0.002  -0.004   0.002  0.00  0.00    +0.039 C 
ENDBRANCH  15  22
ENDBRANCH  11  18
ENDBRANCH  10  13
ENDBRANCH   1  10
BRANCH   6  23
ATOM     23  C   UNL     1      -9.197  -3.446   9.764  0.00  0.00    +0.140 C 
BRANCH  23  24
ATOM     24  N   UNL     1     -10.098  -2.312  10.005  0.00  0.00    -0.292 NA
ATOM     25  C   UNL     1      -9.389  -1.207  10.668  0.00  0.00    +0.116 C 
ATOM     26  C   UNL     1     -10.347  -0.027  10.846  0.00  0.00    +0.130 C 
ATOM     27  O   UNL     1     -11.492  -0.456  11.587  0.00  0.00    -0.371 OA
ATOM     28  C   UNL     1     -12.207  -1.530  10.970  0.00  0.00    +0.130 C 
ATOM     29  C   UNL     1     -11.268  -2.726  10.793  0.00  0.00    +0.116 C 
ATOM     30  C   UNL     1     -12.726  -1.080   9.603  0.00  0.00    +0.039 C 
ATOM     31  C   UNL     1      -9.638   1.097  11.605  0.00  0.00    +0.039 C 
ENDBRANCH  23  24
ENDBRANCH   6  23
TORSDOF 6
