REMARK  Name = ZINC60155958
REMARK  12 active torsions:
REMARK  status: ('A' for Active; 'I' for Inactive)
REMARK    1  A    between atoms: C_1  and  C_2
REMARK    2  A    between atoms: C_5  and  C_8
REMARK    3  A    between atoms: C_8  and  C_10
REMARK    4  A    between atoms: C_8  and  N_30
REMARK    5  A    between atoms: C_10  and  N_11
REMARK    6  A    between atoms: C_12  and  C_14
REMARK    7  A    between atoms: N_19  and  C_21
REMARK    8  A    between atoms: C_23  and  C_29
REMARK    9  A    between atoms: C_26  and  O_27
REMARK   10  A    between atoms: O_27  and  C_28
REMARK   11  A    between atoms: N_30  and  C_31
REMARK   12  A    between atoms: N_30  and  C_32
REMARK                            x       y       z     vdW  Elec       q    Type
REMARK                         _______ _______ _______ _____ _____    ______ ____
ROOT
ATOM      1  N   UNL     1       0.775  -6.390   0.511  0.00  0.00    -0.316 N 
ATOM      2  C   UNL     1       1.769  -7.242   0.829  0.00  0.00    +0.218 C 
ATOM      3  O   UNL     1       2.914  -6.845   0.885  0.00  0.00    -0.275 OA
ATOM      4  H   UNL     1      -0.141  -6.708   0.467  0.00  0.00    +0.149 HD
ENDROOT
BRANCH   2   5
ATOM      5  C   UNL     1       1.460  -8.689   1.116  0.00  0.00    +0.101 C 
ATOM      6  C   UNL     1       0.902  -9.395  -0.142  0.00  0.00    +0.110 C 
ATOM      7  C   UNL     1       2.122 -10.007  -0.795  0.00  0.00    +0.221 C 
ATOM      8  O   UNL     1       2.170 -10.407  -1.939  0.00  0.00    -0.275 OA
ATOM      9  N   UNL     1       3.144 -10.042   0.077  0.00  0.00    -0.267 N 
ATOM     10  C   UNL     1       2.754  -9.490   1.380  0.00  0.00    +0.127 C 
BRANCH   9  11
ATOM     11  C   UNL     1       4.419 -10.543  -0.220  0.00  0.00    +0.078 A 
ATOM     12  C   UNL     1       5.399  -9.698  -0.721  0.00  0.00    +0.030 A 
ATOM     13  C   UNL     1       6.655 -10.193  -1.012  0.00  0.00    -0.048 A 
ATOM     14  C   UNL     1       6.940 -11.531  -0.806  0.00  0.00    +0.007 A 
ATOM     15  C   UNL     1       5.969 -12.379  -0.307  0.00  0.00    +0.048 A 
ATOM     16  C   UNL     1       4.708 -11.889  -0.007  0.00  0.00    +0.141 A 
ATOM     17  C   UNL     1       7.718  -9.274  -1.557  0.00  0.00    +0.044 C 
BRANCH  16  18
ATOM     18  O   UNL     1       3.754 -12.720   0.490  0.00  0.00    -0.493 OA
ATOM     19  C   UNL     1       4.121 -14.088   0.682  0.00  0.00    +0.277 C 
ENDBRANCH  16  18
ENDBRANCH   9  11
ENDBRANCH   2   5
BRANCH   1  20
ATOM     20  C   UNL     1       1.076  -4.984   0.232  0.00  0.00    +0.093 C 
BRANCH  20  21
ATOM     21  C   UNL     1      -0.228  -4.220  -0.006  0.00  0.00    -0.021 C 
BRANCH  21  26
ATOM     22  C   UNL     1      -2.813  -6.252  -4.758  0.00  0.00    +0.044 C 
ATOM     23  C   UNL     1      -2.139  -5.722  -3.519  0.00  0.00    -0.050 A 
ATOM     24  C   UNL     1      -2.566  -6.134  -2.270  0.00  0.00    +0.003 A 
ATOM     25  C   UNL     1      -1.948  -5.648  -1.133  0.00  0.00    +0.002 A 
ATOM     26  C   UNL     1      -0.902  -4.751  -1.245  0.00  0.00    -0.059 A 
ATOM     27  C   UNL     1      -0.474  -4.340  -2.494  0.00  0.00    +0.002 A 
ATOM     28  C   UNL     1      -1.090  -4.829  -3.631  0.00  0.00    +0.003 A 
ENDBRANCH  21  26
BRANCH  21  29
ATOM     29  N   UNL     1       0.065  -2.792  -0.181  0.00  0.00    +0.382 N 
ATOM     30  C   UNL     1      -1.182  -2.065  -0.455  0.00  0.00    -0.096 C 
ATOM     31  C   UNL     1       0.681  -2.264   1.044  0.00  0.00    -0.096 C 
ATOM     32  H   UNL     1       0.701  -2.672  -0.956  0.00  0.00    -0.082 HD
ENDBRANCH  21  29
ENDBRANCH  20  21
ENDBRANCH   1  20
TORSDOF 7
