REMARK  Name = ZINC09512789
REMARK  8 active torsions:
REMARK  status: ('A' for Active; 'I' for Inactive)
REMARK    1  A    between atoms: C_1  and  C_2
REMARK    2  A    between atoms: C_4  and  C_27
REMARK    3  A    between atoms: C_5  and  C_9
REMARK    4  A    between atoms: C_7  and  C_8
REMARK    5  A    between atoms: C_9  and  C_11
REMARK    6  A    between atoms: C_11  and  N_12
REMARK    7  A    between atoms: C_15  and  C_19
REMARK    8  A    between atoms: C_15  and  C_20
REMARK                            x       y       z     vdW  Elec       q    Type
REMARK                         _______ _______ _______ _____ _____    ______ ____
ROOT
ATOM      1  N   UNL     1       4.089  -0.483  -0.976  0.00  0.00    -0.216 N 
ATOM      2  C   UNL     1       5.007  -0.747  -0.026  0.00  0.00    +0.251 C 
ATOM      3  O   UNL     1       4.837  -0.759   1.174  0.00  0.00    -0.272 OA
ATOM      4  C   UNL     1       6.298  -1.026  -0.770  0.00  0.00    +0.136 C 
ATOM      5  N   UNL     1       5.921  -0.873  -2.186  0.00  0.00    -0.281 N 
ATOM      6  C   UNL     1       4.613  -0.561  -2.205  0.00  0.00    +0.310 C 
ATOM      7  O   UNL     1       3.979  -0.368  -3.224  0.00  0.00    -0.252 OA
ATOM      8  C   UNL     1       6.784  -2.450  -0.491  0.00  0.00    +0.047 C 
ATOM      9  H   UNL     1       6.503  -0.979  -2.955  0.00  0.00    +0.152 HD
ENDROOT
BRANCH   4  10
ATOM     10  C   UNL     1       7.356  -0.023  -0.391  0.00  0.00    -0.002 A 
ATOM     11  C   UNL     1       7.921   0.785  -1.360  0.00  0.00    +0.007 A 
ATOM     12  C   UNL     1       8.888   1.710  -1.012  0.00  0.00    +0.000 A 
ATOM     13  C   UNL     1       9.298   1.819   0.304  0.00  0.00    +0.001 A 
ATOM     14  C   UNL     1       8.738   1.008   1.272  0.00  0.00    +0.015 A 
ATOM     15  C   UNL     1       7.766   0.086   0.925  0.00  0.00    +0.024 A 
ATOM     16 BR   UNL     1       6.999  -1.024   2.250  0.00  0.00    -0.050 Br
ENDBRANCH   4  10
BRANCH   1  17
ATOM     17  C   UNL     1       2.688  -0.158  -0.699  0.00  0.00    +0.197 C 
BRANCH  17  18
ATOM     18  C   UNL     1       2.540   1.334  -0.542  0.00  0.00    +0.181 C 
ATOM     19  O   UNL     1       3.509   2.054  -0.651  0.00  0.00    -0.290 OA
BRANCH  18  24
ATOM     20  C   UNL     1      -2.619   3.610   0.576  0.00  0.00    +0.044 C 
ATOM     21  C   UNL     1      -1.267   3.013   0.284  0.00  0.00    -0.047 A 
ATOM     22  C   UNL     1      -0.143   3.821   0.283  0.00  0.00    +0.007 A 
ATOM     23  C   UNL     1       1.097   3.283   0.015  0.00  0.00    -0.040 A 
ATOM     24  C   UNL     1       1.219   1.916  -0.256  0.00  0.00    +0.022 A 
ATOM     25  C   UNL     1       0.079   1.106  -0.253  0.00  0.00    +0.015 A 
ATOM     26  C   UNL     1      -1.155   1.661   0.011  0.00  0.00    -0.047 A 
ATOM     27  C   UNL     1      -2.386   0.791   0.008  0.00  0.00    +0.044 C 
ATOM     28  C   UNL     1       2.320   4.165   0.015  0.00  0.00    +0.044 C 
ENDBRANCH  18  24
ENDBRANCH  17  18
ENDBRANCH   1  17
TORSDOF 4
