REMARK  Name = ZINC19852908
REMARK  13 active torsions:
REMARK  status: ('A' for Active; 'I' for Inactive)
REMARK    1  A    between atoms: C_1  and  C_2
REMARK    2  A    between atoms: C_2  and  C_3
REMARK    3  A    between atoms: C_2  and  O_4
REMARK    4  A    between atoms: O_4  and  C_5
REMARK    5  A    between atoms: C_10  and  C_11
REMARK    6  A    between atoms: C_16  and  C_31
REMARK    7  A    between atoms: C_21  and  C_29
REMARK    8  A    between atoms: C_22  and  N_28
REMARK    9  A    between atoms: C_23  and  C_24
REMARK   10  A    between atoms: C_23  and  C_26
REMARK   11  A    between atoms: C_31  and  C_32
REMARK   12  A    between atoms: C_31  and  C_33
REMARK   13  A    between atoms: C_31  and  C_34
REMARK                            x       y       z     vdW  Elec       q    Type
REMARK                         _______ _______ _______ _____ _____    ______ ____
ROOT
ATOM      1  C   UNL     1      -3.304   2.225  -0.667  0.00  0.00    +0.070 C 
ATOM      2  C   UNL     1      -3.328   3.404   0.308  0.00  0.00    +0.031 C 
ATOM      3  C   UNL     1      -4.731   3.910   0.547  0.00  0.00    +0.013 C 
ATOM      4  C   UNL     1      -5.043   5.144  -0.296  0.00  0.00    -0.001 C 
ATOM      5  C   UNL     1      -4.030   6.242   0.060  0.00  0.00    +0.031 C 
ATOM      6  C   UNL     1      -2.655   5.727  -0.280  0.00  0.00    -0.021 C 
ATOM      7  C   UNL     1      -2.366   4.444  -0.185  0.00  0.00    -0.029 C 
ATOM      8  C   UNL     1      -1.031   3.966  -0.631  0.00  0.00    +0.074 C 
ATOM      9  C   UNL     1      -0.842   2.643  -0.863  0.00  0.00    +0.054 C 
ATOM     10  C   UNL     1      -1.906   1.607  -0.662  0.00  0.00    +0.188 C 
ENDROOT
BRANCH   1  16
ATOM     11  C   UNL     1      -4.472   0.896   1.110  0.00  0.00    +0.124 A 
ATOM     12  C   UNL     1      -5.403  -0.054   1.504  0.00  0.00    +0.046 A 
ATOM     13  C   UNL     1      -6.170  -0.702   0.555  0.00  0.00    +0.004 A 
ATOM     14  C   UNL     1      -6.011  -0.404  -0.785  0.00  0.00    +0.001 A 
ATOM     15  C   UNL     1      -5.087   0.546  -1.180  0.00  0.00    +0.007 A 
ATOM     16  C   UNL     1      -4.314   1.193  -0.236  0.00  0.00    +0.001 A 
BRANCH  11  17
ATOM     17  O   UNL     1      -3.716   1.536   2.041  0.00  0.00    -0.489 OA
BRANCH  17  19
ATOM     18  C   UNL     1      -2.954   0.089   3.821  0.00  0.00    +0.051 C 
ATOM     19  C   UNL     1      -3.938   1.185   3.409  0.00  0.00    +0.167 C 
ATOM     20  C   UNL     1      -3.728   2.417   4.292  0.00  0.00    +0.051 C 
ENDBRANCH  17  19
ENDBRANCH  11  17
ENDBRANCH   1  16
BRANCH   4  21
ATOM     21  C   UNL     1      -4.924   4.797  -1.782  0.00  0.00    -0.035 C 
ATOM     22  C   UNL     1      -3.448   4.766  -2.182  0.00  0.00    +0.011 C 
ATOM     23  C   UNL     1      -5.551   3.425  -2.036  0.00  0.00    +0.011 C 
ATOM     24  C   UNL     1      -5.656   5.854  -2.612  0.00  0.00    +0.011 C 
ENDBRANCH   4  21
BRANCH   9  25
ATOM     25  N   UNL     1       0.387   2.232  -1.298  0.00  0.00    -0.358 N 
ATOM     26  H   UNL     1       0.572   1.166  -1.496  0.00  0.00    +0.142 HD
ATOM     27  H   UNL     1       1.191   2.968  -1.451  0.00  0.00    +0.142 HD
ENDBRANCH   9  25
BRANCH  10  28
ATOM     28  C   UNL     1      -1.817   0.612  -1.744  0.00  0.00    +0.091 C 
ATOM     29  N   UNL     1      -1.749  -0.156  -2.579  0.00  0.00    -0.194 NA
ENDBRANCH  10  28
BRANCH  10  30
ATOM     30  C   UNL     1      -1.683   0.933   0.627  0.00  0.00    +0.091 C 
ATOM     31  N   UNL     1      -1.511   0.412   1.622  0.00  0.00    -0.194 NA
ENDBRANCH  10  30
BRANCH   8  32
ATOM     32  C   UNL     1       0.044   4.894  -0.818  0.00  0.00    +0.101 C 
ATOM     33  N   UNL     1       0.896   5.630  -0.966  0.00  0.00    -0.191 NA
ENDBRANCH   8  32
TORSDOF 8
