REMARK  Name = ZINC39696115
REMARK  8 active torsions:
REMARK  status: ('A' for Active; 'I' for Inactive)
REMARK    1  A    between atoms: C_1  and  C_2
REMARK    2  A    between atoms: C_2  and  C_3
REMARK    3  A    between atoms: C_6  and  C_9
REMARK    4  A    between atoms: C_9  and  C_11
REMARK    5  A    between atoms: C_9  and  N_12
REMARK    6  A    between atoms: C_13  and  C_15
REMARK    7  A    between atoms: C_26  and  C_28
REMARK    8  A    between atoms: C_34  and  C_36
REMARK                            x       y       z     vdW  Elec       q    Type
REMARK                         _______ _______ _______ _____ _____    ______ ____
ROOT
ATOM      1  C   UNL     1       2.562  -0.416   8.252  0.00  0.00    +0.100 C 
ATOM      2  C   UNL     1       2.327   1.088   7.984  0.00  0.00    +0.121 C 
ATOM      3  N   UNL     1       2.669   1.754   9.262  0.00  0.00    -0.300 N 
ATOM      4  C   UNL     1       3.858   1.018   9.755  0.00  0.00    +0.115 C 
ATOM      5  C   UNL     1       3.568  -0.457   9.415  0.00  0.00    -0.004 C 
ATOM      6  C   UNL     1       2.955  -1.166  10.619  0.00  0.00    -0.010 C 
ATOM      7  C   UNL     1       3.993  -1.244  11.742  0.00  0.00    -0.082 C 
ATOM      8  N   UNL     1       5.174  -1.975  11.268  0.00  0.00    +0.379 N 
ATOM      9  C   UNL     1       5.811  -1.239  10.169  0.00  0.00    -0.082 C 
ATOM     10  C   UNL     1       4.850  -1.160   8.980  0.00  0.00    -0.010 C 
ATOM     11  C   UNL     1       2.041   2.794   9.846  0.00  0.00    +0.219 C 
ATOM     12  O   UNL     1       2.445   3.231  10.902  0.00  0.00    -0.275 OA
ATOM     13  H   UNL     1       5.831  -2.079  12.027  0.00  0.00    -0.086 HD
ATOM     14  H   UNL     1       4.895  -2.888  10.941  0.00  0.00    -0.086 HD
ENDROOT
BRANCH  11  15
ATOM     15  C   UNL     1       0.837   3.414   9.185  0.00  0.00    +0.078 C 
ATOM     16  C   UNL     1       1.229   3.944   7.804  0.00  0.00    +0.032 C 
ATOM     17  C   UNL     1      -0.005   4.542   7.122  0.00  0.00    +0.108 C 
ATOM     18  N   UNL     1      -0.595   5.552   8.011  0.00  0.00    -0.302 N 
ATOM     19  C   UNL     1      -0.926   5.171   9.391  0.00  0.00    +0.108 C 
ATOM     20  C   UNL     1       0.318   4.566  10.048  0.00  0.00    +0.032 C 
ATOM     21  C   UNL     1      -0.827   6.804   7.569  0.00  0.00    +0.212 C 
ATOM     22  O   UNL     1      -1.216   7.656   8.340  0.00  0.00    -0.276 OA
ATOM     23  C   UNL     1      -0.601   7.146   6.119  0.00  0.00    +0.109 C 
ENDBRANCH  11  15
BRANCH   1  25
ATOM     24  N   UNL     1       3.043  -2.417   6.880  0.00  0.00    -0.308 N 
ATOM     25  C   UNL     1       3.143  -1.082   7.032  0.00  0.00    +0.219 C 
ATOM     26  O   UNL     1       3.702  -0.416   6.185  0.00  0.00    -0.275 OA
ATOM     27  H   UNL     1       2.596  -2.950   7.557  0.00  0.00    +0.149 HD
BRANCH  24  28
ATOM     28  C   UNL     1       3.608  -3.065   5.694  0.00  0.00    +0.100 C 
ATOM     29  C   UNL     1       5.093  -3.350   5.927  0.00  0.00    +0.033 C 
BRANCH  28  33
ATOM     30  C   UNL     1       1.552  -6.737   4.959  0.00  0.00    -0.048 A 
ATOM     31  C   UNL     1       1.910  -5.921   3.901  0.00  0.00    +0.004 A 
ATOM     32  C   UNL     1       2.575  -4.732   4.139  0.00  0.00    +0.006 A 
ATOM     33  C   UNL     1       2.882  -4.360   5.435  0.00  0.00    -0.027 A 
ATOM     34  C   UNL     1       2.524  -5.175   6.492  0.00  0.00    +0.006 A 
ATOM     35  C   UNL     1       1.855  -6.362   6.254  0.00  0.00    +0.004 A 
BRANCH  30  37
ATOM     36  C   UNL     1      -0.682  -7.782   4.708  0.00  0.00    +0.009 C 
ATOM     37  C   UNL     1       0.827  -8.032   4.699  0.00  0.00    +0.032 C 
ENDBRANCH  30  37
ENDBRANCH  28  33
ENDBRANCH  24  28
ENDBRANCH   1  25
TORSDOF 5
