REMARK  Name = ZINC31661059
REMARK  14 active torsions:
REMARK  status: ('A' for Active; 'I' for Inactive)
REMARK    1  A    between atoms: C_1  and  C_2
REMARK    2  A    between atoms: C_4  and  C_32
REMARK    3  A    between atoms: C_6  and  C_31
REMARK    4  A    between atoms: C_7  and  C_8
REMARK    5  A    between atoms: C_8  and  C_9
REMARK    6  A    between atoms: C_9  and  N_10
REMARK    7  A    between atoms: C_11  and  C_13
REMARK    8  A    between atoms: C_13  and  N_14
REMARK    9  A    between atoms: C_17  and  C_21
REMARK   10  A    between atoms: C_17  and  C_22
REMARK   11  A    between atoms: C_26  and  N_28
REMARK   12  A    between atoms: C_32  and  C_33
REMARK   13  A    between atoms: C_32  and  C_34
REMARK   14  A    between atoms: C_32  and  C_35
REMARK                            x       y       z     vdW  Elec       q    Type
REMARK                         _______ _______ _______ _____ _____    ______ ____
ROOT
ATOM      1  C   UNL     1      -2.578   2.068   6.139  0.00  0.00    +0.213 C 
ENDROOT
BRANCH   1   2
ATOM      2  N   UNL     1      -3.958   2.291   6.577  0.00  0.00    -0.215 N 
ATOM      3  C   UNL     1      -4.692   3.372   6.246  0.00  0.00    +0.251 C 
ATOM      4  O   UNL     1      -4.347   4.308   5.557  0.00  0.00    -0.272 OA
ATOM      5  C   UNL     1      -6.038   3.174   6.915  0.00  0.00    +0.135 C 
ATOM      6  N   UNL     1      -5.893   1.883   7.609  0.00  0.00    -0.281 N 
ATOM      7  C   UNL     1      -4.648   1.444   7.349  0.00  0.00    +0.310 C 
ATOM      8  O   UNL     1      -4.200   0.396   7.771  0.00  0.00    -0.252 OA
ATOM      9  C   UNL     1      -7.152   3.100   5.869  0.00  0.00    +0.047 C 
ATOM     10  H   UNL     1      -6.565   1.436   8.147  0.00  0.00    +0.152 HD
BRANCH   5  11
ATOM     11  C   UNL     1      -6.307   4.280   7.902  0.00  0.00    -0.013 A 
ATOM     12  C   UNL     1      -5.783   5.541   7.687  0.00  0.00    +0.006 A 
ATOM     13  C   UNL     1      -6.031   6.556   8.593  0.00  0.00    +0.003 A 
ATOM     14  C   UNL     1      -6.802   6.309   9.713  0.00  0.00    +0.033 A 
ATOM     15  C   UNL     1      -7.327   5.049   9.928  0.00  0.00    +0.127 A 
ATOM     16  C   UNL     1      -7.083   4.035   9.020  0.00  0.00    +0.039 A 
BRANCH  15  17
ATOM     17  N   UNL     1      -8.152   4.785  11.127  0.00  0.00    +0.056 N 
ATOM     18  O   UNL     1      -8.368   5.672  11.920  0.00  0.00    -0.126 OA
ATOM     19  O   UNL     1      -8.611   3.682  11.315  0.00  0.00    -0.126 OA
ENDBRANCH  15  17
ENDBRANCH   5  11
ENDBRANCH   1   2
BRANCH   1  21
ATOM     20  N   UNL     1      -1.414   1.003   4.234  0.00  0.00    -0.314 N 
ATOM     21  C   UNL     1      -2.580   1.321   4.830  0.00  0.00    +0.231 C 
ATOM     22  O   UNL     1      -3.631   1.007   4.314  0.00  0.00    -0.274 OA
ATOM     23  H   UNL     1      -0.574   1.255   4.647  0.00  0.00    +0.149 HD
BRANCH  20  24
ATOM     24  C   UNL     1      -1.416   0.278   2.961  0.00  0.00    +0.109 C 
BRANCH  24  25
ATOM     25  C   UNL     1       0.025   0.045   2.505  0.00  0.00    +0.054 C 
BRANCH  25  32
ATOM     26  C   UNL     1      -0.018   1.503   0.010  0.00  0.00    +0.044 C 
ATOM     27  C   UNL     1       0.002  -0.004   0.002  0.00  0.00    -0.047 A 
ATOM     28  C   UNL     1       0.006  -0.689  -1.199  0.00  0.00    +0.007 A 
ATOM     29  C   UNL     1       0.025  -2.071  -1.206  0.00  0.00    -0.041 A 
ATOM     30  C   UNL     1       0.040  -2.768  -0.013  0.00  0.00    +0.007 A 
ATOM     31  C   UNL     1       0.037  -2.084   1.188  0.00  0.00    -0.047 A 
ATOM     32  C   UNL     1       0.023  -0.702   1.195  0.00  0.00    -0.040 A 
ATOM     33  C   UNL     1       0.054  -2.844   2.489  0.00  0.00    +0.044 C 
BRANCH  29  34
ATOM     34  C   UNL     1       0.027  -2.817  -2.516  0.00  0.00    -0.013 C 
ATOM     35  C   UNL     1       1.267  -2.426  -3.323  0.00  0.00    +0.015 C 
ATOM     36  C   UNL     1       0.049  -4.323  -2.244  0.00  0.00    +0.015 C 
ATOM     37  C   UNL     1      -1.231  -2.460  -3.309  0.00  0.00    +0.015 C 
ENDBRANCH  29  34
ENDBRANCH  25  32
ENDBRANCH  24  25
ENDBRANCH  20  24
ENDBRANCH   1  21
TORSDOF 8
