REMARK  Name = ZINC08123519
REMARK  6 active torsions:
REMARK  status: ('A' for Active; 'I' for Inactive)
REMARK    1  A    between atoms: C_4  and  C_7
REMARK    2  A    between atoms: C_10  and  S_18
REMARK    3  A    between atoms: N_11  and  C_12
REMARK    4  A    between atoms: S_18  and  C_19
REMARK    5  A    between atoms: C_19  and  C_20
REMARK    6  A    between atoms: N_22  and  N_23
REMARK                            x       y       z     vdW  Elec       q    Type
REMARK                         _______ _______ _______ _____ _____    ______ ____
ROOT
ATOM      1  C   UNL     1       1.740  -2.271   0.704  0.00  0.00    +0.169 A 
ATOM      2  N   UNL     1       1.613  -3.538   0.385  0.00  0.00    -0.128 NA
ATOM      3  N   UNL     1       0.944  -3.652  -0.706  0.00  0.00    -0.122 NA
ATOM      4  C   UNL     1       0.597  -2.464  -1.150  0.00  0.00    +0.197 A 
ATOM      5  N   UNL     1       1.088  -1.542  -0.267  0.00  0.00    -0.270 N 
ENDROOT
BRANCH   1   9
ATOM      6  C   UNL     1       3.767  -0.713   4.096  0.00  0.00    +0.000 A 
ATOM      7  C   UNL     1       2.857   0.076   3.414  0.00  0.00    +0.001 A 
ATOM      8  C   UNL     1       2.195  -0.424   2.312  0.00  0.00    +0.011 A 
ATOM      9  C   UNL     1       2.445  -1.729   1.885  0.00  0.00    +0.020 A 
ATOM     10  C   UNL     1       3.360  -2.521   2.579  0.00  0.00    +0.011 A 
ATOM     11  C   UNL     1       4.020  -2.007   3.677  0.00  0.00    +0.001 A 
ENDBRANCH   1   9
BRANCH   5  12
ATOM     12  C   UNL     1       0.960  -0.148  -0.337  0.00  0.00    +0.051 A 
ATOM     13  C   UNL     1      -0.284   0.446  -0.166  0.00  0.00    +0.026 A 
ATOM     14  C   UNL     1      -0.407   1.820  -0.236  0.00  0.00    +0.002 A 
ATOM     15  C   UNL     1       0.707   2.603  -0.476  0.00  0.00    +0.000 A 
ATOM     16  C   UNL     1       1.946   2.015  -0.647  0.00  0.00    +0.002 A 
ATOM     17  C   UNL     1       2.076   0.641  -0.579  0.00  0.00    +0.026 A 
ENDBRANCH   5  12
BRANCH   4  18
ATOM     18  S   UNL     1      -0.329  -2.123  -2.610  0.00  0.00    -0.076 S 
BRANCH  18  19
ATOM     19  C   UNL     1      -0.599  -3.809  -3.212  0.00  0.00    +0.174 C 
BRANCH  19  20
ATOM     20  C   UNL     1      -1.394  -3.764  -4.492  0.00  0.00    +0.242 C 
ATOM     21  O   UNL     1      -1.744  -2.697  -4.951  0.00  0.00    -0.273 OA
ATOM     22  N   UNL     1      -1.716  -4.909  -5.125  0.00  0.00    -0.206 N 
ATOM     23  H   UNL     1      -1.436  -5.762  -4.758  0.00  0.00    +0.177 HD
BRANCH  22  24
ATOM     24  N   UNL     1      -2.456  -4.867  -6.314  0.00  0.00    -0.189 NA
ATOM     25  C   UNL     1      -2.846  -5.956  -6.863  0.00  0.00    +0.037 C 
ATOM     26  C   UNL     1      -2.425  -7.299  -6.310  0.00  0.00    +0.052 C 
ATOM     27  C   UNL     1      -3.684  -8.157  -6.113  0.00  0.00    +0.006 C 
ATOM     28  C   UNL     1      -4.456  -8.233  -7.431  0.00  0.00    +0.001 C 
ATOM     29  C   UNL     1      -4.944  -6.839  -7.828  0.00  0.00    +0.006 C 
ATOM     30  C   UNL     1      -3.737  -5.932  -8.086  0.00  0.00    +0.052 C 
ENDBRANCH  22  24
ENDBRANCH  19  20
ENDBRANCH  18  19
ENDBRANCH   4  18
TORSDOF 6
