REMARK  Name = ZINC41671597
REMARK  6 active torsions:
REMARK  status: ('A' for Active; 'I' for Inactive)
REMARK    1  A    between atoms: C_1  and  C_2
REMARK    2  A    between atoms: C_5  and  C_8
REMARK    3  A    between atoms: C_8  and  C_10
REMARK    4  A    between atoms: C_10  and  O_11
REMARK    5  A    between atoms: O_11  and  C_12
REMARK    6  A    between atoms: N_22  and  N_23
REMARK                            x       y       z     vdW  Elec       q    Type
REMARK                         _______ _______ _______ _____ _____    ______ ____
ROOT
ATOM      1  C   UNL     1       0.108  -7.243   2.084  0.00  0.00    +0.147 A 
ATOM      2  C   UNL     1       0.102  -6.729   3.360  0.00  0.00    +0.048 A 
ATOM      3  C   UNL     1       0.118  -7.571   4.468  0.00  0.00    +0.004 A 
ATOM      4  C   UNL     1       0.141  -8.925   4.318  0.00  0.00    +0.010 A 
ATOM      5  C   UNL     1       0.147  -9.486   3.031  0.00  0.00    +0.004 A 
ATOM      6  C   UNL     1       0.125  -8.640   1.897  0.00  0.00    +0.115 A 
ATOM      7  N   UNL     1       0.127  -9.170   0.668  0.00  0.00    -0.227 NA
ATOM      8  C   UNL     1       0.144 -10.474   0.487  0.00  0.00    +0.133 A 
ATOM      9  C   UNL     1       0.160 -11.365   1.570  0.00  0.00    +0.045 A 
ATOM     10  C   UNL     1       0.170 -10.884   2.844  0.00  0.00    +0.013 A 
ATOM     11  N   UNL     1       0.145 -10.978  -0.806  0.00  0.00    -0.268 N 
ATOM     12  H   UNL     1       0.157 -11.937  -0.952  0.00  0.00    +0.167 HD
ENDROOT
BRANCH  11  13
ATOM     13  N   UNL     1       0.128 -10.125  -1.872  0.00  0.00    -0.255 NA
ATOM     14  H   UNL     1       0.131 -10.634  -2.743  0.00  0.00    +0.140 HD
ATOM     15  H   UNL     1      -0.662  -9.499  -1.822  0.00  0.00    +0.140 HD
ENDBRANCH  11  13
BRANCH   1  16
ATOM     16  O   UNL     1       0.091  -6.409   1.011  0.00  0.00    -0.482 OA
BRANCH  16  17
ATOM     17  C   UNL     1       0.075  -5.006   1.280  0.00  0.00    +0.308 C 
BRANCH  17  18
ATOM     18  C   UNL     1       0.058  -4.245  -0.021  0.00  0.00    +0.200 C 
ATOM     19  O   UNL     1       0.060  -4.846  -1.075  0.00  0.00    -0.288 OA
BRANCH  18  24
ATOM     20  C   UNL     1      -0.018   1.503   0.010  0.00  0.00    +0.044 C 
ATOM     21  C   UNL     1       0.002  -0.004   0.002  0.00  0.00    -0.050 A 
ATOM     22  C   UNL     1       0.006  -0.686  -1.202  0.00  0.00    +0.004 A 
ATOM     23  C   UNL     1       0.024  -2.064  -1.218  0.00  0.00    +0.012 A 
ATOM     24  C   UNL     1       0.039  -2.774  -0.013  0.00  0.00    +0.021 A 
ATOM     25  C   UNL     1       0.036  -2.078   1.200  0.00  0.00    +0.012 A 
ATOM     26  C   UNL     1       0.023  -0.699   1.199  0.00  0.00    +0.004 A 
ENDBRANCH  18  24
ENDBRANCH  17  18
ENDBRANCH  16  17
ENDBRANCH   1  16
TORSDOF 5
