REMARK  Name = ZINC08007992
REMARK  6 active torsions:
REMARK  status: ('A' for Active; 'I' for Inactive)
REMARK    1  A    between atoms: C_1  and  C_2
REMARK    2  A    between atoms: C_8  and  C_16
REMARK    3  A    between atoms: C_16  and  O_18
REMARK    4  A    between atoms: O_18  and  C_19
REMARK    5  A    between atoms: C_19  and  C_20
REMARK    6  A    between atoms: N_25  and  C_26
REMARK                            x       y       z     vdW  Elec       q    Type
REMARK                         _______ _______ _______ _____ _____    ______ ____
ROOT
ATOM      1  C   UNL     1      -4.884   0.273  -1.285  0.00  0.00    +0.341 C 
ATOM      2  O   UNL     1      -4.952  -0.887  -1.640  0.00  0.00    -0.245 OA
ENDROOT
BRANCH   1   9
ATOM      3  C   UNL     1       0.071   1.333  -2.483  0.00  0.00    +0.008 C 
ATOM      4  C   UNL     1      -0.762   1.598  -1.227  0.00  0.00    -0.009 C 
ATOM      5  C   UNL     1      -0.013   1.086   0.008  0.00  0.00    +0.010 C 
ATOM      6  C   UNL     1      -0.736   1.582   1.258  0.00  0.00    +0.056 C 
ATOM      7  C   UNL     1      -2.209   1.242   1.183  0.00  0.00    +0.046 A 
ATOM      8  C   UNL     1      -2.830   0.913  -0.014  0.00  0.00    -0.011 A 
ATOM      9  C   UNL     1      -4.194   0.621  -0.025  0.00  0.00    +0.073 A 
ATOM     10  C   UNL     1      -4.900   0.667   1.201  0.00  0.00    +0.015 A 
ATOM     11  C   UNL     1      -6.270   0.387   1.272  0.00  0.00    +0.011 A 
ATOM     12  C   UNL     1      -6.908   0.440   2.474  0.00  0.00    +0.001 A 
ATOM     13  C   UNL     1      -6.214   0.773   3.636  0.00  0.00    +0.002 A 
ATOM     14  C   UNL     1      -4.883   1.052   3.603  0.00  0.00    +0.028 A 
ATOM     15  C   UNL     1      -4.190   1.007   2.379  0.00  0.00    +0.072 A 
ATOM     16  N   UNL     1      -2.888   1.276   2.314  0.00  0.00    -0.251 NA
ATOM     17  C   UNL     1      -2.093   0.854  -1.325  0.00  0.00    +0.041 C 
ENDBRANCH   1   9
BRANCH   1  18
ATOM     18  O   UNL     1      -5.439   1.241  -2.039  0.00  0.00    -0.452 OA
BRANCH  18  19
ATOM     19  C   UNL     1      -6.101   0.826  -3.263  0.00  0.00    +0.328 C 
BRANCH  19  20
ATOM     20  C   UNL     1      -6.656   2.036  -3.969  0.00  0.00    +0.258 C 
ATOM     21  O   UNL     1      -6.509   3.139  -3.488  0.00  0.00    -0.272 OA
ATOM     22  N   UNL     1      -7.317   1.892  -5.135  0.00  0.00    -0.237 N 
ATOM     23  C   UNL     1      -7.814   2.974  -5.766  0.00  0.00    +0.306 C 
ATOM     24  O   UNL     1      -7.666   4.080  -5.284  0.00  0.00    -0.252 OA
ATOM     25  N   UNL     1      -8.474   2.829  -6.932  0.00  0.00    -0.296 N 
ATOM     26  H   UNL     1      -7.435   1.009  -5.519  0.00  0.00    +0.159 HD
ATOM     27  H   UNL     1      -8.592   1.947  -7.317  0.00  0.00    +0.151 HD
BRANCH  25  28
ATOM     28  C   UNL     1      -9.014   4.005  -7.619  0.00  0.00    +0.074 C 
ATOM     29  C   UNL     1     -10.435   4.313  -7.102  0.00  0.00    +0.022 C 
ATOM     30  C   UNL     1     -11.202   4.790  -8.361  0.00  0.00    +0.002 C 
ATOM     31  C   UNL     1     -10.642   3.867  -9.472  0.00  0.00    +0.002 C 
ATOM     32  C   UNL     1      -9.146   3.722  -9.125  0.00  0.00    +0.022 C 
ENDBRANCH  25  28
ENDBRANCH  19  20
ENDBRANCH  18  19
ENDBRANCH   1  18
TORSDOF 5
