REMARK  Name = ZINC37910234
REMARK  3 active torsions:
REMARK  status: ('A' for Active; 'I' for Inactive)
REMARK    1  A    between atoms: C_1  and  C_2
REMARK    2  A    between atoms: N_7  and  C_8
REMARK    3  A    between atoms: C_13  and  N_14
REMARK                            x       y       z     vdW  Elec       q    Type
REMARK                         _______ _______ _______ _____ _____    ______ ____
ROOT
ATOM      1  C   UNL     1       0.367  -0.247   2.520  0.00  0.00    +0.055 A 
ATOM      2  C   UNL     1      -0.493  -1.106   3.187  0.00  0.00    +0.074 A 
ATOM      3  C   UNL     1      -0.840  -0.856   4.507  0.00  0.00    +0.164 A 
ATOM      4  C   UNL     1      -0.325   0.256   5.162  0.00  0.00    +0.164 A 
ATOM      5  C   UNL     1       0.533   1.117   4.495  0.00  0.00    +0.074 A 
ATOM      6  C   UNL     1       0.886   0.866   3.178  0.00  0.00    +0.050 A 
ATOM      7  O   UNL     1      -0.650   0.511   6.460  0.00  0.00    -0.485 OA
ATOM      8  C   UNL     1      -1.802  -0.161   6.981  0.00  0.00    +0.270 C 
ATOM      9  C   UNL     1      -1.719  -1.639   6.574  0.00  0.00    +0.270 C 
ATOM     10  O   UNL     1      -1.689  -1.710   5.145  0.00  0.00    -0.485 OA
ENDROOT
BRANCH   1  16
ATOM     11  C   UNL     1      -0.019   1.526   0.010  0.00  0.00    +0.028 C 
ATOM     12  C   UNL     1       0.002  -0.004   0.002  0.00  0.00    +0.070 C 
ATOM     13  C   UNL     1       0.760  -0.512  -1.242  0.00  0.00    +0.023 C 
ATOM     14  C   UNL     1       2.183  -0.793  -0.692  0.00  0.00    +0.021 C 
ATOM     15  C   UNL     1       1.869  -1.310   0.734  0.00  0.00    +0.105 C 
ATOM     16  N   UNL     1       0.718  -0.501   1.186  0.00  0.00    -0.326 N 
ENDBRANCH   1  16
BRANCH   6  17
ATOM     17  N   UNL     1       1.759   1.735   2.507  0.00  0.00    -0.356 N 
ATOM     18  H   UNL     1       2.002   1.561   1.585  0.00  0.00    +0.142 HD
ATOM     19  H   UNL     1       2.120   2.510   2.966  0.00  0.00    +0.142 HD
ENDBRANCH   6  17
TORSDOF 2
