REMARK  Name = ZINC27583204
REMARK  10 active torsions:
REMARK  status: ('A' for Active; 'I' for Inactive)
REMARK    1  A    between atoms: C_1  and  C_2
REMARK    2  A    between atoms: C_4  and  C_33
REMARK    3  A    between atoms: C_6  and  C_32
REMARK    4  A    between atoms: C_7  and  C_11
REMARK    5  A    between atoms: N_13  and  C_14
REMARK    6  A    between atoms: C_14  and  C_15
REMARK    7  A    between atoms: C_15  and  C_17
REMARK    8  A    between atoms: C_15  and  N_25
REMARK    9  A    between atoms: C_20  and  O_23
REMARK   10  A    between atoms: O_23  and  C_24
REMARK                            x       y       z     vdW  Elec       q    Type
REMARK                         _______ _______ _______ _____ _____    ______ ____
ROOT
ATOM      1  C   UNL     1       6.902   1.249  -0.085  0.00  0.00    +0.094 C 
ENDROOT
BRANCH   1   4
ATOM      2  C   UNL     1       7.093   3.197   1.366  0.00  0.00    +0.280 C 
ATOM      3  O   UNL     1       6.500   3.846   0.524  0.00  0.00    -0.267 OA
ATOM      4  N   UNL     1       7.344   1.890   1.156  0.00  0.00    -0.310 N 
ATOM      5  H   UNL     1       7.880   1.303   1.917  0.00  0.00    +0.149 HD
BRANCH   2  12
ATOM      6  C   UNL     1       9.916   4.879   8.007  0.00  0.00    +0.044 C 
ATOM      7  C   UNL     1       9.223   5.033   6.678  0.00  0.00    -0.047 A 
ATOM      8  C   UNL     1       8.710   6.270   6.310  0.00  0.00    +0.007 A 
ATOM      9  C   UNL     1       8.074   6.427   5.111  0.00  0.00    -0.039 A 
ATOM     10  C   UNL     1       7.943   5.336   4.249  0.00  0.00    +0.027 A 
ATOM     11  C   UNL     1       7.340   5.146   2.930  0.00  0.00    +0.008 A 
ATOM     12  C   UNL     1       7.537   3.840   2.611  0.00  0.00    +0.193 A 
ATOM     13  O   UNL     1       8.200   3.222   3.611  0.00  0.00    -0.450 OA
ATOM     14  C   UNL     1       8.464   4.081   4.614  0.00  0.00    +0.137 A 
ATOM     15  C   UNL     1       9.108   3.946   5.839  0.00  0.00    +0.050 A 
ATOM     16  C   UNL     1       6.643   6.187   2.093  0.00  0.00    +0.048 C 
ATOM     17  C   UNL     1       7.516   7.771   4.721  0.00  0.00    +0.044 C 
ENDBRANCH   2  12
ENDBRANCH   1   4
BRANCH   1  18
ATOM     18  C   UNL     1       7.427  -0.187  -0.132  0.00  0.00    -0.020 C 
BRANCH  18  19
ATOM     19  N   UNL     1       6.907  -0.860  -1.330  0.00  0.00    +0.385 N 
ATOM     20  C   UNL     1       5.446  -0.658  -1.459  0.00  0.00    -0.078 C 
ATOM     21  C   UNL     1       4.825  -1.542  -2.506  0.00  0.00    -0.019 C 
ATOM     22  C   UNL     1       4.306  -2.823  -1.820  0.00  0.00    -0.002 C 
ATOM     23  C   UNL     1       5.379  -3.772  -1.541  0.00  0.00    -0.002 C 
ATOM     24  C   UNL     1       6.441  -3.186  -0.587  0.00  0.00    -0.019 C 
ATOM     25  C   UNL     1       7.340  -2.274  -1.376  0.00  0.00    -0.078 C 
ATOM     26  H   UNL     1       7.347  -0.389  -2.222  0.00  0.00    -0.081 HD
ENDBRANCH  18  19
BRANCH  18  27
ATOM     27  C   UNL     1       8.933  -0.171  -0.180  0.00  0.00    -0.059 A 
ATOM     28  C   UNL     1       9.583   0.065  -1.377  0.00  0.00    +0.005 A 
ATOM     29  C   UNL     1      10.964   0.086  -1.423  0.00  0.00    +0.046 A 
ATOM     30  C   UNL     1      11.698  -0.141  -0.268  0.00  0.00    +0.120 A 
ATOM     31  C   UNL     1      11.043  -0.382   0.931  0.00  0.00    +0.046 A 
ATOM     32  C   UNL     1       9.663  -0.396   0.973  0.00  0.00    +0.005 A 
BRANCH  30  33
ATOM     33  O   UNL     1      13.056  -0.126  -0.311  0.00  0.00    -0.495 OA
ATOM     34  C   UNL     1      13.662   0.129  -1.580  0.00  0.00    +0.277 C 
ENDBRANCH  30  33
ENDBRANCH  18  27
ENDBRANCH   1  18
TORSDOF 6
