REMARK  Name = ZINC08987958
REMARK  15 active torsions:
REMARK  status: ('A' for Active; 'I' for Inactive)
REMARK    1  A    between atoms: C_1  and  C_2
REMARK    2  A    between atoms: C_2  and  O_3
REMARK    3  A    between atoms: O_3  and  C_4
REMARK    4  A    between atoms: C_4  and  C_6
REMARK    5  A    between atoms: C_7  and  C_37
REMARK    6  A    between atoms: C_8  and  C_13
REMARK    7  A    between atoms: C_9  and  C_12
REMARK    8  A    between atoms: C_13  and  C_15
REMARK    9  A    between atoms: N_19  and  C_31
REMARK   10  A    between atoms: C_20  and  C_22
REMARK   11  A    between atoms: C_25  and  N_28
REMARK   12  A    between atoms: C_31  and  C_32
REMARK   13  A    between atoms: C_32  and  N_33
REMARK   14  A    between atoms: N_33  and  C_34
REMARK   15  A    between atoms: N_33  and  C_35
REMARK                            x       y       z     vdW  Elec       q    Type
REMARK                         _______ _______ _______ _____ _____    ______ ____
ROOT
ATOM      1  C   UNL     1      -7.220  -4.261   0.289  0.00  0.00    +0.076 C 
ATOM      2  C   UNL     1      -8.271  -5.103   0.417  0.00  0.00    +0.249 C 
ATOM      3  C   UNL     1      -9.498  -4.423  -0.049  0.00  0.00    +0.288 C 
ATOM      4  O   UNL     1     -10.608  -4.917  -0.058  0.00  0.00    -0.266 OA
ATOM      5  N   UNL     1      -9.204  -3.176  -0.460  0.00  0.00    -0.285 N 
ATOM      6  C   UNL     1      -7.762  -2.970  -0.278  0.00  0.00    +0.145 C 
ATOM      7  O   UNL     1      -8.209  -6.367   0.897  0.00  0.00    -0.282 OA
ENDROOT
BRANCH   6   8
ATOM      8  C   UNL     1      -7.515  -1.837   0.685  0.00  0.00    -0.022 A 
ATOM      9  C   UNL     1      -8.227  -1.768   1.868  0.00  0.00    +0.008 A 
ATOM     10  C   UNL     1      -8.000  -0.729   2.751  0.00  0.00    +0.033 A 
ATOM     11  C   UNL     1      -7.061   0.240   2.451  0.00  0.00    +0.126 A 
ATOM     12  C   UNL     1      -6.348   0.170   1.269  0.00  0.00    +0.033 A 
ATOM     13  C   UNL     1      -6.572  -0.871   0.388  0.00  0.00    +0.008 A 
BRANCH  11  14
ATOM     14  N   UNL     1      -6.819   1.353   3.397  0.00  0.00    +0.056 N 
ATOM     15  O   UNL     1      -7.442   1.414   4.431  0.00  0.00    -0.126 OA
ATOM     16  O   UNL     1      -5.998   2.201   3.135  0.00  0.00    -0.126 OA
ENDBRANCH  11  14
ENDBRANCH   6   8
BRANCH   1  17
ATOM     17  C   UNL     1      -5.824  -4.545   0.638  0.00  0.00    +0.197 C 
ATOM     18  O   UNL     1      -5.428  -4.351   1.773  0.00  0.00    -0.287 OA
BRANCH  17  21
ATOM     19  C   UNL     1      -3.076  -5.875  -1.390  0.00  0.00    +0.128 A 
ATOM     20  C   UNL     1      -3.557  -5.458  -0.183  0.00  0.00    -0.008 A 
ATOM     21  C   UNL     1      -4.899  -5.066  -0.386  0.00  0.00    +0.046 A 
ATOM     22  C   UNL     1      -5.182  -5.264  -1.726  0.00  0.00    +0.025 A 
ATOM     23  N   UNL     1      -4.081  -5.745  -2.325  0.00  0.00    -0.352 N 
ATOM     24  H   UNL     1      -4.006  -5.968  -3.266  0.00  0.00    +0.166 HD
ATOM     25  C   UNL     1      -6.501  -4.982  -2.399  0.00  0.00    +0.064 C 
ATOM     26  C   UNL     1      -2.799  -5.422   1.119  0.00  0.00    +0.047 C 
BRANCH  19  27
ATOM     27  C   UNL     1      -1.720  -6.370  -1.650  0.00  0.00    +0.356 C 
ATOM     28  O   UNL     1      -0.914  -6.440  -0.743  0.00  0.00    -0.243 OA
BRANCH  27  29
ATOM     29  O   UNL     1      -1.368  -6.747  -2.896  0.00  0.00    -0.460 OA
BRANCH  29  31
ATOM     30  C   UNL     1       0.182  -7.598  -4.544  0.00  0.00    +0.048 C 
ATOM     31  C   UNL     1      -0.031  -7.219  -3.077  0.00  0.00    +0.229 C 
ENDBRANCH  29  31
ENDBRANCH  27  29
ENDBRANCH  19  27
ENDBRANCH  17  21
ENDBRANCH   1  17
BRANCH   5  32
ATOM     32  C   UNL     1     -10.155  -2.196  -0.989  0.00  0.00    +0.090 C 
BRANCH  32  33
ATOM     33  C   UNL     1     -10.719  -1.360   0.162  0.00  0.00    -0.060 C 
BRANCH  33  34
ATOM     34  N   UNL     1     -11.673  -0.377  -0.369  0.00  0.00    +0.377 N 
ATOM     35  C   UNL     1     -12.829  -1.078  -0.943  0.00  0.00    -0.097 C 
ATOM     36  C   UNL     1     -12.123   0.504   0.717  0.00  0.00    -0.097 C 
ATOM     37  H   UNL     1     -11.224   0.174  -1.085  0.00  0.00    -0.083 HD
ENDBRANCH  33  34
ENDBRANCH  32  33
ENDBRANCH   5  32
TORSDOF 10
