REMARK  Name = ZINC63021192
REMARK  3 active torsions:
REMARK  status: ('A' for Active; 'I' for Inactive)
REMARK    1  A    between atoms: C_1  and  C_2
REMARK    2  A    between atoms: C_5  and  C_9
REMARK    3  A    between atoms: C_9  and  C_11
REMARK                            x       y       z     vdW  Elec       q    Type
REMARK                         _______ _______ _______ _____ _____    ______ ____
ROOT
ATOM      1  C   UNL     1       0.046  -5.087   1.192  0.00  0.00    +0.041 A 
ATOM      2  C   UNL     1      -0.029  -4.492   2.457  0.00  0.00    +0.019 A 
ATOM      3  C   UNL     1      -0.041  -5.270   3.574  0.00  0.00    -0.017 A 
ATOM      4  C   UNL     1       0.020  -6.659   3.485  0.00  0.00    +0.038 A 
ATOM      5  C   UNL     1       0.096  -7.258   2.226  0.00  0.00    +0.044 A 
ATOM      6  C   UNL     1       0.103  -6.482   1.089  0.00  0.00    +0.054 A 
ATOM      7 CL   UNL     1       0.190  -7.234  -0.474  0.00  0.00    -0.083 Cl
ATOM      8  N   UNL     1      -0.007  -7.223   4.755  0.00  0.00    -0.285 N 
ATOM      9  C   UNL     1      -0.084  -6.297   5.725  0.00  0.00    +0.222 C 
ATOM     10  O   UNL     1      -0.123  -6.506   6.919  0.00  0.00    -0.275 OA
ATOM     11  C   UNL     1      -0.114  -4.943   5.049  0.00  0.00    +0.133 C 
ATOM     12  H   UNL     1       0.026  -8.178   4.922  0.00  0.00    +0.155 HD
ENDROOT
BRANCH   1  13
ATOM     13  C   UNL     1       0.060  -4.252  -0.023  0.00  0.00    +0.195 C 
ATOM     14  O   UNL     1      -0.969  -3.737  -0.418  0.00  0.00    -0.287 OA
BRANCH  13  19
ATOM     15  C   UNL     1       4.977  -3.425  -2.897  0.00  0.00    +0.045 C 
ATOM     16  C   UNL     1       3.689  -3.642  -2.144  0.00  0.00    -0.032 A 
ATOM     17  C   UNL     1       2.501  -3.151  -2.656  0.00  0.00    +0.005 A 
ATOM     18  C   UNL     1       1.319  -3.346  -1.972  0.00  0.00    +0.012 A 
ATOM     19  C   UNL     1       1.323  -4.040  -0.761  0.00  0.00    +0.024 A 
ATOM     20  C   UNL     1       2.525  -4.534  -0.249  0.00  0.00    +0.032 A 
ATOM     21  C   UNL     1       3.700  -4.336  -0.946  0.00  0.00    +0.045 A 
ATOM     22 CL   UNL     1       5.195  -4.954  -0.316  0.00  0.00    -0.083 Cl
ENDBRANCH  13  19
ENDBRANCH   1  13
TORSDOF 2
