REMARK  Name = ZINC63637468
REMARK  10 active torsions:
REMARK  status: ('A' for Active; 'I' for Inactive)
REMARK    1  A    between atoms: C_1  and  C_2
REMARK    2  A    between atoms: C_3  and  C_10
REMARK    3  A    between atoms: C_4  and  C_8
REMARK    4  A    between atoms: C_4  and  C_9
REMARK    5  A    between atoms: C_11  and  C_12
REMARK    6  A    between atoms: C_12  and  C_14
REMARK    7  A    between atoms: C_12  and  C_15
REMARK    8  A    between atoms: N_16  and  N_17
REMARK    9  A    between atoms: C_18  and  C_20
REMARK   10  A    between atoms: C_22  and  C_31
REMARK                            x       y       z     vdW  Elec       q    Type
REMARK                         _______ _______ _______ _____ _____    ______ ____
ROOT
ATOM      1  N   UNL     1      -7.501   0.651  -3.316  0.00  0.00    -0.205 N 
ATOM      2  C   UNL     1      -7.862   1.675  -4.114  0.00  0.00    +0.259 C 
ATOM      3  O   UNL     1      -7.338   2.761  -3.982  0.00  0.00    -0.271 OA
ATOM      4  H   UNL     1      -7.860  -0.236  -3.473  0.00  0.00    +0.177 HD
ENDROOT
BRANCH   2   5
ATOM      5  C   UNL     1      -8.916   1.471  -5.172  0.00  0.00    +0.199 C 
ATOM      6  C   UNL     1     -10.285   1.781  -4.609  0.00  0.00    -0.000 C 
ATOM      7  C   UNL     1     -10.776   2.826  -5.373  0.00  0.00    +0.006 A 
ATOM      8  C   UNL     1     -11.994   3.549  -5.336  0.00  0.00    +0.030 A 
ATOM      9  C   UNL     1     -12.211   4.546  -6.229  0.00  0.00    +0.042 A 
ATOM     10  C   UNL     1     -11.257   4.886  -7.197  0.00  0.00    +0.022 A 
ATOM     11  C   UNL     1     -10.072   4.239  -7.292  0.00  0.00    +0.027 A 
ATOM     12  C   UNL     1      -9.769   3.182  -6.391  0.00  0.00    +0.044 A 
ATOM     13  N   UNL     1      -8.709   2.410  -6.279  0.00  0.00    -0.370 N 
ATOM     14 CL   UNL     1     -13.708   5.423  -6.171  0.00  0.00    -0.084 Cl
ATOM     15  H   UNL     1      -7.918   2.456  -6.837  0.00  0.00    +0.161 HD
BRANCH   6  16
ATOM     16  C   UNL     1     -10.953   1.115  -3.489  0.00  0.00    -0.019 A 
ATOM     17  C   UNL     1     -11.990   1.761  -2.801  0.00  0.00    +0.008 A 
ATOM     18  C   UNL     1     -12.612   1.126  -1.748  0.00  0.00    +0.001 A 
ATOM     19  C   UNL     1     -12.217  -0.146  -1.370  0.00  0.00    +0.000 A 
ATOM     20  C   UNL     1     -11.194  -0.792  -2.044  0.00  0.00    +0.001 A 
ATOM     21  C   UNL     1     -10.563  -0.175  -3.102  0.00  0.00    +0.008 A 
ENDBRANCH   6  16
ENDBRANCH   2   5
BRANCH   1  23
ATOM     22  C   UNL     1      -6.264  -0.105  -1.501  0.00  0.00    +0.110 C 
ATOM     23  N   UNL     1      -6.607   0.868  -2.260  0.00  0.00    -0.192 NA
BRANCH  22  24
ATOM     24  C   UNL     1      -5.302   0.129  -0.365  0.00  0.00    +0.051 C 
ATOM     25  C   UNL     1      -5.978  -0.236   0.958  0.00  0.00    +0.018 C 
BRANCH  24  27
ATOM     26  C   UNL     1      -2.882  -0.166  -0.674  0.00  0.00    +0.000 C 
ATOM     27  C   UNL     1      -4.079  -0.731  -0.558  0.00  0.00    -0.018 C 
BRANCH  26  30
ATOM     28  C   UNL     1      -2.456  -1.911   1.364  0.00  0.00    +0.039 C 
ATOM     29  C   UNL     1      -1.455  -1.852   0.240  0.00  0.00    -0.069 C 
ATOM     30  C   UNL     1      -1.676  -1.006  -0.742  0.00  0.00    -0.043 C 
ATOM     31  C   UNL     1      -0.770  -0.848  -1.928  0.00  0.00    -0.010 C 
ATOM     32  C   UNL     1       0.600  -1.460  -1.629  0.00  0.00    +0.011 C 
ATOM     33  C   UNL     1       0.391  -2.874  -1.073  0.00  0.00    +0.005 C 
ATOM     34  C   UNL     1      -0.260  -2.757   0.308  0.00  0.00    +0.031 C 
ATOM     35  C   UNL     1      -1.388  -1.553  -3.136  0.00  0.00    +0.016 C 
ATOM     36  C   UNL     1      -0.603   0.640  -2.243  0.00  0.00    +0.016 C 
ENDBRANCH  26  30
ENDBRANCH  24  27
ENDBRANCH  22  24
ENDBRANCH   1  23
TORSDOF 6
