REMARK  Name = ZINC62105777
REMARK  8 active torsions:
REMARK  status: ('A' for Active; 'I' for Inactive)
REMARK    1  A    between atoms: C_1  and  C_2
REMARK    2  A    between atoms: C_2  and  O_3
REMARK    3  A    between atoms: O_3  and  C_4
REMARK    4  A    between atoms: C_4  and  C_5
REMARK    5  A    between atoms: C_12  and  C_14
REMARK    6  A    between atoms: C_14  and  C_16
REMARK    7  A    between atoms: C_14  and  C_22
REMARK    8  A    between atoms: C_16  and  C_17
REMARK                            x       y       z     vdW  Elec       q    Type
REMARK                         _______ _______ _______ _____ _____    ______ ____
ROOT
ATOM      1  C   UNL     1      -6.429  -5.500  -0.694  0.00  0.00    +0.110 C 
ENDROOT
BRANCH   1   8
ATOM      2  C   UNL     1      -2.872  -2.430   0.221  0.00  0.00    +0.032 C 
ATOM      3  C   UNL     1      -3.595  -1.948   1.481  0.00  0.00    +0.009 C 
ATOM      4  C   UNL     1      -5.083  -2.289   1.378  0.00  0.00    +0.019 C 
ATOM      5  C   UNL     1      -5.250  -3.808   1.277  0.00  0.00    +0.108 C 
ATOM      6  N   UNL     1      -4.439  -4.299   0.154  0.00  0.00    -0.301 N 
ATOM      7  C   UNL     1      -3.013  -3.951   0.106  0.00  0.00    +0.113 C 
ATOM      8  C   UNL     1      -4.995  -5.053  -0.815  0.00  0.00    +0.223 C 
ATOM      9  O   UNL     1      -4.340  -5.373  -1.785  0.00  0.00    -0.275 OA
BRANCH   2  10
ATOM     10  C   UNL     1      -1.390  -2.060   0.310  0.00  0.00    +0.164 C 
BRANCH  10  11
ATOM     11  O   UNL     1      -1.253  -0.638   0.302  0.00  0.00    -0.380 OA
BRANCH  11  13
ATOM     12  C   UNL     1       0.126   1.346   0.365  0.00  0.00    +0.034 C 
ATOM     13  C   UNL     1       0.100  -0.183   0.381  0.00  0.00    +0.156 C 
ENDBRANCH  11  13
ENDBRANCH  10  11
ENDBRANCH   2  10
ENDBRANCH   1   8
BRANCH   1  14
ATOM     14  C   UNL     1      -7.321  -4.528  -1.423  0.00  0.00    -0.035 A 
ATOM     15  C   UNL     1      -7.154  -4.322  -2.780  0.00  0.00    +0.007 A 
ATOM     16  C   UNL     1      -7.971  -3.432  -3.450  0.00  0.00    +0.038 A 
ATOM     17  C   UNL     1      -8.958  -2.747  -2.762  0.00  0.00    +0.123 A 
ATOM     18  C   UNL     1      -9.125  -2.954  -1.403  0.00  0.00    +0.038 A 
ATOM     19  C   UNL     1      -8.309  -3.849  -0.736  0.00  0.00    +0.007 A 
ATOM     20  F   UNL     1      -9.758  -1.876  -3.416  0.00  0.00    -0.205 F 
ENDBRANCH   1  14
BRANCH   1  21
ATOM     21  C   UNL     1      -6.583  -6.893  -1.307  0.00  0.00    +0.060 C 
BRANCH  21  22
ATOM     22  C   UNL     1      -5.802  -7.890  -0.491  0.00  0.00    -0.009 A 
ATOM     23  C   UNL     1      -6.178  -8.562   0.625  0.00  0.00    +0.011 A 
ATOM     24  C   UNL     1      -5.286  -9.439   1.213  0.00  0.00    +0.008 A 
ATOM     25  C   UNL     1      -4.061  -9.601   0.656  0.00  0.00    +0.045 A 
ATOM     26  S   UNL     1      -4.144  -8.500  -0.747  0.00  0.00    -0.102 S 
ENDBRANCH  21  22
ENDBRANCH   1  21
TORSDOF 7
