REMARK  Name = ZINC56819040
REMARK  9 active torsions:
REMARK  status: ('A' for Active; 'I' for Inactive)
REMARK    1  A    between atoms: C_1  and  C_2
REMARK    2  A    between atoms: C_5  and  C_8
REMARK    3  A    between atoms: C_8  and  N_9
REMARK    4  A    between atoms: N_12  and  C_13
REMARK    5  A    between atoms: C_13  and  C_14
REMARK    6  A    between atoms: C_14  and  C_16
REMARK    7  A    between atoms: C_14  and  O_24
REMARK    8  A    between atoms: C_19  and  O_22
REMARK    9  A    between atoms: O_22  and  C_23
REMARK                            x       y       z     vdW  Elec       q    Type
REMARK                         _______ _______ _______ _____ _____    ______ ____
ROOT
ATOM      1  N   UNL     1      -0.050  -4.587   2.479  0.00  0.00    -0.299 N 
ATOM      2  C   UNL     1       0.075  -5.912   2.694  0.00  0.00    +0.300 C 
ATOM      3  O   UNL     1      -0.313  -6.703   1.856  0.00  0.00    -0.253 OA
ATOM      4  N   UNL     1       0.629  -6.360   3.838  0.00  0.00    -0.297 N 
ATOM      5  H   UNL     1       0.260  -3.956   3.148  0.00  0.00    +0.150 HD
ATOM      6  H   UNL     1       0.938  -5.729   4.507  0.00  0.00    +0.150 HD
ENDROOT
BRANCH   1   7
ATOM      7  C   UNL     1      -0.652  -4.100   1.236  0.00  0.00    +0.109 C 
BRANCH   7  12
ATOM      8  C   UNL     1      -0.019   1.526   0.010  0.00  0.00    +0.007 C 
ATOM      9  C   UNL     1       0.002  -0.004   0.002  0.00  0.00    -0.014 C 
ATOM     10  C   UNL     1      -1.433  -0.534   0.013  0.00  0.00    +0.003 C 
ATOM     11  C   UNL     1      -1.413  -2.063   0.004  0.00  0.00    +0.005 C 
ATOM     12  C   UNL     1      -0.673  -2.570   1.244  0.00  0.00    +0.006 C 
ATOM     13  C   UNL     1       0.763  -2.041   1.233  0.00  0.00    +0.005 C 
ATOM     14  C   UNL     1       0.742  -0.511   1.242  0.00  0.00    +0.003 C 
ENDBRANCH   7  12
ENDBRANCH   1   7
BRANCH   4  15
ATOM     15  C   UNL     1       0.764  -7.800   4.072  0.00  0.00    +0.141 C 
BRANCH  15  16
ATOM     16  C   UNL     1       1.419  -8.036   5.434  0.00  0.00    +0.162 C 
BRANCH  16  17
ATOM     17  C   UNL     1       1.557  -9.518   5.674  0.00  0.00    -0.017 A 
ATOM     18  C   UNL     1       2.656 -10.197   5.182  0.00  0.00    +0.010 A 
ATOM     19  C   UNL     1       2.786 -11.555   5.400  0.00  0.00    +0.046 A 
ATOM     20  C   UNL     1       1.812 -12.237   6.115  0.00  0.00    +0.120 A 
ATOM     21  C   UNL     1       0.710 -11.553   6.609  0.00  0.00    +0.046 A 
ATOM     22  C   UNL     1       0.588 -10.194   6.392  0.00  0.00    +0.010 A 
BRANCH  20  23
ATOM     23  O   UNL     1       1.937 -13.573   6.331  0.00  0.00    -0.495 OA
ATOM     24  C   UNL     1       0.896 -14.210   7.075  0.00  0.00    +0.277 C 
ENDBRANCH  20  23
ENDBRANCH  16  17
BRANCH  16  25
ATOM     25  O   UNL     1       2.711  -7.428   5.453  0.00  0.00    -0.386 OA
ATOM     26  H   UNL     1       3.317  -7.770   4.782  0.00  0.00    +0.210 HD
ENDBRANCH  16  25
ENDBRANCH  15  16
ENDBRANCH   4  15
TORSDOF 7
