REMARK  Name = ZINC09830793
REMARK  9 active torsions:
REMARK  status: ('A' for Active; 'I' for Inactive)
REMARK    1  A    between atoms: C_1  and  C_2
REMARK    2  A    between atoms: C_5  and  N_9
REMARK    3  A    between atoms: C_6  and  C_8
REMARK    4  A    between atoms: C_10  and  C_12
REMARK    5  A    between atoms: C_12  and  N_13
REMARK    6  A    between atoms: C_17  and  S_23
REMARK    7  A    between atoms: S_23  and  N_26
REMARK    8  A    between atoms: C_28  and  C_35
REMARK    9  A    between atoms: C_31  and  C_34
REMARK                            x       y       z     vdW  Elec       q    Type
REMARK                         _______ _______ _______ _____ _____    ______ ____
ROOT
ATOM      1  N   UNL     1       0.992   3.551   0.024  0.00  0.00    -0.265 N 
ATOM      2  C   UNL     1       0.831   4.369  -1.093  0.00  0.00    +0.091 A 
ATOM      3  C   UNL     1       0.880   4.136  -2.459  0.00  0.00    +0.031 A 
ATOM      4  C   UNL     1       0.674   5.178  -3.342  0.00  0.00    +0.031 A 
ATOM      5  C   UNL     1       0.419   6.453  -2.867  0.00  0.00    +0.109 A 
ATOM      6  C   UNL     1       0.360   6.691  -1.507  0.00  0.00    +0.077 A 
ATOM      7  C   UNL     1       0.570   5.652  -0.614  0.00  0.00    +0.159 A 
ATOM      8  O   UNL     1       0.588   5.587   0.740  0.00  0.00    -0.407 OA
ATOM      9  C   UNL     1       0.841   4.324   1.118  0.00  0.00    +0.422 A 
ATOM     10  O   UNL     1       0.922   3.938   2.268  0.00  0.00    -0.223 OA
ENDROOT
BRANCH   5  11
ATOM     11  S   UNL     1       0.157   7.775  -4.001  0.00  0.00    +0.061 S 
ATOM     12  O   UNL     1       0.479   8.974  -3.309  0.00  0.00    -0.153 OA
ATOM     13  O   UNL     1       0.796   7.402  -5.215  0.00  0.00    -0.153 OA
BRANCH  11  14
ATOM     14  N   UNL     1      -1.467   7.833  -4.319  0.00  0.00    -0.176 NA
ATOM     15  C   UNL     1      -2.039   7.067  -5.434  0.00  0.00    +0.112 C 
ATOM     16  C   UNL     1      -3.188   6.201  -4.893  0.00  0.00    +0.002 C 
ATOM     17  C   UNL     1      -4.193   7.096  -4.164  0.00  0.00    +0.009 C 
ATOM     18  C   UNL     1      -3.506   7.779  -2.980  0.00  0.00    +0.002 C 
ATOM     19  C   UNL     1      -2.362   8.658  -3.495  0.00  0.00    +0.112 C 
ATOM     20  C   UNL     1      -2.946   6.716  -2.032  0.00  0.00    +0.009 C 
ATOM     21  C   UNL     1      -3.884   5.494  -6.058  0.00  0.00    +0.009 C 
ENDBRANCH  11  14
ENDBRANCH   5  11
BRANCH   1  22
ATOM     22  C   UNL     1       1.279   2.114   0.012  0.00  0.00    +0.224 C 
BRANCH  22  24
ATOM     23  N   UNL     1       0.002  -0.004   0.002  0.00  0.00    -0.284 N 
ATOM     24  C   UNL     1      -0.016   1.343   0.012  0.00  0.00    +0.237 C 
ATOM     25  O   UNL     1      -1.074   1.936   0.016  0.00  0.00    -0.274 OA
ATOM     26  H   UNL     1       0.845  -0.477  -0.084  0.00  0.00    +0.155 HD
BRANCH  23  31
ATOM     27  C   UNL     1      -4.849  -2.909   0.461  0.00  0.00    +0.044 C 
ATOM     28  C   UNL     1      -3.560  -2.138   0.339  0.00  0.00    -0.050 A 
ATOM     29  C   UNL     1      -3.475  -0.853   0.845  0.00  0.00    +0.005 A 
ATOM     30  C   UNL     1      -2.295  -0.143   0.735  0.00  0.00    +0.024 A 
ATOM     31  C   UNL     1      -1.194  -0.721   0.115  0.00  0.00    +0.036 A 
ATOM     32  C   UNL     1      -1.286  -2.008  -0.397  0.00  0.00    -0.029 A 
ATOM     33  C   UNL     1      -2.466  -2.715  -0.278  0.00  0.00    +0.008 A 
ATOM     34  C   UNL     1      -0.095  -2.636  -1.075  0.00  0.00    +0.045 C 
ENDBRANCH  23  31
ENDBRANCH  22  24
ENDBRANCH   1  22
TORSDOF 5
