REMARK  Name = ZINC39533585
REMARK  15 active torsions:
REMARK  status: ('A' for Active; 'I' for Inactive)
REMARK    1  A    between atoms: C_1  and  C_2
REMARK    2  A    between atoms: C_2  and  C_3
REMARK    3  A    between atoms: C_2  and  C_4
REMARK    4  A    between atoms: C_4  and  C_5
REMARK    5  A    between atoms: C_8  and  C_11
REMARK    6  A    between atoms: C_11  and  C_13
REMARK    7  A    between atoms: C_11  and  N_21
REMARK    8  A    between atoms: C_13  and  N_14
REMARK    9  A    between atoms: N_14  and  S_15
REMARK   10  A    between atoms: S_15  and  C_18
REMARK   11  A    between atoms: C_18  and  C_19
REMARK   12  A    between atoms: C_18  and  C_20
REMARK   13  A    between atoms: C_25  and  S_28
REMARK   14  A    between atoms: S_28  and  O_31
REMARK   15  A    between atoms: O_31  and  C_32
REMARK                            x       y       z     vdW  Elec       q    Type
REMARK                         _______ _______ _______ _____ _____    ______ ____
ROOT
ATOM      1  C   UNL     1      -1.286  -6.180  -0.406  0.00  0.00    +0.102 C 
ENDROOT
BRANCH   1   2
ATOM      2  N   UNL     1      -2.025  -6.690   0.756  0.00  0.00    -0.296 NA
ATOM      3  C   UNL     1      -1.940  -8.156   0.833  0.00  0.00    +0.066 C 
ATOM      4  C   UNL     1      -2.670  -8.641   2.087  0.00  0.00    -0.064 C 
ATOM      5  N   UNL     1      -4.075  -8.216   2.031  0.00  0.00    +0.398 N 
ATOM      6  C   UNL     1      -4.144  -6.750   1.979  0.00  0.00    +0.130 C 
ATOM      7  C   UNL     1      -3.426  -6.249   0.724  0.00  0.00    +0.095 C 
ATOM      8  H   UNL     1      -4.510  -8.602   1.206  0.00  0.00    -0.083 HD
ATOM      9  H   UNL     1      -4.560  -8.547   2.852  0.00  0.00    -0.083 HD
BRANCH   6  10
ATOM     10  S   UNL     1      -5.880  -6.227   1.932  0.00  0.00    +0.109 S 
ATOM     11  O   UNL     1      -5.970  -4.815   2.062  0.00  0.00    -0.138 OA
ATOM     12  O   UNL     1      -6.567  -6.904   0.887  0.00  0.00    -0.138 OA
BRANCH  10  13
ATOM     13  O   UNL     1      -6.489  -6.775   3.215  0.00  0.00    -0.347 OA
BRANCH  13  14
ATOM     14  C   UNL     1      -6.136  -6.086   4.332  0.00  0.00    +0.156 A 
ATOM     15  C   UNL     1      -5.003  -6.450   5.043  0.00  0.00    +0.048 A 
ATOM     16  C   UNL     1      -4.646  -5.748   6.178  0.00  0.00    +0.004 A 
ATOM     17  C   UNL     1      -5.418  -4.684   6.606  0.00  0.00    +0.000 A 
ATOM     18  C   UNL     1      -6.549  -4.319   5.898  0.00  0.00    +0.004 A 
ATOM     19  C   UNL     1      -6.907  -5.014   4.759  0.00  0.00    +0.048 A 
ENDBRANCH  13  14
ENDBRANCH  10  13
ENDBRANCH   6  10
ENDBRANCH   1   2
BRANCH   1  23
ATOM     20  C   UNL     1      -1.417  -1.911  -0.415  0.00  0.00    -0.047 A 
ATOM     21  C   UNL     1      -1.540  -2.608  -1.602  0.00  0.00    +0.004 A 
ATOM     22  C   UNL     1      -1.498  -3.990  -1.599  0.00  0.00    +0.005 A 
ATOM     23  C   UNL     1      -1.331  -4.674  -0.410  0.00  0.00    -0.029 A 
ATOM     24  C   UNL     1      -1.206  -3.977   0.777  0.00  0.00    +0.005 A 
ATOM     25  C   UNL     1      -1.245  -2.595   0.774  0.00  0.00    +0.004 A 
BRANCH  20  26
ATOM     26  C   UNL     1      -1.463  -0.405  -0.418  0.00  0.00    +0.038 C 
BRANCH  26  28
ATOM     27  C   UNL     1      -0.110   1.673  -0.729  0.00  0.00    +0.007 C 
ATOM     28  C   UNL     1      -0.049   0.149  -0.601  0.00  0.00    -0.013 C 
ATOM     29  C   UNL     1       0.807  -0.227   0.611  0.00  0.00    +0.007 C 
ENDBRANCH  26  28
ENDBRANCH  20  26
ENDBRANCH   1  23
BRANCH   1  30
ATOM     30  C   UNL     1       0.170  -6.646  -0.330  0.00  0.00    +0.129 C 
BRANCH  30  31
ATOM     31  N   UNL     1       0.888  -6.204  -1.528  0.00  0.00    -0.192 NA
ATOM     32  H   UNL     1       0.393  -5.913  -2.310  0.00  0.00    +0.148 HD
BRANCH  31  33
ATOM     33  S   UNL     1       2.544  -6.200  -1.547  0.00  0.00    +0.032 S 
ATOM     34  O   UNL     1       2.890  -5.699  -2.831  0.00  0.00    -0.158 OA
ATOM     35  O   UNL     1       2.918  -5.499  -0.370  0.00  0.00    -0.158 OA
BRANCH  33  36
ATOM     36  C   UNL     1       3.015  -7.947  -1.410  0.00  0.00    +0.142 C 
ATOM     37  C   UNL     1       2.437  -8.725  -2.594  0.00  0.00    +0.033 C 
ATOM     38  C   UNL     1       4.540  -8.066  -1.418  0.00  0.00    +0.033 C 
ENDBRANCH  33  36
ENDBRANCH  31  33
ENDBRANCH  30  31
ENDBRANCH   1  30
TORSDOF 11
