REMARK  Name = ZINC22568377
REMARK  13 active torsions:
REMARK  status: ('A' for Active; 'I' for Inactive)
REMARK    1  A    between atoms: C_1  and  C_2
REMARK    2  A    between atoms: C_2  and  C_4
REMARK    3  A    between atoms: C_2  and  S_14
REMARK    4  A    between atoms: N_6  and  C_7
REMARK    5  A    between atoms: C_7  and  C_8
REMARK    6  A    between atoms: C_7  and  C_9
REMARK    7  A    between atoms: C_7  and  C_11
REMARK    8  A    between atoms: C_11  and  C_12
REMARK    9  A    between atoms: C_11  and  C_13
REMARK   10  A    between atoms: S_14  and  C_15
REMARK   11  A    between atoms: C_18  and  C_26
REMARK   12  A    between atoms: N_19  and  C_20
REMARK   13  A    between atoms: C_26  and  N_27
REMARK                            x       y       z     vdW  Elec       q    Type
REMARK                         _______ _______ _______ _____ _____    ______ ____
ROOT
ATOM      1  C   UNL     1      -0.136  -0.087   2.816  0.00  0.00    +0.197 A 
ATOM      2  N   UNL     1      -1.266   0.575   2.730  0.00  0.00    -0.122 NA
ATOM      3  N   UNL     1      -1.739   0.787   3.906  0.00  0.00    -0.135 NA
ATOM      4  C   UNL     1      -0.947   0.278   4.807  0.00  0.00    +0.122 A 
ATOM      5  N   UNL     1       0.102  -0.304   4.145  0.00  0.00    -0.276 N 
ENDROOT
BRANCH   5   6
ATOM      6  C   UNL     1       1.193  -0.978   4.713  0.00  0.00    +0.050 A 
ATOM      7  C   UNL     1       0.995  -2.169   5.397  0.00  0.00    +0.026 A 
ATOM      8  C   UNL     1       2.071  -2.831   5.955  0.00  0.00    +0.002 A 
ATOM      9  C   UNL     1       3.345  -2.309   5.831  0.00  0.00    +0.000 A 
ATOM     10  C   UNL     1       3.546  -1.123   5.149  0.00  0.00    +0.002 A 
ATOM     11  C   UNL     1       2.474  -0.459   4.585  0.00  0.00    +0.026 A 
ENDBRANCH   5   6
BRANCH   1  12
ATOM     12  S   UNL     1       0.879  -0.605   1.472  0.00  0.00    -0.073 S 
BRANCH  12  14
ATOM     13  C   UNL     1      -0.019   1.526   0.010  0.00  0.00    +0.029 C 
ATOM     14  C   UNL     1       0.002  -0.004   0.002  0.00  0.00    +0.137 C 
BRANCH  14  15
ATOM     15  C   UNL     1       0.707  -0.490  -1.238  0.00  0.00    +0.227 C 
ATOM     16  O   UNL     1       1.864  -0.849  -1.176  0.00  0.00    -0.275 OA
ATOM     17  N   UNL     1       0.053  -0.526  -2.415  0.00  0.00    -0.296 N 
ATOM     18  H   UNL     1      -0.873  -0.239  -2.465  0.00  0.00    +0.150 HD
BRANCH  17  19
ATOM     19  C   UNL     1       0.738  -0.999  -3.621  0.00  0.00    +0.121 C 
ATOM     20  C   UNL     1       1.202  -2.442  -3.411  0.00  0.00    +0.048 C 
BRANCH  19  21
ATOM     21  C   UNL     1      -0.222  -0.939  -4.810  0.00  0.00    +0.020 C 
ATOM     22  C   UNL     1       0.528  -1.313  -6.090  0.00  0.00    +0.010 C 
ATOM     23  C   UNL     1      -1.372  -1.923  -4.587  0.00  0.00    +0.010 C 
ENDBRANCH  19  21
BRANCH  19  24
ATOM     24  C   UNL     1       1.905  -0.142  -3.889  0.00  0.00    +0.088 C 
ATOM     25  N   UNL     1       2.806   0.518  -4.096  0.00  0.00    -0.194 NA
ENDBRANCH  19  24
ENDBRANCH  17  19
ENDBRANCH  14  15
ENDBRANCH  12  14
ENDBRANCH   1  12
BRANCH   4  26
ATOM     26  C   UNL     1      -1.150   0.316   6.300  0.00  0.00    -0.001 C 
BRANCH  26  27
ATOM     27  N   UNL     1      -1.912  -0.868   6.721  0.00  0.00    +0.384 N 
ATOM     28  C   UNL     1      -3.257  -0.815   6.136  0.00  0.00    -0.078 C 
ATOM     29  C   UNL     1      -4.027  -2.085   6.505  0.00  0.00    -0.019 C 
ATOM     30  C   UNL     1      -4.136  -2.185   8.029  0.00  0.00    -0.004 C 
ATOM     31  C   UNL     1      -2.729  -2.164   8.633  0.00  0.00    -0.019 C 
ATOM     32  C   UNL     1      -2.006  -0.891   8.185  0.00  0.00    -0.078 C 
ATOM     33  H   UNL     1      -1.441  -1.701   6.402  0.00  0.00    -0.081 HD
ENDBRANCH  26  27
ENDBRANCH   4  26
TORSDOF 9
