REMARK  Name = ZINC65200618
REMARK  6 active torsions:
REMARK  status: ('A' for Active; 'I' for Inactive)
REMARK    1  A    between atoms: C_3  and  C_8
REMARK    2  A    between atoms: C_8  and  C_12
REMARK    3  A    between atoms: N_14  and  N_15
REMARK    4  A    between atoms: N_18  and  C_19
REMARK    5  A    between atoms: C_19  and  C_20
REMARK    6  A    between atoms: C_20  and  C_21
REMARK                            x       y       z     vdW  Elec       q    Type
REMARK                         _______ _______ _______ _____ _____    ______ ____
ROOT
ATOM      1  C   UNL     1       3.742   3.196  -1.137  0.00  0.00    +0.240 C 
ATOM      2  O   UNL     1       4.671   3.174  -1.917  0.00  0.00    -0.273 OA
ATOM      3  N   UNL     1       2.777   4.127  -1.265  0.00  0.00    -0.232 N 
ATOM      4  H   UNL     1       2.076   4.194  -0.598  0.00  0.00    +0.173 HD
ENDROOT
BRANCH   3   5
ATOM      5  N   UNL     1       2.786   5.000  -2.362  0.00  0.00    -0.218 N 
ATOM      6  C   UNL     1       1.820   5.931  -2.490  0.00  0.00    +0.316 C 
ATOM      7  O   UNL     1       1.828   6.688  -3.442  0.00  0.00    -0.251 OA
ATOM      8  N   UNL     1       0.846   6.024  -1.563  0.00  0.00    -0.298 N 
ATOM      9  H   UNL     1       3.487   4.933  -3.029  0.00  0.00    +0.174 HD
ATOM     10  H   UNL     1       0.840   5.420  -0.804  0.00  0.00    +0.150 HD
BRANCH   8  11
ATOM     11  C   UNL     1      -0.203   7.036  -1.702  0.00  0.00    +0.111 C 
BRANCH  11  12
ATOM     12  C   UNL     1      -1.176   6.927  -0.527  0.00  0.00    +0.061 C 
BRANCH  12  13
ATOM     13  C   UNL     1      -2.256   7.969  -0.670  0.00  0.00    -0.009 A 
ATOM     14  C   UNL     1      -3.455   7.875  -1.294  0.00  0.00    +0.011 A 
ATOM     15  C   UNL     1      -4.297   8.972  -1.298  0.00  0.00    +0.008 A 
ATOM     16  C   UNL     1      -3.897  10.109  -0.679  0.00  0.00    +0.045 A 
ATOM     17  S   UNL     1      -2.290   9.645  -0.055  0.00  0.00    -0.102 S 
ENDBRANCH  12  13
ENDBRANCH  11  12
ENDBRANCH   8  11
ENDBRANCH   3   5
BRANCH   1  18
ATOM     18  C   UNL     1       3.668   2.182  -0.025  0.00  0.00    +0.073 C 
ATOM     19  C   UNL     1       3.826   2.791   1.378  0.00  0.00    +0.021 C 
ATOM     20  C   UNL     1       5.340   2.579   1.214  0.00  0.00    +0.003 C 
ATOM     21  C   UNL     1       4.996   1.449   0.230  0.00  0.00    +0.021 C 
BRANCH  18  24
ATOM     22  C   UNL     1       0.287   0.597   0.534  0.00  0.00    +0.003 A 
ATOM     23  C   UNL     1       1.374   1.444   0.650  0.00  0.00    +0.005 A 
ATOM     24  C   UNL     1       2.484   1.259  -0.153  0.00  0.00    -0.030 A 
ATOM     25  C   UNL     1       2.508   0.227  -1.073  0.00  0.00    +0.043 A 
ATOM     26  C   UNL     1       1.420  -0.621  -1.190  0.00  0.00    +0.124 A 
ATOM     27  C   UNL     1       0.309  -0.434  -0.385  0.00  0.00    +0.038 A 
ATOM     28  F   UNL     1       1.442  -1.629  -2.089  0.00  0.00    -0.205 F 
ENDBRANCH  18  24
ENDBRANCH   1  18
TORSDOF 6
