REMARK  Name = ZINC19600674
REMARK  9 active torsions:
REMARK  status: ('A' for Active; 'I' for Inactive)
REMARK    1  A    between atoms: C_1  and  C_2
REMARK    2  A    between atoms: C_4  and  C_15
REMARK    3  A    between atoms: C_6  and  S_9
REMARK    4  A    between atoms: C_7  and  C_8
REMARK    5  A    between atoms: S_9  and  N_12
REMARK    6  A    between atoms: N_12  and  C_13
REMARK    7  A    between atoms: N_12  and  C_14
REMARK    8  A    between atoms: N_17  and  N_18
REMARK    9  A    between atoms: C_19  and  C_21
REMARK                            x       y       z     vdW  Elec       q    Type
REMARK                         _______ _______ _______ _____ _____    ______ ____
ROOT
ATOM      1  C   UNL     1       1.123   3.694   0.327  0.00  0.00    +0.260 C 
ATOM      2  O   UNL     1       0.056   4.258   0.474  0.00  0.00    -0.269 OA
ATOM      3  N   UNL     1       2.267   4.408   0.317  0.00  0.00    -0.230 N 
ATOM      4  H   UNL     1       3.232   3.898   0.184  0.00  0.00    +0.173 HD
ENDROOT
BRANCH   1   8
ATOM      5  C   UNL     1       3.744  -0.499  -0.342  0.00  0.00    +0.044 C 
ATOM      6  C   UNL     1       2.424   0.205  -0.161  0.00  0.00    -0.045 A 
ATOM      7  C   UNL     1       2.390   1.575  -0.006  0.00  0.00    +0.016 A 
ATOM      8  C   UNL     1       1.167   2.226   0.161  0.00  0.00    +0.040 A 
ATOM      9  C   UNL     1      -0.016   1.484   0.172  0.00  0.00    +0.042 A 
ATOM     10  C   UNL     1       0.032   0.114   0.017  0.00  0.00    +0.109 A 
ATOM     11  C   UNL     1       1.248  -0.525  -0.149  0.00  0.00    -0.021 A 
ATOM     12  C   UNL     1       1.293  -2.022  -0.318  0.00  0.00    +0.046 C 
BRANCH  10  13
ATOM     13  S   UNL     1      -1.459  -0.825   0.030  0.00  0.00    +0.061 S 
ATOM     14  O   UNL     1      -1.250  -1.906   0.927  0.00  0.00    -0.153 OA
ATOM     15  O   UNL     1      -2.522   0.104   0.191  0.00  0.00    -0.153 OA
BRANCH  13  16
ATOM     16  N   UNL     1      -1.634  -1.487  -1.478  0.00  0.00    -0.183 NA
ATOM     17  C   UNL     1      -1.231  -2.874  -1.720  0.00  0.00    +0.131 C 
ATOM     18  C   UNL     1      -2.191  -0.685  -2.570  0.00  0.00    +0.131 C 
ENDBRANCH  13  16
ENDBRANCH  10  13
ENDBRANCH   1   8
BRANCH   3  19
ATOM     19  N   UNL     1       2.225   5.799   0.474  0.00  0.00    -0.230 N 
ATOM     20  C   UNL     1       3.369   6.513   0.463  0.00  0.00    +0.267 C 
ATOM     21  O   UNL     1       4.437   5.949   0.316  0.00  0.00    -0.268 OA
ATOM     22  H   UNL     1       1.260   6.309   0.607  0.00  0.00    +0.173 HD
BRANCH  20  23
ATOM     23  C   UNL     1       3.325   7.969   0.628  0.00  0.00    +0.076 A 
ATOM     24  C   UNL     1       4.369   8.877   0.646  0.00  0.00    +0.024 A 
ATOM     25  C   UNL     1       4.063  10.222   0.812  0.00  0.00    -0.036 A 
ATOM     26  C   UNL     1       2.756  10.530   0.972  0.00  0.00    -0.006 A 
ATOM     27  S   UNL     1       1.911   9.037   0.850  0.00  0.00    -0.088 S 
ATOM     28  C   UNL     1       2.176  11.904   1.220  0.00  0.00    +0.043 C 
ATOM     29  C   UNL     1       2.377  12.722  -0.067  0.00  0.00    +0.005 C 
ATOM     30  C   UNL     1       3.799  13.223  -0.152  0.00  0.00    +0.001 C 
ATOM     31  C   UNL     1       4.857  12.191  -0.447  0.00  0.00    +0.005 C 
ATOM     32  C   UNL     1       5.148  11.305   0.765  0.00  0.00    +0.036 C 
ENDBRANCH  20  23
ENDBRANCH   3  19
TORSDOF 5
