REMARK  Name = ZINC11854891
REMARK  7 active torsions:
REMARK  status: ('A' for Active; 'I' for Inactive)
REMARK    1  A    between atoms: C_1  and  C_2
REMARK    2  A    between atoms: C_4  and  C_31
REMARK    3  A    between atoms: C_6  and  C_8
REMARK    4  A    between atoms: N_10  and  C_11
REMARK    5  A    between atoms: C_13  and  C_26
REMARK    6  A    between atoms: C_21  and  C_25
REMARK    7  A    between atoms: C_22  and  C_24
REMARK                            x       y       z     vdW  Elec       q    Type
REMARK                         _______ _______ _______ _____ _____    ______ ____
ROOT
ATOM      1  C   UNL     1      -2.540   5.285   0.060  0.00  0.00    +0.132 A 
ATOM      2  C   UNL     1      -3.871   5.548   0.068  0.00  0.00    +0.074 A 
ATOM      3  C   UNL     1      -4.555   4.314   0.069  0.00  0.00    +0.102 A 
ATOM      4  N   UNL     1      -3.659   3.347   0.055  0.00  0.00    -0.162 NA
ATOM      5  N   UNL     1      -2.385   3.928   0.046  0.00  0.00    -0.185 N 
ATOM      6  C   UNL     1      -1.183   3.248   0.030  0.00  0.00    +0.234 A 
ATOM      7  N   UNL     1      -1.185   1.888   0.018  0.00  0.00    -0.291 N 
ATOM      8  H   UNL     1      -2.025   1.403   0.019  0.00  0.00    +0.172 HD
ATOM      9  C   UNL     1      -0.015   1.216   0.009  0.00  0.00    +0.256 A 
ATOM     10  O   UNL     1       0.002  -0.004   0.002  0.00  0.00    -0.267 OA
ATOM     11  C   UNL     1       1.187   1.950   0.001  0.00  0.00    +0.035 A 
ATOM     12  C   UNL     1       1.125   3.312   0.009  0.00  0.00    +0.050 A 
ATOM     13  N   UNL     1      -0.056   3.928   0.023  0.00  0.00    -0.217 NA
ATOM     14  C   UNL     1       2.395   4.123   0.001  0.00  0.00    +0.066 C 
ATOM     15  C   UNL     1       2.517   1.243  -0.016  0.00  0.00    +0.051 C 
ENDROOT
BRANCH   3  16
ATOM     16  C   UNL     1      -6.022   4.136   0.082  0.00  0.00    +0.039 A 
ATOM     17  C   UNL     1      -6.751   2.976   0.083  0.00  0.00    +0.018 A 
ATOM     18  C   UNL     1      -8.126   3.058   0.098  0.00  0.00    +0.008 A 
ATOM     19  C   UNL     1      -8.716   4.281   0.111  0.00  0.00    +0.046 A 
ATOM     20  S   UNL     1      -7.306   5.377   0.110  0.00  0.00    -0.095 S 
ENDBRANCH   3  16
BRANCH   1  23
ATOM     21  C   UNL     1      -1.812   7.544   0.077  0.00  0.00    +0.249 C 
ATOM     22  O   UNL     1      -2.972   7.906   0.088  0.00  0.00    -0.270 OA
ATOM     23  N   UNL     1      -1.516   6.229   0.062  0.00  0.00    -0.266 N 
ATOM     24  H   UNL     1      -0.590   5.940   0.052  0.00  0.00    +0.157 HD
BRANCH  21  30
ATOM     25  C   UNL     1       3.058   8.630   0.051  0.00  0.00    +0.044 C 
ATOM     26  C   UNL     1       1.618   9.074   0.067  0.00  0.00    -0.049 A 
ATOM     27  C   UNL     1       1.311  10.423   0.083  0.00  0.00    +0.006 A 
ATOM     28  C   UNL     1      -0.009  10.838   0.096  0.00  0.00    -0.049 A 
ATOM     29  C   UNL     1      -1.028   9.908   0.094  0.00  0.00    +0.016 A 
ATOM     30  C   UNL     1      -0.725   8.546   0.079  0.00  0.00    +0.038 A 
ATOM     31  C   UNL     1       0.609   8.133   0.071  0.00  0.00    +0.016 A 
ATOM     32  C   UNL     1      -0.333  12.310   0.113  0.00  0.00    +0.044 C 
ENDBRANCH  21  30
ENDBRANCH   1  23
TORSDOF 3
