REMARK  Name = ZINC63819052
REMARK  9 active torsions:
REMARK  status: ('A' for Active; 'I' for Inactive)
REMARK    1  A    between atoms: C_1  and  C_2
REMARK    2  A    between atoms: N_8  and  S_9
REMARK    3  A    between atoms: S_9  and  C_12
REMARK    4  A    between atoms: C_14  and  C_20
REMARK    5  A    between atoms: C_17  and  O_18
REMARK    6  A    between atoms: O_18  and  C_19
REMARK    7  A    between atoms: N_22  and  C_23
REMARK    8  A    between atoms: C_23  and  C_24
REMARK    9  A    between atoms: C_24  and  C_25
REMARK                            x       y       z     vdW  Elec       q    Type
REMARK                         _______ _______ _______ _____ _____    ______ ____
ROOT
ATOM      1  C   UNL     1       0.121   0.792   3.655  0.00  0.00    +0.148 A 
ATOM      2  C   UNL     1       0.457   0.462   4.949  0.00  0.00    +0.045 A 
ATOM      3  C   UNL     1      -0.469   0.649   5.979  0.00  0.00    +0.039 A 
ATOM      4  C   UNL     1      -1.732   1.171   5.691  0.00  0.00    +0.017 A 
ATOM      5  C   UNL     1      -2.061   1.499   4.395  0.00  0.00    +0.048 A 
ATOM      6  C   UNL     1      -1.135   1.316   3.374  0.00  0.00    +0.146 A 
ENDROOT
BRANCH   3   7
ATOM      7  C   UNL     1      -0.112   0.297   7.367  0.00  0.00    +0.244 C 
ATOM      8  O   UNL     1       0.988  -0.158   7.616  0.00  0.00    -0.270 OA
ATOM      9  N   UNL     1      -1.007   0.478   8.359  0.00  0.00    -0.311 N 
ATOM     10  H   UNL     1      -1.884   0.841   8.161  0.00  0.00    +0.149 HD
BRANCH   9  11
ATOM     11  C   UNL     1      -0.653   0.128   9.737  0.00  0.00    +0.109 C 
BRANCH  11  12
ATOM     12  C   UNL     1      -1.836   0.429  10.659  0.00  0.00    +0.052 C 
BRANCH  12  13
ATOM     13  C   UNL     1      -1.473   0.069  12.077  0.00  0.00    -0.040 C 
ATOM     14  C   UNL     1      -0.991   0.900  13.029  0.00  0.00    -0.001 A 
ATOM     15  C   UNL     1      -0.672   2.333  13.030  0.00  0.00    +0.010 A 
ATOM     16  C   UNL     1      -0.192   2.897  14.161  0.00  0.00    +0.001 A 
ATOM     17  C   UNL     1       0.008   2.151  15.330  0.00  0.00    +0.002 A 
ATOM     18  C   UNL     1      -0.262   0.830  15.407  0.00  0.00    +0.026 A 
ATOM     19  C   UNL     1      -0.771   0.134  14.276  0.00  0.00    +0.043 A 
ATOM     20  N   UNL     1      -1.104  -1.122  14.102  0.00  0.00    -0.380 N 
ATOM     21  C   UNL     1      -1.579  -1.294  12.725  0.00  0.00    +0.144 C 
ATOM     22  H   UNL     1      -1.050  -1.821  14.773  0.00  0.00    +0.160 HD
ENDBRANCH  12  13
ENDBRANCH  11  12
ENDBRANCH   9  11
ENDBRANCH   3   7
BRANCH   1  23
ATOM     23  S   UNL     1       1.287   0.556   2.356  0.00  0.00    +0.065 S 
ATOM     24  O   UNL     1       2.451  -0.001   2.951  0.00  0.00    -0.153 OA
ATOM     25  O   UNL     1       1.317   1.767   1.612  0.00  0.00    -0.153 OA
BRANCH  23  32
ATOM     26  C   UNL     1       1.614  -2.190   2.959  0.00  0.00    +0.026 C 
ATOM     27  C   UNL     1       0.762  -2.027   1.699  0.00  0.00    +0.077 C 
ATOM     28  C   UNL     1       1.413  -2.783   0.537  0.00  0.00    +0.020 C 
ATOM     29  C   UNL     1       0.634  -2.503  -0.750  0.00  0.00    +0.003 C 
ATOM     30  C   UNL     1       0.681  -1.005  -1.061  0.00  0.00    +0.017 C 
ATOM     31  C   UNL     1       0.022  -0.229   0.083  0.00  0.00    +0.110 C 
ATOM     32  N   UNL     1       0.669  -0.603   1.348  0.00  0.00    -0.174 NA
ENDBRANCH  23  32
ENDBRANCH   1  23
BRANCH   6  33
ATOM     33  O   UNL     1      -1.461   1.645   2.098  0.00  0.00    -0.493 OA
ATOM     34  C   UNL     1      -2.804   2.072   1.861  0.00  0.00    +0.277 C 
ENDBRANCH   6  33
TORSDOF 7
