REMARK  Name = ZINC13553413
REMARK  8 active torsions:
REMARK  status: ('A' for Active; 'I' for Inactive)
REMARK    1  A    between atoms: C_1  and  C_2
REMARK    2  A    between atoms: C_2  and  C_3
REMARK    3  A    between atoms: C_3  and  C_4
REMARK    4  A    between atoms: C_4  and  N_5
REMARK    5  A    between atoms: N_5  and  C_6
REMARK    6  A    between atoms: C_8  and  C_24
REMARK    7  A    between atoms: N_12  and  C_23
REMARK    8  A    between atoms: C_14  and  C_15
REMARK                            x       y       z     vdW  Elec       q    Type
REMARK                         _______ _______ _______ _____ _____    ______ ____
ROOT
ATOM      1  C   UNL     1      -0.526   0.878   2.520  0.00  0.00    +0.056 A 
ATOM      2  C   UNL     1       0.436  -0.113   2.676  0.00  0.00    +0.048 A 
ATOM      3  C   UNL     1       0.971  -0.354   3.931  0.00  0.00    +0.041 A 
ATOM      4  N   UNL     1       0.581   0.328   4.985  0.00  0.00    -0.248 NA
ATOM      5  C   UNL     1      -0.342   1.286   4.896  0.00  0.00    +0.118 A 
ATOM      6  C   UNL     1      -0.927   1.593   3.658  0.00  0.00    +0.108 A 
ATOM      7  N   UNL     1      -1.827   2.605   3.875  0.00  0.00    -0.263 N 
ATOM      8  N   UNL     1      -1.819   2.942   5.232  0.00  0.00    -0.169 NA
ATOM      9  C   UNL     1      -0.958   2.190   5.874  0.00  0.00    +0.120 A 
ATOM     10  C   UNL     1      -2.662   3.233   2.848  0.00  0.00    +0.173 C 
ATOM     11  C   UNL     1       2.017  -1.427   4.093  0.00  0.00    +0.065 C 
ENDROOT
BRANCH   9  12
ATOM     12  C   UNL     1      -0.660   2.244   7.325  0.00  0.00    +0.023 A 
ATOM     13  C   UNL     1       0.281   1.376   7.878  0.00  0.00    +0.013 A 
ATOM     14  C   UNL     1       0.559   1.433   9.228  0.00  0.00    +0.021 A 
ATOM     15  C   UNL     1      -0.103   2.343  10.036  0.00  0.00    +0.042 A 
ATOM     16  C   UNL     1      -1.042   3.203   9.494  0.00  0.00    +0.040 A 
ATOM     17  C   UNL     1      -1.324   3.158   8.143  0.00  0.00    +0.052 A 
ATOM     18 CL   UNL     1      -2.502   4.237   7.463  0.00  0.00    -0.083 Cl
ATOM     19 CL   UNL     1       0.247   2.405  11.736  0.00  0.00    -0.083 Cl
ENDBRANCH   9  12
BRANCH   1  20
ATOM     20  N   UNL     1      -1.080   1.148   1.273  0.00  0.00    -0.342 N 
ATOM     21  H   UNL     1      -1.911   1.862   1.183  0.00  0.00    +0.146 HD
BRANCH  20  22
ATOM     22  C   UNL     1      -0.555   0.481   0.079  0.00  0.00    +0.101 C 
BRANCH  22  23
ATOM     23  C   UNL     1      -1.333   0.951  -1.152  0.00  0.00    +0.018 C 
BRANCH  23  25
ATOM     24  C   UNL     1      -1.564   0.725  -3.629  0.00  0.00    +0.004 C 
ATOM     25  C   UNL     1      -0.786   0.255  -2.399  0.00  0.00    -0.002 C 
ENDBRANCH  23  25
ENDBRANCH  22  23
ENDBRANCH  20  22
ENDBRANCH   1  20
TORSDOF 5
