REMARK  Name = ZINC24031197
REMARK  7 active torsions:
REMARK  status: ('A' for Active; 'I' for Inactive)
REMARK    1  A    between atoms: C_1  and  C_2
REMARK    2  A    between atoms: C_2  and  C_24
REMARK    3  A    between atoms: N_5  and  C_9
REMARK    4  A    between atoms: C_9  and  C_10
REMARK    5  A    between atoms: N_12  and  C_13
REMARK    6  A    between atoms: C_18  and  O_19
REMARK    7  A    between atoms: O_19  and  C_20
REMARK                            x       y       z     vdW  Elec       q    Type
REMARK                         _______ _______ _______ _____ _____    ______ ____
ROOT
ATOM      1  C   UNL     1       4.040  10.628   0.551  0.00  0.00    +0.047 C 
ATOM      2  C   UNL     1       2.929   9.638   0.198  0.00  0.00    +0.135 C 
ATOM      3  C   UNL     1       3.239   8.265   0.763  0.00  0.00    +0.251 C 
ATOM      4  O   UNL     1       3.373   7.967   1.930  0.00  0.00    -0.272 OA
ATOM      5  N   UNL     1       3.332   7.446  -0.303  0.00  0.00    -0.215 N 
ATOM      6  C   UNL     1       3.131   8.103  -1.450  0.00  0.00    +0.310 C 
ATOM      7  O   UNL     1       3.170   7.578  -2.546  0.00  0.00    -0.252 OA
ATOM      8  N   UNL     1       2.879   9.410  -1.256  0.00  0.00    -0.281 N 
ATOM      9  H   UNL     1       2.664  10.248  -1.937  0.00  0.00    +0.152 HD
ENDROOT
BRANCH   2  10
ATOM     10  C   UNL     1       1.597  10.131   0.704  0.00  0.00    -0.015 A 
ATOM     11  C   UNL     1       1.139   9.731   1.945  0.00  0.00    +0.009 A 
ATOM     12  C   UNL     1      -0.080  10.186   2.412  0.00  0.00    +0.039 A 
ATOM     13  C   UNL     1      -0.846  11.035   1.631  0.00  0.00    +0.123 A 
ATOM     14  C   UNL     1      -0.388  11.430   0.385  0.00  0.00    +0.039 A 
ATOM     15  C   UNL     1       0.833  10.978  -0.077  0.00  0.00    +0.009 A 
ATOM     16  F   UNL     1      -2.040  11.477   2.084  0.00  0.00    -0.205 F 
ENDBRANCH   2  10
BRANCH   5  17
ATOM     17  C   UNL     1       3.624   6.013  -0.215  0.00  0.00    +0.214 C 
BRANCH  17  18
ATOM     18  C   UNL     1       2.333   5.244  -0.094  0.00  0.00    +0.235 C 
ATOM     19  O   UNL     1       1.274   5.835  -0.082  0.00  0.00    -0.274 OA
ATOM     20  N   UNL     1       2.356   3.900   0.001  0.00  0.00    -0.281 N 
ATOM     21  H   UNL     1       3.317   3.370   0.081  0.00  0.00    +0.155 HD
BRANCH  20  22
ATOM     22  C   UNL     1       1.156   3.177  -0.004  0.00  0.00    +0.076 A 
ATOM     23  C   UNL     1       0.023   3.713  -0.598  0.00  0.00    +0.027 A 
ATOM     24  C   UNL     1      -1.160   2.998  -0.600  0.00  0.00    +0.002 A 
ATOM     25  C   UNL     1      -1.216   1.746  -0.016  0.00  0.00    +0.004 A 
ATOM     26  C   UNL     1      -0.093   1.207   0.583  0.00  0.00    +0.048 A 
ATOM     27  C   UNL     1       1.097   1.918   0.589  0.00  0.00    +0.151 A 
BRANCH  27  28
ATOM     28  O   UNL     1       2.204   1.387   1.173  0.00  0.00    -0.404 OA
BRANCH  28  29
ATOM     29  C   UNL     1       2.070   0.091   1.761  0.00  0.00    +0.575 C 
ATOM     30  F   UNL     1       1.684  -0.829   0.779  0.00  0.00    -0.133 F 
ATOM     31  F   UNL     1       3.295  -0.301   2.311  0.00  0.00    -0.133 F 
ATOM     32  F   UNL     1       1.099   0.134   2.767  0.00  0.00    -0.133 F 
ENDBRANCH  28  29
ENDBRANCH  27  28
ENDBRANCH  20  22
ENDBRANCH  17  18
ENDBRANCH   5  17
TORSDOF 6
