REMARK  Name = ZINC37066683
REMARK  11 active torsions:
REMARK  status: ('A' for Active; 'I' for Inactive)
REMARK    1  A    between atoms: C_1  and  C_2
REMARK    2  A    between atoms: C_2  and  C_3
REMARK    3  A    between atoms: C_2  and  C_4
REMARK    4  A    between atoms: C_2  and  O_5
REMARK    5  A    between atoms: O_5  and  C_6
REMARK    6  A    between atoms: C_7  and  N_17
REMARK    7  A    between atoms: C_10  and  N_12
REMARK    8  A    between atoms: N_12  and  C_13
REMARK    9  A    between atoms: C_13  and  C_14
REMARK   10  A    between atoms: C_14  and  O_15
REMARK   11  A    between atoms: O_15  and  C_16
REMARK                            x       y       z     vdW  Elec       q    Type
REMARK                         _______ _______ _______ _____ _____    ______ ____
ROOT
ATOM      1  C   UNL     1       1.963  -0.082  -1.338  0.00  0.00    +0.238 A 
ATOM      2  C   UNL     1       2.667  -0.494  -2.467  0.00  0.00    +0.087 A 
ATOM      3  C   UNL     1       3.989  -0.095  -2.625  0.00  0.00    +0.031 A 
ATOM      4  C   UNL     1       4.560   0.703  -1.646  0.00  0.00    +0.045 A 
ATOM      5  C   UNL     1       3.800   1.077  -0.546  0.00  0.00    +0.123 A 
ATOM      6  N   UNL     1       2.540   0.684  -0.427  0.00  0.00    -0.197 NA
ENDROOT
BRANCH   2   7
ATOM      7  N   UNL     1       2.049  -1.303  -3.433  0.00  0.00    -0.354 N 
ATOM      8  H   UNL     1       1.126  -1.578  -3.317  0.00  0.00    +0.142 HD
ATOM      9  H   UNL     1       2.544  -1.587  -4.218  0.00  0.00    +0.142 HD
ENDBRANCH   2   7
BRANCH   5  10
ATOM     10  N   UNL     1       4.367   1.879   0.442  0.00  0.00    -0.327 N 
ATOM     11  H   UNL     1       3.841   2.144   1.213  0.00  0.00    +0.148 HD
BRANCH  10  12
ATOM     12  C   UNL     1       5.757   2.322   0.317  0.00  0.00    +0.131 C 
BRANCH  12  13
ATOM     13  C   UNL     1       6.129   3.183   1.525  0.00  0.00    +0.178 C 
BRANCH  13  14
ATOM     14  O   UNL     1       6.093   2.384   2.709  0.00  0.00    -0.381 OA
ATOM     15  C   UNL     1       6.426   3.096   3.902  0.00  0.00    +0.194 C 
ENDBRANCH  13  14
ENDBRANCH  12  13
ENDBRANCH  10  12
ENDBRANCH   5  10
BRANCH   1  16
ATOM     16  O   UNL     1       0.671  -0.465  -1.174  0.00  0.00    -0.469 OA
BRANCH  16  18
ATOM     17  C   UNL     1      -0.019   1.526   0.010  0.00  0.00    +0.055 C 
ATOM     18  C   UNL     1       0.002  -0.004   0.002  0.00  0.00    +0.104 C 
ATOM     19  C   UNL     1       0.742  -0.511   1.242  0.00  0.00    +0.055 C 
ATOM     20  C   UNL     1      -1.433  -0.534   0.013  0.00  0.00    +0.055 C 
ENDBRANCH  16  18
ENDBRANCH   1  16
TORSDOF 7
