REMARK  Name = ZINC30962063
REMARK  16 active torsions:
REMARK  status: ('A' for Active; 'I' for Inactive)
REMARK    1  A    between atoms: C_1  and  C_2
REMARK    2  A    between atoms: C_2  and  C_3
REMARK    3  A    between atoms: C_3  and  C_4
REMARK    4  A    between atoms: C_4  and  O_5
REMARK    5  A    between atoms: O_5  and  C_6
REMARK    6  A    between atoms: C_7  and  O_33
REMARK    7  A    between atoms: C_9  and  C_13
REMARK    8  A    between atoms: N_14  and  N_15
REMARK    9  A    between atoms: C_16  and  C_18
REMARK   10  A    between atoms: C_18  and  C_20
REMARK   11  A    between atoms: C_18  and  N_23
REMARK   12  A    between atoms: C_20  and  C_21
REMARK   13  A    between atoms: C_20  and  C_22
REMARK   14  A    between atoms: C_24  and  C_26
REMARK   15  A    between atoms: C_29  and  C_32
REMARK   16  A    between atoms: O_33  and  C_34
REMARK                            x       y       z     vdW  Elec       q    Type
REMARK                         _______ _______ _______ _____ _____    ______ ____
ROOT
ATOM      1  N   UNL     1      -0.292   4.389  -2.290  0.00  0.00    -0.205 N 
ATOM      2  C   UNL     1      -1.460   3.718  -2.248  0.00  0.00    +0.253 C 
ATOM      3  O   UNL     1      -2.439   4.236  -1.754  0.00  0.00    -0.272 OA
ATOM      4  H   UNL     1       0.632   3.869  -2.585  0.00  0.00    +0.177 HD
ENDROOT
BRANCH   1   6
ATOM      5  C   UNL     1       0.884   6.373  -1.905  0.00  0.00    +0.138 C 
ATOM      6  N   UNL     1      -0.253   5.750  -1.959  0.00  0.00    -0.188 NA
BRANCH   5  10
ATOM      7  C   UNL     1       4.443   4.217  -1.041  0.00  0.00    +0.176 A 
ATOM      8  C   UNL     1       4.521   5.534  -1.490  0.00  0.00    +0.163 A 
ATOM      9  C   UNL     1       3.365   6.236  -1.778  0.00  0.00    +0.059 A 
ATOM     10  C   UNL     1       2.120   5.626  -1.605  0.00  0.00    -0.001 A 
ATOM     11  C   UNL     1       2.048   4.306  -1.154  0.00  0.00    +0.028 A 
ATOM     12  C   UNL     1       3.206   3.609  -0.875  0.00  0.00    +0.064 A 
ATOM     13 BR   UNL     1       3.108   1.822  -0.264  0.00  0.00    -0.046 Br
BRANCH   8  14
ATOM     14  O   UNL     1       5.734   6.126  -1.652  0.00  0.00    -0.491 OA
ATOM     15  C   UNL     1       5.740   7.478  -2.116  0.00  0.00    +0.277 C 
ENDBRANCH   8  14
BRANCH   7  16
ATOM     16  O   UNL     1       5.581   3.527  -0.765  0.00  0.00    -0.487 OA
BRANCH  16  17
ATOM     17  C   UNL     1       6.165   2.784  -1.836  0.00  0.00    +0.229 C 
BRANCH  17  18
ATOM     18  C   UNL     1       7.428   2.078  -1.338  0.00  0.00    +0.041 C 
BRANCH  18  20
ATOM     19  C   UNL     1       9.317   0.577  -1.987  0.00  0.00    +0.004 C 
ATOM     20  C   UNL     1       8.054   1.282  -2.485  0.00  0.00    -0.000 C 
ENDBRANCH  18  20
ENDBRANCH  17  18
ENDBRANCH  16  17
ENDBRANCH   7  16
ENDBRANCH   5  10
ENDBRANCH   1   6
BRANCH   2  21
ATOM     21  C   UNL     1      -1.548   2.324  -2.813  0.00  0.00    +0.163 C 
BRANCH  21  22
ATOM     22  N   UNL     1      -2.103   2.381  -4.168  0.00  0.00    -0.300 N 
ATOM     23  C   UNL     1      -2.738   1.309  -4.683  0.00  0.00    +0.245 C 
ATOM     24  O   UNL     1      -2.850   0.295  -4.022  0.00  0.00    -0.270 OA
ATOM     25  H   UNL     1      -2.001   3.299  -4.766  0.00  0.00    +0.150 HD
BRANCH  23  26
ATOM     26  C   UNL     1      -3.297   1.367  -6.050  0.00  0.00    +0.037 A 
ATOM     27  C   UNL     1      -3.175   2.532  -6.809  0.00  0.00    +0.013 A 
ATOM     28  C   UNL     1      -3.695   2.578  -8.085  0.00  0.00    +0.004 A 
ATOM     29  C   UNL     1      -4.346   1.476  -8.610  0.00  0.00    -0.050 A 
ATOM     30  C   UNL     1      -4.476   0.320  -7.862  0.00  0.00    +0.004 A 
ATOM     31  C   UNL     1      -3.955   0.259  -6.585  0.00  0.00    +0.013 A 
ATOM     32  C   UNL     1      -4.917   1.535 -10.004  0.00  0.00    +0.044 C 
ENDBRANCH  23  26
ENDBRANCH  21  22
BRANCH  21  33
ATOM     33  C   UNL     1      -0.151   1.702  -2.860  0.00  0.00    +0.012 C 
ATOM     34  C   UNL     1      -0.201   0.394  -3.651  0.00  0.00    +0.009 C 
ATOM     35  C   UNL     1       0.329   1.419  -1.435  0.00  0.00    +0.009 C 
ENDBRANCH  21  33
ENDBRANCH   2  21
TORSDOF 11
