REMARK  Name = ZINC22284406
REMARK  7 active torsions:
REMARK  status: ('A' for Active; 'I' for Inactive)
REMARK    1  A    between atoms: C_11  and  C_30
REMARK    2  A    between atoms: C_14  and  C_16
REMARK    3  A    between atoms: C_16  and  S_17
REMARK    4  A    between atoms: S_17  and  C_18
REMARK    5  A    between atoms: N_22  and  C_23
REMARK    6  A    between atoms: C_23  and  C_24
REMARK    7  A    between atoms: C_24  and  C_25
REMARK                            x       y       z     vdW  Elec       q    Type
REMARK                         _______ _______ _______ _____ _____    ______ ____
ROOT
ATOM      1  C   UNL     1       1.300   1.399   4.648  0.00  0.00    +0.002 A 
ATOM      2  C   UNL     1       0.780   0.120   4.564  0.00  0.00    +0.002 A 
ATOM      3  C   UNL     1       0.690  -0.517   3.341  0.00  0.00    +0.025 A 
ATOM      4  C   UNL     1       1.122   0.128   2.193  0.00  0.00    +0.058 A 
ATOM      5  C   UNL     1       1.666   1.410   2.281  0.00  0.00    +0.055 A 
ATOM      6  C   UNL     1       1.742   2.047   3.509  0.00  0.00    +0.025 A 
ATOM      7  N   UNL     1       2.144   2.027   1.119  0.00  0.00    -0.284 N 
ATOM      8  C   UNL     1       1.388   2.063  -0.000  0.00  0.00    +0.219 C 
ATOM      9  O   UNL     1       1.845   2.532  -1.021  0.00  0.00    -0.275 OA
ATOM     10  C   UNL     1      -0.019   1.526   0.010  0.00  0.00    +0.128 C 
ATOM     11  C   UNL     1       0.002  -0.004   0.002  0.00  0.00    +0.194 C 
ATOM     12  N   UNL     1       1.013  -0.492   0.942  0.00  0.00    -0.257 N 
ATOM     13  C   UNL     1       1.822  -1.517   0.609  0.00  0.00    +0.231 C 
ATOM     14  O   UNL     1       1.717  -2.045  -0.478  0.00  0.00    -0.274 OA
ATOM     15  H   UNL     1       3.143   2.488   1.113  0.00  0.00    +0.155 HD
ENDROOT
BRANCH  11  16
ATOM     16  C   UNL     1      -1.373  -0.533   0.414  0.00  0.00    +0.409 C 
ATOM     17  F   UNL     1      -2.339  -0.075  -0.488  0.00  0.00    -0.169 F 
ATOM     18  F   UNL     1      -1.355  -1.932   0.407  0.00  0.00    -0.169 F 
ATOM     19  F   UNL     1      -1.682  -0.078   1.700  0.00  0.00    -0.169 F 
ENDBRANCH  11  16
BRANCH  13  20
ATOM     20  C   UNL     1       2.857  -2.008   1.588  0.00  0.00    +0.173 C 
BRANCH  20  21
ATOM     21  S   UNL     1       3.779  -3.382   0.854  0.00  0.00    -0.077 S 
BRANCH  21  22
ATOM     22  C   UNL     1       4.886  -3.748   2.175  0.00  0.00    +0.192 A 
ATOM     23  N   UNL     1       4.953  -3.130   3.332  0.00  0.00    -0.123 NA
ATOM     24  N   UNL     1       5.873  -3.659   4.056  0.00  0.00    -0.137 NA
ATOM     25  C   UNL     1       6.450  -4.631   3.408  0.00  0.00    +0.225 A 
ATOM     26  N   UNL     1       5.843  -4.722   2.186  0.00  0.00    -0.308 N 
BRANCH  26  27
ATOM     27  C   UNL     1       6.153  -5.669   1.113  0.00  0.00    +0.130 C 
BRANCH  27  28
ATOM     28  C   UNL     1       7.123  -5.020   0.124  0.00  0.00    +0.064 C 
BRANCH  28  29
ATOM     29  C   UNL     1       7.443  -5.994  -0.980  0.00  0.00    -0.009 A 
ATOM     30  C   UNL     1       6.809  -6.180  -2.164  0.00  0.00    +0.011 A 
ATOM     31  C   UNL     1       7.284  -7.143  -3.035  0.00  0.00    +0.008 A 
ATOM     32  C   UNL     1       8.369  -7.874  -2.678  0.00  0.00    +0.045 A 
ATOM     33  S   UNL     1       8.758  -7.198  -1.072  0.00  0.00    -0.102 S 
ENDBRANCH  28  29
ENDBRANCH  27  28
ENDBRANCH  26  27
ENDBRANCH  21  22
ENDBRANCH  20  21
ENDBRANCH  13  20
TORSDOF 7
