REMARK  Name = ZINC08076048
REMARK  11 active torsions:
REMARK  status: ('A' for Active; 'I' for Inactive)
REMARK    1  A    between atoms: C_1  and  C_2
REMARK    2  A    between atoms: C_2  and  C_3
REMARK    3  A    between atoms: C_2  and  C_4
REMARK    4  A    between atoms: C_4  and  C_6
REMARK    5  A    between atoms: C_4  and  N_19
REMARK    6  A    between atoms: N_8  and  C_9
REMARK    7  A    between atoms: C_11  and  C_17
REMARK    8  A    between atoms: C_11  and  C_18
REMARK    9  A    between atoms: C_13  and  C_15
REMARK   10  A    between atoms: C_13  and  C_16
REMARK   11  A    between atoms: C_20  and  C_22
REMARK                            x       y       z     vdW  Elec       q    Type
REMARK                         _______ _______ _______ _____ _____    ______ ____
ROOT
ATOM      1  C   UNL     1      -1.089  -0.803  -0.213  0.00  0.00    +0.162 C 
ENDROOT
BRANCH   1   2
ATOM      2  C   UNL     1      -1.121  -2.287   0.048  0.00  0.00    +0.234 C 
ATOM      3  O   UNL     1      -1.566  -3.041  -0.792  0.00  0.00    -0.274 OA
ATOM      4  N   UNL     1      -0.655  -2.777   1.213  0.00  0.00    -0.311 N 
ATOM      5  H   UNL     1      -0.232  -2.184   1.854  0.00  0.00    +0.149 HD
BRANCH   4   6
ATOM      6  C   UNL     1      -0.787  -4.208   1.514  0.00  0.00    +0.070 C 
ATOM      7  C   UNL     1       0.411  -4.957   0.928  0.00  0.00    +0.009 C 
ATOM      8  C   UNL     1       0.294  -6.448   1.244  0.00  0.00    -0.072 C 
ATOM      9  N   UNL     1       0.122  -6.696   2.667  0.00  0.00    +0.386 N 
ATOM     10  C   UNL     1      -0.855  -5.890   3.381  0.00  0.00    -0.072 C 
ATOM     11  C   UNL     1      -0.784  -4.407   3.029  0.00  0.00    +0.009 C 
ATOM     12  C   UNL     1      -0.550  -6.018   4.892  0.00  0.00    -0.010 C 
ATOM     13  C   UNL     1      -2.280  -6.408   3.168  0.00  0.00    -0.010 C 
ATOM     14  C   UNL     1      -0.823  -7.079   0.411  0.00  0.00    -0.010 C 
ATOM     15  C   UNL     1       1.620  -7.114   0.810  0.00  0.00    -0.010 C 
ATOM     16  H   UNL     1      -0.117  -7.682   2.796  0.00  0.00    -0.084 HD
ATOM     17  H   UNL     1       1.030  -6.579   3.125  0.00  0.00    -0.084 HD
ENDBRANCH   4   6
ENDBRANCH   1   2
BRANCH   1  18
ATOM     18  N   UNL     1      -2.111  -0.459  -1.205  0.00  0.00    -0.300 N 
ATOM     19  C   UNL     1      -2.623   0.787  -1.240  0.00  0.00    +0.250 C 
ATOM     20  O   UNL     1      -2.238   1.625  -0.448  0.00  0.00    -0.270 OA
ATOM     21  H   UNL     1      -2.418  -1.128  -1.837  0.00  0.00    +0.150 HD
BRANCH  19  22
ATOM     22  C   UNL     1      -3.652   1.133  -2.239  0.00  0.00    +0.107 A 
ATOM     23  C   UNL     1      -5.009   0.969  -1.938  0.00  0.00    +0.138 A 
ATOM     24  C   UNL     1      -5.966   1.297  -2.879  0.00  0.00    +0.039 A 
ATOM     25  C   UNL     1      -5.587   1.784  -4.116  0.00  0.00    +0.006 A 
ATOM     26  C   UNL     1      -4.248   1.949  -4.423  0.00  0.00    +0.039 A 
ATOM     27  C   UNL     1      -3.278   1.633  -3.491  0.00  0.00    +0.138 A 
ATOM     28  F   UNL     1      -1.971   1.799  -3.790  0.00  0.00    -0.205 F 
ATOM     29  F   UNL     1      -5.382   0.492  -0.730  0.00  0.00    -0.205 F 
ENDBRANCH  19  22
ENDBRANCH   1  18
BRANCH   1  31
ATOM     30  C   UNL     1       0.513  -1.051  -2.115  0.00  0.00    +0.009 C 
ATOM     31  C   UNL     1       0.291  -0.408  -0.744  0.00  0.00    +0.012 C 
ATOM     32  C   UNL     1       0.370   1.114  -0.876  0.00  0.00    +0.009 C 
ENDBRANCH   1  31
TORSDOF 5
