REMARK  Name = ZINC19912438
REMARK  6 active torsions:
REMARK  status: ('A' for Active; 'I' for Inactive)
REMARK    1  A    between atoms: C_4  and  C_7
REMARK    2  A    between atoms: C_8  and  C_15
REMARK    3  A    between atoms: C_15  and  C_16
REMARK    4  A    between atoms: C_16  and  C_17
REMARK    5  A    between atoms: C_17  and  C_18
REMARK    6  A    between atoms: C_18  and  C_19
REMARK                            x       y       z     vdW  Elec       q    Type
REMARK                         _______ _______ _______ _____ _____    ______ ____
ROOT
ATOM      1  C   UNL     1      -2.032  -0.882   1.209  0.00  0.00    +0.057 A 
ATOM      2  C   UNL     1      -1.601  -0.180   0.085  0.00  0.00    +0.043 A 
ATOM      3  C   UNL     1      -2.307  -0.337  -1.104  0.00  0.00    +0.278 A 
ATOM      4  N   UNL     1      -3.365  -1.139  -1.127  0.00  0.00    -0.177 NA
ATOM      5  C   UNL     1      -3.751  -1.788  -0.038  0.00  0.00    +0.194 A 
ATOM      6  N   UNL     1      -3.106  -1.665   1.111  0.00  0.00    -0.327 N 
ATOM      7  N   UNL     1      -4.859  -2.615  -0.104  0.00  0.00    -0.329 N 
ATOM      8  O   UNL     1      -1.921   0.322  -2.224  0.00  0.00    -0.265 OA
ATOM      9  H   UNL     1      -5.192  -3.160   0.792  0.00  0.00    +0.145 HD
ATOM     10  H   UNL     1      -5.407  -2.727  -1.051  0.00  0.00    +0.145 HD
ATOM     11  H   UNL     1      -3.466  -2.218   1.991  0.00  0.00    +0.169 HD
ENDROOT
BRANCH   1  15
ATOM     12  C   UNL     1       0.039  -0.516   4.904  0.00  0.00    +0.000 A 
ATOM     13  C   UNL     1      -1.336  -0.377   4.869  0.00  0.00    +0.001 A 
ATOM     14  C   UNL     1      -2.014  -0.495   3.672  0.00  0.00    +0.010 A 
ATOM     15  C   UNL     1      -1.309  -0.755   2.498  0.00  0.00    -0.001 A 
ATOM     16  C   UNL     1       0.076  -0.900   2.541  0.00  0.00    +0.010 A 
ATOM     17  C   UNL     1       0.744  -0.775   3.742  0.00  0.00    +0.001 A 
ENDBRANCH   1  15
BRANCH   2  18
ATOM     18  C   UNL     1      -0.395   0.721   0.153  0.00  0.00    +0.043 C 
BRANCH  18  19
ATOM     19  C   UNL     1      -0.816   2.098   0.669  0.00  0.00    +0.005 C 
BRANCH  19  20
ATOM     20  C   UNL     1       0.408   3.013   0.739  0.00  0.00    +0.012 C 
BRANCH  20  21
ATOM     21  C   UNL     1      -0.013   4.390   1.255  0.00  0.00    +0.125 C 
BRANCH  21  22
ATOM     22  C   UNL     1       1.192   5.292   1.323  0.00  0.00    +0.356 C 
ATOM     23  O   UNL     1       2.277   4.875   0.993  0.00  0.00    -0.246 OA
ATOM     24  O   UNL     1       1.061   6.557   1.751  0.00  0.00    -0.246 OA
ENDBRANCH  21  22
ENDBRANCH  20  21
ENDBRANCH  19  20
ENDBRANCH  18  19
ENDBRANCH   2  18
TORSDOF 6
