REMARK  Name = ZINC38549498
REMARK  6 active torsions:
REMARK  status: ('A' for Active; 'I' for Inactive)
REMARK    1  A    between atoms: C_1  and  C_2
REMARK    2  A    between atoms: C_2  and  C_3
REMARK    3  A    between atoms: C_3  and  C_4
REMARK    4  A    between atoms: N_19  and  O_20
REMARK    5  A    between atoms: C_22  and  C_24
REMARK    6  A    between atoms: C_22  and  C_25
REMARK                            x       y       z     vdW  Elec       q    Type
REMARK                         _______ _______ _______ _____ _____    ______ ____
ROOT
ATOM      1  C   UNL     1       0.762  -2.018   1.233  0.00  0.00    +0.048 C 
ATOM      2  N   UNL     1       0.205  -2.708   0.257  0.00  0.00    -0.256 NA
ATOM      3  C   UNL     1       0.394  -4.020   0.088  0.00  0.00    +0.049 C 
ATOM      4  C   UNL     1       0.893  -4.820   1.081  0.00  0.00    +0.025 C 
ATOM      5  C   UNL     1       1.069  -4.222   2.442  0.00  0.00    +0.146 C 
ATOM      6  C   UNL     1       1.376  -2.740   2.252  0.00  0.00    +0.010 C 
ATOM      7  C   UNL     1       2.311  -2.455   3.204  0.00  0.00    +0.005 A 
ATOM      8  C   UNL     1       2.834  -1.230   3.684  0.00  0.00    +0.010 A 
ATOM      9  C   UNL     1       3.817  -1.307   4.625  0.00  0.00    +0.001 A 
ATOM     10  C   UNL     1       4.315  -2.513   5.121  0.00  0.00    +0.002 A 
ATOM     11  C   UNL     1       3.854  -3.732   4.733  0.00  0.00    +0.026 A 
ATOM     12  C   UNL     1       2.807  -3.745   3.766  0.00  0.00    +0.044 A 
ATOM     13  N   UNL     1       2.139  -4.743   3.267  0.00  0.00    -0.373 N 
ATOM     14  C   UNL     1       1.218  -6.173   0.848  0.00  0.00    +0.088 C 
ATOM     15  N   UNL     1       1.807  -6.866   1.778  0.00  0.00    -0.092 NA
ATOM     16  C   UNL     1       0.887  -6.822  -0.472  0.00  0.00    +0.066 C 
ATOM     17  C   UNL     1      -0.327  -6.103  -1.071  0.00  0.00    -0.024 C 
ATOM     18  C   UNL     1       0.020  -4.624  -1.245  0.00  0.00    +0.062 C 
ATOM     19  C   UNL     1      -1.524  -6.242  -0.128  0.00  0.00    +0.011 C 
ATOM     20  C   UNL     1      -0.667  -6.714  -2.432  0.00  0.00    +0.011 C 
ATOM     21  H   UNL     1       2.334  -5.680   3.422  0.00  0.00    +0.161 HD
ENDROOT
BRANCH  15  22
ATOM     22  O   UNL     1       2.135  -8.224   1.549  0.00  0.00    -0.409 OA
ATOM     23  H   UNL     1       2.570  -8.655   2.298  0.00  0.00    +0.328 HD
ENDBRANCH  15  22
BRANCH   1  24
ATOM     24  C   UNL     1       0.742  -0.511   1.242  0.00  0.00    +0.055 C 
BRANCH  24  26
ATOM     25  C   UNL     1      -0.019   1.526   0.010  0.00  0.00    +0.004 C 
ATOM     26  C   UNL     1       0.002  -0.004   0.002  0.00  0.00    +0.003 C 
ENDBRANCH  24  26
ENDBRANCH   1  24
TORSDOF 3
