REMARK  Name = ZINC19972836
REMARK  10 active torsions:
REMARK  status: ('A' for Active; 'I' for Inactive)
REMARK    1  A    between atoms: C_1  and  C_2
REMARK    2  A    between atoms: C_9  and  C_14
REMARK    3  A    between atoms: C_14  and  C_16
REMARK    4  A    between atoms: C_14  and  N_25
REMARK    5  A    between atoms: N_20  and  C_21
REMARK    6  A    between atoms: C_21  and  C_22
REMARK    7  A    between atoms: C_22  and  O_23
REMARK    8  A    between atoms: O_23  and  C_24
REMARK    9  A    between atoms: N_28  and  C_31
REMARK   10  A    between atoms: C_31  and  C_32
REMARK                            x       y       z     vdW  Elec       q    Type
REMARK                         _______ _______ _______ _____ _____    ______ ____
ROOT
ATOM      1  C   UNL     1       9.054  -3.114  -0.940  0.00  0.00    +0.162 C 
ENDROOT
BRANCH   1  10
ATOM      2  C   UNL     1       7.102  -7.272  -6.815  0.00  0.00    +0.044 C 
ATOM      3  C   UNL     1       7.321  -7.112  -5.333  0.00  0.00    -0.050 A 
ATOM      4  C   UNL     1       7.086  -8.185  -4.483  0.00  0.00    +0.005 A 
ATOM      5  C   UNL     1       7.280  -8.062  -3.125  0.00  0.00    +0.026 A 
ATOM      6  C   UNL     1       7.715  -6.850  -2.597  0.00  0.00    +0.049 A 
ATOM      7  C   UNL     1       7.951  -5.765  -3.461  0.00  0.00    -0.001 A 
ATOM      8  C   UNL     1       7.748  -5.913  -4.837  0.00  0.00    +0.013 A 
ATOM      9  C   UNL     1       8.402  -4.492  -2.895  0.00  0.00    +0.021 A 
ATOM     10  C   UNL     1       8.586  -4.408  -1.554  0.00  0.00    +0.042 A 
ATOM     11  C   UNL     1       8.335  -5.527  -0.731  0.00  0.00    +0.254 A 
ATOM     12  O   UNL     1       8.502  -5.429   0.472  0.00  0.00    -0.268 OA
ATOM     13  N   UNL     1       7.915  -6.698  -1.241  0.00  0.00    -0.322 N 
ATOM     14  H   UNL     1       7.733  -7.543  -0.560  0.00  0.00    +0.169 HD
ENDBRANCH   1  10
BRANCH   1  15
ATOM     15  N   UNL     1       8.107  -2.696   0.102  0.00  0.00    -0.286 NA
ATOM     16  C   UNL     1       8.396  -1.330   0.559  0.00  0.00    +0.101 C 
ATOM     17  C   UNL     1       7.441  -0.962   1.696  0.00  0.00    +0.100 C 
ATOM     18  N   UNL     1       6.054  -1.074   1.223  0.00  0.00    -0.296 NA
ATOM     19  C   UNL     1       5.765  -2.440   0.767  0.00  0.00    +0.100 C 
ATOM     20  C   UNL     1       6.720  -2.808  -0.371  0.00  0.00    +0.101 C 
BRANCH  18  21
ATOM     21  C   UNL     1       5.107  -0.655   2.265  0.00  0.00    +0.119 C 
BRANCH  21  22
ATOM     22  C   UNL     1       3.725  -0.548   1.674  0.00  0.00    -0.030 A 
ATOM     23  C   UNL     1       2.885  -1.646   1.677  0.00  0.00    +0.009 A 
ATOM     24  C   UNL     1       1.617  -1.553   1.135  0.00  0.00    +0.050 A 
ATOM     25  C   UNL     1       1.183  -0.356   0.589  0.00  0.00    +0.166 A 
ATOM     26  C   UNL     1       2.028   0.751   0.586  0.00  0.00    +0.167 A 
ATOM     27  C   UNL     1       3.298   0.650   1.131  0.00  0.00    +0.054 A 
ATOM     28  O   UNL     1       1.376   1.797  -0.001  0.00  0.00    -0.453 OA
ATOM     29  C   UNL     1      -0.018   1.436   0.010  0.00  0.00    +0.466 C 
ATOM     30  O   UNL     1       0.002  -0.004   0.002  0.00  0.00    -0.453 OA
ENDBRANCH  21  22
ENDBRANCH  18  21
ENDBRANCH   1  15
BRANCH   1  31
ATOM     31  C   UNL     1      10.418  -3.312  -0.330  0.00  0.00    +0.173 A 
ATOM     32  N   UNL     1      10.691  -3.938   0.789  0.00  0.00    -0.111 NA
ATOM     33  N   UNL     1      11.966  -3.894   0.969  0.00  0.00    -0.023 NA
ATOM     34  N   UNL     1      12.513  -3.256  -0.006  0.00  0.00    -0.044 NA
ATOM     35  N   UNL     1      11.592  -2.887  -0.831  0.00  0.00    -0.225 N 
BRANCH  35  36
ATOM     36  C   UNL     1      11.787  -2.140  -2.076  0.00  0.00    +0.175 C 
BRANCH  36  37
ATOM     37  C   UNL     1      11.713  -0.639  -1.788  0.00  0.00    +0.183 C 
BRANCH  37  38
ATOM     38  O   UNL     1      11.904   0.089  -3.003  0.00  0.00    -0.381 OA
ATOM     39  C   UNL     1      11.852   1.508  -2.844  0.00  0.00    +0.194 C 
ENDBRANCH  37  38
ENDBRANCH  36  37
ENDBRANCH  35  36
ENDBRANCH   1  31
TORSDOF 8
