REMARK  Name = ZINC18048313
REMARK  12 active torsions:
REMARK  status: ('A' for Active; 'I' for Inactive)
REMARK    1  A    between atoms: C_1  and  C_2
REMARK    2  A    between atoms: C_2  and  N_3
REMARK    3  A    between atoms: N_3  and  C_4
REMARK    4  A    between atoms: N_3  and  S_6
REMARK    5  A    between atoms: C_4  and  C_5
REMARK    6  A    between atoms: S_6  and  C_9
REMARK    7  A    between atoms: C_15  and  C_20
REMARK    8  A    between atoms: C_17  and  O_19
REMARK    9  A    between atoms: N_22  and  C_23
REMARK   10  A    between atoms: C_23  and  C_25
REMARK   11  A    between atoms: C_23  and  C_26
REMARK   12  A    between atoms: C_29  and  N_32
REMARK                            x       y       z     vdW  Elec       q    Type
REMARK                         _______ _______ _______ _____ _____    ______ ____
ROOT
ATOM      1  C   UNL     1      -8.654   8.370  -3.480  0.00  0.00    +0.106 A 
ATOM      2  C   UNL     1      -8.404   9.460  -4.311  0.00  0.00    +0.030 A 
ATOM      3  C   UNL     1      -7.143   9.947  -4.469  0.00  0.00    +0.030 A 
ATOM      4  C   UNL     1      -6.069   9.334  -3.799  0.00  0.00    +0.076 A 
ATOM      5  C   UNL     1      -6.327   8.223  -2.959  0.00  0.00    +0.015 A 
ATOM      6  C   UNL     1      -7.639   7.755  -2.811  0.00  0.00    +0.039 A 
ATOM      7  C   UNL     1      -5.244   7.608  -2.279  0.00  0.00    +0.051 A 
ATOM      8  C   UNL     1      -3.974   8.125  -2.481  0.00  0.00    +0.080 A 
ATOM      9  C   UNL     1      -3.803   9.223  -3.333  0.00  0.00    +0.214 A 
ATOM     10  N   UNL     1      -4.819   9.783  -3.950  0.00  0.00    -0.213 NA
ENDROOT
BRANCH   7  11
ATOM     11  C   UNL     1      -5.463   6.448  -1.387  0.00  0.00    +0.245 C 
ATOM     12  O   UNL     1      -6.593   6.077  -1.139  0.00  0.00    -0.270 OA
ATOM     13  N   UNL     1      -4.409   5.803  -0.849  0.00  0.00    -0.305 N 
ATOM     14  H   UNL     1      -3.506   6.099  -1.047  0.00  0.00    +0.150 HD
BRANCH  13  15
ATOM     15  C   UNL     1      -4.625   4.655   0.034  0.00  0.00    +0.100 C 
ATOM     16  C   UNL     1      -4.865   5.148   1.463  0.00  0.00    +0.033 C 
BRANCH  15  17
ATOM     17  C   UNL     1      -3.410   3.764   0.008  0.00  0.00    -0.027 A 
ATOM     18  C   UNL     1      -3.562   2.390   0.001  0.00  0.00    +0.007 A 
ATOM     19  C   UNL     1      -2.450   1.571  -0.025  0.00  0.00    +0.026 A 
ATOM     20  C   UNL     1      -1.179   2.129  -0.042  0.00  0.00    +0.047 A 
ATOM     21  C   UNL     1      -1.029   3.509  -0.029  0.00  0.00    +0.026 A 
ATOM     22  C   UNL     1      -2.145   4.323  -0.010  0.00  0.00    +0.007 A 
BRANCH  20  23
ATOM     23  N   UNL     1      -0.048   1.300  -0.068  0.00  0.00    -0.306 N 
ATOM     24  C   UNL     1       1.261   1.708  -0.093  0.00  0.00    +0.112 A 
ATOM     25  C   UNL     1       2.016   0.594  -0.118  0.00  0.00    +0.130 A 
ATOM     26  N   UNL     1       1.197  -0.468  -0.109  0.00  0.00    -0.244 NA
ATOM     27  C   UNL     1      -0.042  -0.058  -0.079  0.00  0.00    +0.204 A 
ENDBRANCH  20  23
ENDBRANCH  15  17
ENDBRANCH  13  15
ENDBRANCH   7  11
BRANCH   1  28
ATOM     28  S   UNL     1     -10.304   7.780  -3.292  0.00  0.00    +0.061 S 
ATOM     29  O   UNL     1     -11.015   8.186  -4.453  0.00  0.00    -0.153 OA
ATOM     30  O   UNL     1     -10.206   6.420  -2.895  0.00  0.00    -0.153 OA
BRANCH  28  31
ATOM     31  N   UNL     1     -10.973   8.598  -2.017  0.00  0.00    -0.177 NA
BRANCH  31  33
ATOM     32  C   UNL     1     -13.181   9.584  -2.385  0.00  0.00    +0.022 C 
ATOM     33  C   UNL     1     -11.682   9.859  -2.246  0.00  0.00    +0.106 C 
ENDBRANCH  31  33
BRANCH  31  34
ATOM     34  C   UNL     1     -10.857   8.059  -0.659  0.00  0.00    +0.106 C 
ATOM     35  C   UNL     1      -9.653   8.693   0.040  0.00  0.00    +0.022 C 
ENDBRANCH  31  34
ENDBRANCH  28  31
ENDBRANCH   1  28
BRANCH   9  36
ATOM     36  O   UNL     1      -2.557   9.722  -3.525  0.00  0.00    -0.492 OA
ATOM     37  H   UNL     1      -2.082   9.319  -4.264  0.00  0.00    +0.294 HD
ENDBRANCH   9  36
TORSDOF 9
