REMARK  Name = ZINC12590658
REMARK  14 active torsions:
REMARK  status: ('A' for Active; 'I' for Inactive)
REMARK    1  A    between atoms: C_1  and  C_2
REMARK    2  A    between atoms: C_2  and  C_3
REMARK    3  A    between atoms: C_3  and  N_4
REMARK    4  A    between atoms: N_4  and  C_5
REMARK    5  A    between atoms: C_6  and  N_21
REMARK    6  A    between atoms: N_7  and  C_14
REMARK    7  A    between atoms: C_14  and  C_15
REMARK    8  A    between atoms: C_22  and  C_24
REMARK    9  A    between atoms: C_24  and  S_25
REMARK   10  A    between atoms: S_25  and  C_26
REMARK   11  A    between atoms: C_27  and  C_35
REMARK   12  A    between atoms: C_28  and  C_34
REMARK   13  A    between atoms: C_29  and  C_33
REMARK   14  A    between atoms: C_30  and  C_32
REMARK                            x       y       z     vdW  Elec       q    Type
REMARK                         _______ _______ _______ _____ _____    ______ ____
ROOT
ATOM      1  N   UNL     1       4.277   1.896   5.165  0.00  0.00    -0.264 N 
ATOM      2  C   UNL     1       2.982   2.008   5.530  0.00  0.00    +0.230 C 
ATOM      3  O   UNL     1       2.694   2.192   6.694  0.00  0.00    -0.274 OA
ENDROOT
BRANCH   1   4
ATOM      4  C   UNL     1       5.298   2.090   6.120  0.00  0.00    +0.140 A 
ATOM      5  C   UNL     1       5.461   3.314   6.734  0.00  0.00    +0.128 A 
ATOM      6  N   UNL     1       6.463   3.471   7.663  0.00  0.00    -0.276 N 
ATOM      7  C   UNL     1       7.281   2.445   7.963  0.00  0.00    +0.331 A 
ATOM      8  O   UNL     1       8.163   2.605   8.784  0.00  0.00    -0.246 OA
ATOM      9  N   UNL     1       7.140   1.246   7.370  0.00  0.00    -0.273 N 
ATOM     10  H   UNL     1       7.761   0.500   7.610  0.00  0.00    +0.173 HD
ATOM     11  C   UNL     1       6.172   1.038   6.456  0.00  0.00    +0.277 A 
ATOM     12  O   UNL     1       6.052  -0.053   5.925  0.00  0.00    -0.266 OA
BRANCH   5  13
ATOM     13  N   UNL     1       4.629   4.364   6.425  0.00  0.00    -0.343 N 
ATOM     14  H   UNL     1       3.994   4.280   5.697  0.00  0.00    +0.144 HD
ATOM     15  H   UNL     1       4.678   5.187   6.935  0.00  0.00    +0.144 HD
ENDBRANCH   5  13
BRANCH   6  16
ATOM     16  C   UNL     1       6.645   4.764   8.328  0.00  0.00    +0.163 C 
BRANCH  16  17
ATOM     17  C   UNL     1       7.594   5.613   7.522  0.00  0.00    -0.028 A 
ATOM     18  C   UNL     1       8.953   5.560   7.775  0.00  0.00    +0.005 A 
ATOM     19  C   UNL     1       9.824   6.336   7.033  0.00  0.00    +0.000 A 
ATOM     20  C   UNL     1       9.336   7.172   6.046  0.00  0.00    +0.000 A 
ATOM     21  C   UNL     1       7.978   7.229   5.797  0.00  0.00    +0.000 A 
ATOM     22  C   UNL     1       7.107   6.449   6.536  0.00  0.00    +0.005 A 
ENDBRANCH  16  17
ENDBRANCH   6  16
ENDBRANCH   1   4
BRANCH   1  23
ATOM     23  C   UNL     1       4.622   1.574   3.779  0.00  0.00    +0.114 C 
BRANCH  23  25
ATOM     24  C   UNL     1       5.174   2.532   1.538  0.00  0.00    +0.005 C 
ATOM     25  C   UNL     1       4.814   2.869   2.987  0.00  0.00    +0.016 C 
ENDBRANCH  23  25
ENDBRANCH   1  23
BRANCH   2  26
ATOM     26  C   UNL     1       1.895   1.904   4.492  0.00  0.00    +0.172 C 
BRANCH  26  27
ATOM     27  S   UNL     1       0.281   2.093   5.288  0.00  0.00    -0.095 S 
BRANCH  27  28
ATOM     28  C   UNL     1      -0.773   1.934   3.885  0.00  0.00    +0.115 A 
ATOM     29  C   UNL     1      -2.168   2.020   4.044  0.00  0.00    +0.087 A 
ATOM     30  C   UNL     1      -2.984   1.891   2.914  0.00  0.00    -0.026 A 
ATOM     31  C   UNL     1      -2.379   1.689   1.686  0.00  0.00    -0.025 A 
ATOM     32  C   UNL     1      -1.000   1.610   1.610  0.00  0.00    +0.043 A 
ATOM     33  N   UNL     1      -0.247   1.734   2.686  0.00  0.00    -0.244 NA
ATOM     34  C   UNL     1      -0.345   1.384   0.272  0.00  0.00    +0.066 C 
ATOM     35  C   UNL     1      -3.217   1.550   0.441  0.00  0.00    +0.046 C 
ATOM     36  C   UNL     1      -4.484   1.975   3.032  0.00  0.00    +0.045 C 
BRANCH  29  37
ATOM     37  C   UNL     1      -2.742   2.236   5.338  0.00  0.00    +0.102 C 
ATOM     38  N   UNL     1      -3.198   2.408   6.364  0.00  0.00    -0.191 NA
ENDBRANCH  29  37
ENDBRANCH  27  28
ENDBRANCH  26  27
ENDBRANCH   2  26
TORSDOF 10
