REMARK  Name = ZINC37324013
REMARK  3 active torsions:
REMARK  status: ('A' for Active; 'I' for Inactive)
REMARK    1  A    between atoms: C_1  and  C_2
REMARK    2  A    between atoms: N_11  and  C_12
REMARK    3  A    between atoms: CA_16  and  C_18
REMARK                            x       y       z     vdW  Elec       q    Type
REMARK                         _______ _______ _______ _____ _____    ______ ____
ROOT
ATOM      1  C   UNL     1       0.188   1.502  -0.038  0.00  0.00    +0.044 C 
ATOM      2  C   UNL     1       0.153  -0.005  -0.034  0.00  0.00    -0.050 A 
ATOM      3  C   UNL     1       0.157  -0.699  -1.230  0.00  0.00    +0.005 A 
ATOM      4  C   UNL     1       0.124  -2.079  -1.226  0.00  0.00    +0.024 A 
ATOM      5  C   UNL     1       0.088  -2.770  -0.019  0.00  0.00    +0.037 A 
ATOM      6  C   UNL     1       0.087  -2.074   1.179  0.00  0.00    -0.026 A 
ATOM      7  C   UNL     1       0.124  -0.690   1.165  0.00  0.00    +0.008 A 
ATOM      8  C   UNL     1       0.059  -2.789   2.504  0.00  0.00    +0.038 C 
ATOM      9  C   UNL     1      -0.471  -4.212   2.333  0.00  0.00    +0.024 C 
ATOM     10  C   UNL     1       0.313  -4.902   1.209  0.00  0.00    +0.111 C 
ATOM     11  N   UNL     1       0.050  -4.169  -0.037  0.00  0.00    -0.300 N 
ENDROOT
BRANCH  11  12
ATOM     12  C   UNL     1      -0.233  -4.855  -1.215  0.00  0.00    +0.037 A 
ATOM     13  C   UNL     1       0.739  -5.637  -1.838  0.00  0.00    +0.041 A 
ATOM     14  C   UNL     1       0.424  -6.304  -3.007  0.00  0.00    +0.085 A 
ATOM     15  N   UNL     1      -0.777  -6.211  -3.538  0.00  0.00    -0.355 N 
ATOM     16  CA  UNL     1      -1.735  -5.478  -2.981  0.00  0.00    +0.130 A 
ATOM     17  C   UNL     1      -1.497  -4.782  -1.800  0.00  0.00    +0.056 A 
ATOM     18  H   UNL     1      -0.968  -6.691  -4.359  0.00  0.00    +0.166 HD
BRANCH  16  19
ATOM     19  C   UNL     1      -3.068  -5.406  -3.618  0.00  0.00    +0.402 C 
ATOM     20  O   UNL     1      -3.284  -6.019  -4.653  0.00  0.00    -0.239 OA
ATOM     21  OXT UNL     1      -3.953  -4.733  -3.110  0.00  0.00    -0.239 OA
ENDBRANCH  16  19
ENDBRANCH  11  12
TORSDOF 2
