REMARK  Name = ZINC66111053
REMARK  11 active torsions:
REMARK  status: ('A' for Active; 'I' for Inactive)
REMARK    1  A    between atoms: C_1  and  C_2
REMARK    2  A    between atoms: C_3  and  N_14
REMARK    3  A    between atoms: C_7  and  N_8
REMARK    4  A    between atoms: C_9  and  C_11
REMARK    5  A    between atoms: N_14  and  C_15
REMARK    6  A    between atoms: C_15  and  C_16
REMARK    7  A    between atoms: N_18  and  C_19
REMARK    8  A    between atoms: C_24  and  O_25
REMARK    9  A    between atoms: O_25  and  C_26
REMARK   10  A    between atoms: C_26  and  C_27
REMARK   11  A    between atoms: C_27  and  C_29
REMARK                            x       y       z     vdW  Elec       q    Type
REMARK                         _______ _______ _______ _____ _____    ______ ____
ROOT
ATOM      1  N   UNL     1      -0.105  -0.115  -2.170  0.00  0.00    -0.335 N 
ATOM      2  H   UNL     1      -0.106   0.854  -2.213  0.00  0.00    +0.147 HD
ENDROOT
BRANCH   1   5
ATOM      3  C   UNL     1      -0.017   1.493   0.174  0.00  0.00    +0.047 C 
ATOM      4  C   UNL     1      -0.015  -0.012   0.239  0.00  0.00    -0.008 A 
ATOM      5  C   UNL     1      -0.059  -0.759  -0.931  0.00  0.00    +0.032 A 
ATOM      6  C   UNL     1      -0.057  -2.147  -0.868  0.00  0.00    +0.023 A 
ATOM      7  C   UNL     1      -0.012  -2.784   0.357  0.00  0.00    +0.004 A 
ATOM      8  C   UNL     1       0.032  -2.044   1.523  0.00  0.00    +0.024 A 
ATOM      9  C   UNL     1       0.036  -0.655   1.467  0.00  0.00    +0.038 A 
BRANCH   9  10
ATOM     10  N   UNL     1       0.085   0.093   2.648  0.00  0.00    -0.285 N 
ATOM     11  C   UNL     1      -0.541  -0.352   3.755  0.00  0.00    +0.220 C 
ATOM     12  O   UNL     1      -1.074  -1.442   3.753  0.00  0.00    -0.275 OA
ATOM     13  H   UNL     1       0.571   0.933   2.670  0.00  0.00    +0.155 HD
BRANCH  11  14
ATOM     14  C   UNL     1      -0.579   0.503   4.995  0.00  0.00    +0.075 C 
ATOM     15  C   UNL     1       0.223   0.025   6.207  0.00  0.00    +0.013 C 
ATOM     16  C   UNL     1      -1.305  -0.059   6.219  0.00  0.00    +0.013 C 
ENDBRANCH  11  14
ENDBRANCH   9  10
ENDBRANCH   1   5
BRANCH   1  17
ATOM     17  C   UNL     1      -0.151  -0.904  -3.404  0.00  0.00    +0.198 C 
BRANCH  17  18
ATOM     18  C   UNL     1      -0.195   0.023  -4.591  0.00  0.00    +0.234 C 
ATOM     19  O   UNL     1      -0.189   1.225  -4.423  0.00  0.00    -0.274 OA
ATOM     20  N   UNL     1      -0.241  -0.482  -5.839  0.00  0.00    -0.281 N 
ATOM     21  H   UNL     1      -0.328  -1.439  -5.972  0.00  0.00    +0.155 HD
BRANCH  20  22
ATOM     22  C   UNL     1      -0.165   0.374  -6.946  0.00  0.00    +0.076 A 
ATOM     23  C   UNL     1       0.453   1.611  -6.826  0.00  0.00    +0.027 A 
ATOM     24  C   UNL     1       0.528   2.454  -7.918  0.00  0.00    +0.002 A 
ATOM     25  C   UNL     1      -0.012   2.068  -9.132  0.00  0.00    +0.004 A 
ATOM     26  C   UNL     1      -0.628   0.838  -9.259  0.00  0.00    +0.047 A 
ATOM     27  C   UNL     1      -0.703  -0.016  -8.170  0.00  0.00    +0.142 A 
BRANCH  27  28
ATOM     28  O   UNL     1      -1.304  -1.229  -8.294  0.00  0.00    -0.486 OA
BRANCH  28  29
ATOM     29  C   UNL     1      -1.833  -1.562  -9.579  0.00  0.00    +0.259 C 
BRANCH  29  30
ATOM     30  C   UNL     1      -2.456  -2.933  -9.526  0.00  0.00    -0.043 C 
ATOM     31  C   UNL     1      -2.447  -3.614  -8.407  0.00  0.00    +0.011 C 
ATOM     32  C   UNL     1      -3.089  -3.522 -10.761  0.00  0.00    +0.042 C 
ENDBRANCH  29  30
ENDBRANCH  28  29
ENDBRANCH  27  28
ENDBRANCH  20  22
ENDBRANCH  17  18
ENDBRANCH   1  17
TORSDOF 9
