REMARK  Name = ZINC39510359
REMARK  6 active torsions:
REMARK  status: ('A' for Active; 'I' for Inactive)
REMARK    1  A    between atoms: C_1  and  O_2
REMARK    2  A    between atoms: O_2  and  N_3
REMARK    3  A    between atoms: C_7  and  C_22
REMARK    4  A    between atoms: C_12  and  C_15
REMARK    5  A    between atoms: C_20  and  O_21
REMARK    6  A    between atoms: C_27  and  O_28
REMARK                            x       y       z     vdW  Elec       q    Type
REMARK                         _______ _______ _______ _____ _____    ______ ____
ROOT
ATOM      1  N   UNL     1       0.814  -0.912   1.276  0.00  0.00    -0.182 NA
ATOM      2  C   UNL     1      -0.191  -1.648   2.055  0.00  0.00    +0.115 C 
ATOM      3  C   UNL     1       0.501  -2.427   3.175  0.00  0.00    +0.018 C 
ATOM      4  C   UNL     1       1.508  -3.406   2.564  0.00  0.00    +0.011 C 
ATOM      5  C   UNL     1       2.519  -2.625   1.721  0.00  0.00    +0.045 C 
ATOM      6  C   UNL     1       1.777  -1.823   0.653  0.00  0.00    +0.054 C 
ATOM      7  C   UNL     1       1.054  -2.777  -0.309  0.00  0.00    +0.026 C 
ATOM      8  C   UNL     1       1.650  -2.522  -1.710  0.00  0.00    +0.010 C 
ATOM      9  C   UNL     1       2.213  -1.081  -1.626  0.00  0.00    +0.024 C 
ATOM     10  C   UNL     1       2.786  -1.020  -0.188  0.00  0.00    +0.033 C 
ENDROOT
BRANCH   9  11
ATOM     11  C   UNL     1       3.301  -0.873  -2.648  0.00  0.00    -0.003 A 
ATOM     12  C   UNL     1       4.502  -1.545  -2.526  0.00  0.00    +0.007 A 
ATOM     13  C   UNL     1       5.501  -1.354  -3.462  0.00  0.00    +0.001 A 
ATOM     14  C   UNL     1       5.301  -0.491  -4.524  0.00  0.00    +0.004 A 
ATOM     15  C   UNL     1       4.101   0.183  -4.651  0.00  0.00    +0.046 A 
ATOM     16  C   UNL     1       3.096  -0.011  -3.715  0.00  0.00    +0.120 A 
BRANCH  16  17
ATOM     17  O   UNL     1       1.913   0.647  -3.841  0.00  0.00    -0.506 OA
ATOM     18  H   UNL     1       1.892   1.506  -3.398  0.00  0.00    +0.292 HD
ENDBRANCH  16  17
ENDBRANCH   9  11
BRANCH   5  19
ATOM     19  C   UNL     1       3.470  -3.587   1.057  0.00  0.00    -0.001 A 
ATOM     20  C   UNL     1       3.754  -3.461  -0.289  0.00  0.00    +0.007 A 
ATOM     21  C   UNL     1       4.626  -4.344  -0.898  0.00  0.00    +0.001 A 
ATOM     22  C   UNL     1       5.217  -5.355  -0.163  0.00  0.00    +0.004 A 
ATOM     23  C   UNL     1       4.937  -5.485   1.184  0.00  0.00    +0.046 A 
ATOM     24  C   UNL     1       4.066  -4.597   1.799  0.00  0.00    +0.120 A 
BRANCH  24  25
ATOM     25  O   UNL     1       3.793  -4.719   3.124  0.00  0.00    -0.506 OA
ATOM     26  H   UNL     1       3.039  -5.292   3.320  0.00  0.00    +0.292 HD
ENDBRANCH  24  25
ENDBRANCH   5  19
BRANCH   1  28
ATOM     27  C   UNL     1       0.390   1.340   0.481  0.00  0.00    +0.221 C 
ATOM     28  O   UNL     1       0.177  -0.058   0.273  0.00  0.00    -0.300 OA
ENDBRANCH   1  28
TORSDOF 5
