REMARK  Name = ZINC36718396
REMARK  6 active torsions:
REMARK  status: ('A' for Active; 'I' for Inactive)
REMARK    1  A    between atoms: C_8  and  C_19
REMARK    2  A    between atoms: C_12  and  C_14
REMARK    3  A    between atoms: C_19  and  O_21
REMARK    4  A    between atoms: O_21  and  C_22
REMARK    5  A    between atoms: C_25  and  N_28
REMARK    6  A    between atoms: C_29  and  C_31
REMARK                            x       y       z     vdW  Elec       q    Type
REMARK                         _______ _______ _______ _____ _____    ______ ____
ROOT
ATOM      1  C   UNL     1       3.180  -4.161   1.506  0.00  0.00    +0.333 C 
ATOM      2  O   UNL     1       4.061  -4.672   0.856  0.00  0.00    -0.248 OA
ENDROOT
BRANCH   1  10
ATOM      3  C   UNL     1       1.530   1.597   3.056  0.00  0.00    +0.000 A 
ATOM      4  C   UNL     1       0.643   1.792   2.014  0.00  0.00    +0.000 A 
ATOM      5  C   UNL     1       0.424   0.779   1.103  0.00  0.00    +0.005 A 
ATOM      6  C   UNL     1       1.086  -0.435   1.227  0.00  0.00    -0.027 A 
ATOM      7  C   UNL     1       1.963  -0.634   2.269  0.00  0.00    -0.040 A 
ATOM      8  C   UNL     1       2.187   0.391   3.181  0.00  0.00    +0.004 A 
ATOM      9  C   UNL     1       2.694  -1.933   2.486  0.00  0.00    +0.069 C 
ATOM     10  C   UNL     1       2.735  -2.755   1.199  0.00  0.00    +0.190 C 
ATOM     11  N   UNL     1       1.377  -2.774   0.630  0.00  0.00    -0.277 N 
ATOM     12  C   UNL     1       0.813  -1.494   0.189  0.00  0.00    +0.144 C 
ATOM     13  C   UNL     1       0.680  -3.923   0.518  0.00  0.00    +0.283 C 
ATOM     14  O   UNL     1       1.096  -4.940   1.042  0.00  0.00    -0.267 OA
BRANCH  13  15
ATOM     15  C   UNL     1      -0.578  -3.947  -0.234  0.00  0.00    +0.189 A 
ATOM     16  C   UNL     1      -1.449  -4.996  -0.308  0.00  0.00    +0.054 A 
ATOM     17  C   UNL     1      -2.510  -4.582  -1.128  0.00  0.00    +0.042 A 
ATOM     18  C   UNL     1      -2.244  -3.315  -1.514  0.00  0.00    +0.196 A 
ATOM     19  O   UNL     1      -1.081  -2.934  -0.970  0.00  0.00    -0.458 OA
ENDBRANCH  13  15
ENDBRANCH   1  10
BRANCH   1  20
ATOM     20  O   UNL     1       2.598  -4.847   2.502  0.00  0.00    -0.425 OA
BRANCH  20  21
ATOM     21  C   UNL     1       2.996  -6.130   2.712  0.00  0.00    +0.132 A 
ATOM     22  C   UNL     1       4.212  -6.387   3.329  0.00  0.00    +0.048 A 
ATOM     23  C   UNL     1       4.617  -7.689   3.542  0.00  0.00    +0.027 A 
ATOM     24  C   UNL     1       3.807  -8.743   3.140  0.00  0.00    +0.034 A 
ATOM     25  C   UNL     1       2.589  -8.485   2.524  0.00  0.00    +0.027 A 
ATOM     26  C   UNL     1       2.183  -7.182   2.316  0.00  0.00    +0.048 A 
BRANCH  24  27
ATOM     27  N   UNL     1       4.217 -10.064   3.356  0.00  0.00    -0.281 N 
ATOM     28  C   UNL     1       4.946 -10.373   4.446  0.00  0.00    +0.255 C 
ATOM     29  O   UNL     1       5.168  -9.526   5.291  0.00  0.00    -0.269 OA
ATOM     30  H   UNL     1       3.976 -10.756   2.721  0.00  0.00    +0.155 HD
BRANCH  28  31
ATOM     31  C   UNL     1       5.474 -11.730   4.614  0.00  0.00    +0.074 A 
ATOM     32  C   UNL     1       6.233 -12.251   5.651  0.00  0.00    +0.021 A 
ATOM     33  C   UNL     1       6.583 -13.575   5.528  0.00  0.00    +0.008 A 
ATOM     34  C   UNL     1       6.176 -14.265   4.434  0.00  0.00    +0.046 A 
ATOM     35  S   UNL     1       5.299 -13.144   3.541  0.00  0.00    -0.092 S 
ENDBRANCH  28  31
ENDBRANCH  24  27
ENDBRANCH  20  21
ENDBRANCH   1  20
TORSDOF 6
