REMARK  Name = ZINC02919403
REMARK  5 active torsions:
REMARK  status: ('A' for Active; 'I' for Inactive)
REMARK    1  A    between atoms: C_1  and  C_2
REMARK    2  A    between atoms: C_2  and  C_3
REMARK    3  A    between atoms: C_2  and  C_4
REMARK    4  A    between atoms: C_7  and  C_10
REMARK    5  A    between atoms: C_13  and  C_21
REMARK                            x       y       z     vdW  Elec       q    Type
REMARK                         _______ _______ _______ _____ _____    ______ ____
ROOT
ATOM      1  C   UNL     1       2.707  -1.868  -4.752  0.00  0.00    +0.106 C 
ATOM      2  C   UNL     1       3.931  -0.988  -5.027  0.00  0.00    +0.059 C 
ATOM      3  C   UNL     1       4.863  -1.003  -3.809  0.00  0.00    +0.144 C 
ATOM      4  N   UNL     1       5.084  -2.389  -3.401  0.00  0.00    -0.226 N 
ATOM      5  C   UNL     1       4.287  -3.426  -3.755  0.00  0.00    +0.215 A 
ATOM      6  N   UNL     1       4.776  -4.513  -3.223  0.00  0.00    -0.202 NA
ATOM      7  C   UNL     1       5.877  -4.212  -2.525  0.00  0.00    +0.247 A 
ATOM      8  N   UNL     1       6.100  -2.924  -2.608  0.00  0.00    -0.156 NA
ATOM      9  N   UNL     1       3.157  -3.259  -4.552  0.00  0.00    -0.307 N 
ATOM     10  H   UNL     1       2.694  -4.011  -4.954  0.00  0.00    +0.149 HD
ENDROOT
BRANCH   3  11
ATOM     11  C   UNL     1       6.179  -0.365  -4.173  0.00  0.00    -0.005 A 
ATOM     12  C   UNL     1       6.947  -0.897  -5.192  0.00  0.00    +0.007 A 
ATOM     13  C   UNL     1       8.155  -0.312  -5.525  0.00  0.00    +0.000 A 
ATOM     14  C   UNL     1       8.594   0.806  -4.841  0.00  0.00    +0.001 A 
ATOM     15  C   UNL     1       7.827   1.339  -3.822  0.00  0.00    +0.020 A 
ATOM     16  C   UNL     1       6.616   0.757  -3.491  0.00  0.00    +0.046 A 
ATOM     17 CL   UNL     1       5.649   1.430  -2.216  0.00  0.00    -0.083 Cl
ENDBRANCH   3  11
BRANCH   1  21
ATOM     18  C   UNL     1       0.707  -0.490  -1.238  0.00  0.00    -0.045 A 
ATOM     19  C   UNL     1       0.222  -0.151  -2.487  0.00  0.00    +0.004 A 
ATOM     20  C   UNL     1       0.869  -0.597  -3.624  0.00  0.00    +0.006 A 
ATOM     21  C   UNL     1       2.002  -1.381  -3.513  0.00  0.00    -0.027 A 
ATOM     22  C   UNL     1       2.488  -1.720  -2.263  0.00  0.00    +0.006 A 
ATOM     23  C   UNL     1       1.843  -1.270  -1.126  0.00  0.00    +0.004 A 
BRANCH  18  25
ATOM     24  C   UNL     1      -0.019   1.526   0.010  0.00  0.00    +0.012 C 
ATOM     25  C   UNL     1       0.002  -0.004   0.002  0.00  0.00    +0.013 C 
ATOM     26  C   UNL     1      -1.433  -0.534   0.013  0.00  0.00    +0.012 C 
ENDBRANCH  18  25
ENDBRANCH   1  21
TORSDOF 3
