REMARK  Name = ZINC25585164
REMARK  7 active torsions:
REMARK  status: ('A' for Active; 'I' for Inactive)
REMARK    1  A    between atoms: C_1  and  C_2
REMARK    2  A    between atoms: C_2  and  C_24
REMARK    3  A    between atoms: C_3  and  C_4
REMARK    4  A    between atoms: C_6  and  C_11
REMARK    5  A    between atoms: C_8  and  C_9
REMARK    6  A    between atoms: C_8  and  C_10
REMARK    7  A    between atoms: N_13  and  C_14
REMARK                            x       y       z     vdW  Elec       q    Type
REMARK                         _______ _______ _______ _____ _____    ______ ____
ROOT
ATOM      1  C   UNL     1       3.566   3.194   0.090  0.00  0.00    +0.221 C 
ATOM      2  O   UNL     1       3.571   1.981   0.087  0.00  0.00    -0.275 OA
ATOM      3  N   UNL     1       2.399   3.863  -0.001  0.00  0.00    -0.284 N 
ATOM      4  H   UNL     1       2.399   4.959  -0.091  0.00  0.00    +0.155 HD
ENDROOT
BRANCH   3   5
ATOM      5  C   UNL     1       1.188   3.162   0.018  0.00  0.00    +0.059 A 
ATOM      6  C   UNL     1       1.112   1.920   0.621  0.00  0.00    +0.025 A 
ATOM      7  C   UNL     1      -0.087   1.220   0.644  0.00  0.00    +0.003 A 
ATOM      8  C   UNL     1      -1.210   1.740   0.070  0.00  0.00    +0.011 A 
ATOM      9  C   UNL     1      -1.164   2.999  -0.544  0.00  0.00    +0.021 A 
ATOM     10  C   UNL     1       0.046   3.714  -0.571  0.00  0.00    +0.087 A 
ATOM     11  N   UNL     1      -0.207   4.890  -1.231  0.00  0.00    -0.275 N 
ATOM     12  H   UNL     1       0.600   5.623  -1.378  0.00  0.00    +0.189 HD
ATOM     13  N   UNL     1      -1.557   4.897  -1.603  0.00  0.00    -0.181 NA
ATOM     14  C   UNL     1      -2.128   3.796  -1.208  0.00  0.00    +0.142 A 
ENDBRANCH   3   5
BRANCH   1  16
ATOM     15  C   UNL     1       5.765   3.986  -1.040  0.00  0.00    +0.030 C 
ATOM     16  C   UNL     1       4.863   3.953   0.196  0.00  0.00    +0.089 C 
ATOM     17  C   UNL     1       6.160   3.142   0.174  0.00  0.00    -0.016 C 
ATOM     18  C   UNL     1       7.321   3.643   1.035  0.00  0.00    +0.012 C 
ATOM     19  C   UNL     1       6.041   1.622   0.047  0.00  0.00    +0.012 C 
BRANCH  15  22
ATOM     20  C   UNL     1       7.152   4.273  -3.475  0.00  0.00    +0.038 C 
ATOM     21  C   UNL     1       5.933   3.389  -3.401  0.00  0.00    -0.079 C 
ATOM     22  C   UNL     1       5.288   3.256  -2.269  0.00  0.00    -0.023 C 
ATOM     23  C   UNL     1       5.456   2.660  -4.631  0.00  0.00    +0.038 C 
ENDBRANCH  15  22
ENDBRANCH   1  16
TORSDOF 3
