REMARK  Name = ZINC67308590
REMARK  7 active torsions:
REMARK  status: ('A' for Active; 'I' for Inactive)
REMARK    1  A    between atoms: C_1  and  C_2
REMARK    2  A    between atoms: C_2  and  C_3
REMARK    3  A    between atoms: C_3  and  C_5
REMARK    4  A    between atoms: C_3  and  N_11
REMARK    5  A    between atoms: N_14  and  C_15
REMARK    6  A    between atoms: C_18  and  C_24
REMARK    7  A    between atoms: C_19  and  C_21
REMARK                            x       y       z     vdW  Elec       q    Type
REMARK                         _______ _______ _______ _____ _____    ______ ____
ROOT
ATOM      1  N   UNL     1      -2.214  -0.120   1.012  0.00  0.00    -0.296 N 
ATOM      2  C   UNL     1      -2.748   1.101   1.219  0.00  0.00    +0.304 C 
ATOM      3  O   UNL     1      -2.678   1.949   0.351  0.00  0.00    -0.253 OA
ATOM      4  N   UNL     1      -3.359   1.380   2.387  0.00  0.00    -0.269 N 
ATOM      5  H   UNL     1      -2.269  -0.797   1.704  0.00  0.00    +0.151 HD
ATOM      6  H   UNL     1      -3.478   0.682   3.051  0.00  0.00    +0.156 HD
ENDROOT
BRANCH   4   7
ATOM      7  C   UNL     1      -3.822   2.676   2.643  0.00  0.00    +0.035 A 
ATOM      8  C   UNL     1      -4.343   3.444   1.609  0.00  0.00    +0.023 A 
ATOM      9  C   UNL     1      -4.802   4.724   1.856  0.00  0.00    +0.006 A 
ATOM     10  C   UNL     1      -4.745   5.248   3.131  0.00  0.00    -0.038 A 
ATOM     11  C   UNL     1      -4.223   4.485   4.177  0.00  0.00    +0.041 A 
ATOM     12  C   UNL     1      -3.765   3.191   3.928  0.00  0.00    +0.036 A 
ATOM     13  C   UNL     1      -5.245   6.645   3.395  0.00  0.00    +0.044 C 
BRANCH  11  14
ATOM     14  C   UNL     1      -4.161   5.044   5.544  0.00  0.00    +0.242 C 
ATOM     15  O   UNL     1      -4.494   6.195   5.746  0.00  0.00    -0.270 OA
ATOM     16  N   UNL     1      -3.735   4.276   6.567  0.00  0.00    -0.325 N 
ATOM     17  H   UNL     1      -3.469   3.357   6.406  0.00  0.00    +0.145 HD
ATOM     18  H   UNL     1      -3.694   4.643   7.464  0.00  0.00    +0.145 HD
ENDBRANCH  11  14
ENDBRANCH   4   7
BRANCH   1  19
ATOM     19  C   UNL     1      -1.550  -0.423  -0.258  0.00  0.00    +0.077 C 
BRANCH  19  20
ATOM     20  C   UNL     1      -1.593  -1.932  -0.508  0.00  0.00    +0.009 C 
ATOM     21  C   UNL     1      -0.899  -2.249  -1.835  0.00  0.00    +0.005 C 
ATOM     22  C   UNL     1      -0.942  -3.757  -2.085  0.00  0.00    +0.000 C 
ATOM     23  C   UNL     1      -2.398  -4.223  -2.147  0.00  0.00    +0.000 C 
ATOM     24  C   UNL     1      -3.092  -3.906  -0.821  0.00  0.00    +0.000 C 
ATOM     25  C   UNL     1      -3.049  -2.397  -0.571  0.00  0.00    +0.005 C 
ENDBRANCH  19  20
BRANCH  19  27
ATOM     26  C   UNL     1      -0.050   1.567  -0.070  0.00  0.00    +0.006 C 
ATOM     27  C   UNL     1      -0.093   0.042  -0.196  0.00  0.00    +0.019 C 
ENDBRANCH  19  27
ENDBRANCH   1  19
TORSDOF 5
