REMARK  Name = ZINC10506023
REMARK  5 active torsions:
REMARK  status: ('A' for Active; 'I' for Inactive)
REMARK    1  A    between atoms: C_2  and  C_9
REMARK    2  A    between atoms: N_11  and  C_12
REMARK    3  A    between atoms: C_12  and  N_14
REMARK    4  A    between atoms: N_14  and  N_15
REMARK    5  A    between atoms: C_16  and  C_18
REMARK                            x       y       z     vdW  Elec       q    Type
REMARK                         _______ _______ _______ _____ _____    ______ ____
ROOT
ATOM      1  C   UNL     1      -1.265   7.330   0.049  0.00  0.00    +0.153 C 
ATOM      2  S   UNL     1       0.206   8.206   0.038  0.00  0.00    -0.017 S 
ENDROOT
BRANCH   1   5
ATOM      3  C   UNL     1      -0.070   5.324   0.029  0.00  0.00    +0.250 C 
ATOM      4  O   UNL     1       0.974   5.946   0.021  0.00  0.00    -0.270 OA
ATOM      5  N   UNL     1      -1.246   5.982   0.043  0.00  0.00    -0.263 N 
ATOM      6  H   UNL     1      -2.080   5.486   0.049  0.00  0.00    +0.157 HD
BRANCH   3   8
ATOM      7  C   UNL     1      -1.248   3.129   0.030  0.00  0.00    +0.033 A 
ATOM      8  C   UNL     1      -0.050   3.846   0.022  0.00  0.00    +0.040 A 
ATOM      9  C   UNL     1       1.167   3.162   0.007  0.00  0.00    +0.033 A 
ATOM     10  C   UNL     1       1.179   1.782   0.000  0.00  0.00    +0.043 A 
ATOM     11  C   UNL     1      -0.013   1.076   0.008  0.00  0.00    +0.040 A 
ATOM     12  C   UNL     1      -1.222   1.749   0.017  0.00  0.00    +0.043 A 
ATOM     13 CL   UNL     1      -2.711   0.855   0.019  0.00  0.00    -0.083 Cl
ATOM     14 CL   UNL     1       2.691   0.929  -0.018  0.00  0.00    -0.083 Cl
ENDBRANCH   3   8
ENDBRANCH   1   5
BRANCH   1  15
ATOM     15  N   UNL     1      -2.441   7.988   0.063  0.00  0.00    -0.246 N 
ATOM     16  H   UNL     1      -2.454   8.957   0.068  0.00  0.00    +0.172 HD
BRANCH  15  17
ATOM     17  N   UNL     1      -3.644   7.271   0.072  0.00  0.00    -0.235 N 
ATOM     18  C   UNL     1      -4.821   7.929   0.086  0.00  0.00    +0.232 C 
ATOM     19  O   UNL     1      -4.837   9.141   0.091  0.00  0.00    -0.274 OA
ATOM     20  H   UNL     1      -3.631   6.301   0.067  0.00  0.00    +0.173 HD
BRANCH  18  21
ATOM     21  C   UNL     1      -6.115   7.157   0.095  0.00  0.00    +0.076 C 
ATOM     22  C   UNL     1      -6.197   6.282  -1.157  0.00  0.00    +0.013 C 
ATOM     23  C   UNL     1      -7.511   5.499  -1.148  0.00  0.00    +0.001 C 
ATOM     24  C   UNL     1      -8.687   6.478  -1.132  0.00  0.00    +0.000 C 
ATOM     25  C   UNL     1      -8.606   7.353   0.120  0.00  0.00    +0.001 C 
ATOM     26  C   UNL     1      -7.292   8.136   0.111  0.00  0.00    +0.013 C 
ENDBRANCH  18  21
ENDBRANCH  15  17
ENDBRANCH   1  15
TORSDOF 5
