REMARK  Name = ZINC09944419
REMARK  12 active torsions:
REMARK  status: ('A' for Active; 'I' for Inactive)
REMARK    1  A    between atoms: C_1  and  C_2
REMARK    2  A    between atoms: C_2  and  C_3
REMARK    3  A    between atoms: C_2  and  C_4
REMARK    4  A    between atoms: C_4  and  C_6
REMARK    5  A    between atoms: C_4  and  S_12
REMARK    6  A    between atoms: S_12  and  C_13
REMARK    7  A    between atoms: C_16  and  C_19
REMARK    8  A    between atoms: N_17  and  C_18
REMARK    9  A    between atoms: C_26  and  C_29
REMARK   10  A    between atoms: C_29  and  C_30
REMARK   11  A    between atoms: C_29  and  C_31
REMARK   12  A    between atoms: C_29  and  C_32
REMARK                            x       y       z     vdW  Elec       q    Type
REMARK                         _______ _______ _______ _____ _____    ______ ____
ROOT
ATOM      1  C   UNL     1       0.002  -0.004   0.002  0.00  0.00    +0.192 A 
ATOM      2  N   UNL     1      -0.016   1.309   0.009  0.00  0.00    -0.122 NA
ATOM      3  N   UNL     1       1.184   1.768   0.000  0.00  0.00    -0.128 NA
ATOM      4  C   UNL     1       2.045   0.774  -0.013  0.00  0.00    +0.171 A 
ATOM      5  N   UNL     1       1.313  -0.392  -0.013  0.00  0.00    -0.305 N 
ATOM      6  C   UNL     1       1.831  -1.762  -0.025  0.00  0.00    +0.153 C 
ENDROOT
BRANCH   4   7
ATOM      7  C   UNL     1       3.513   0.887  -0.026  0.00  0.00    +0.057 A 
ATOM      8  C   UNL     1       4.292   1.977  -0.308  0.00  0.00    +0.023 A 
ATOM      9  C   UNL     1       5.676   1.865  -0.258  0.00  0.00    -0.036 A 
ATOM     10  C   UNL     1       6.181   0.641   0.068  0.00  0.00    -0.006 A 
ATOM     11  S   UNL     1       4.742  -0.364   0.314  0.00  0.00    -0.090 S 
ATOM     12  C   UNL     1       7.619   0.252   0.187  0.00  0.00    +0.043 C 
ATOM     13  C   UNL     1       8.463   1.535   0.245  0.00  0.00    +0.009 C 
ATOM     14  C   UNL     1       8.005   2.476  -0.873  0.00  0.00    -0.001 C 
ATOM     15  C   UNL     1       6.616   3.031  -0.554  0.00  0.00    +0.040 C 
BRANCH  14  16
ATOM     16  C   UNL     1       8.997   3.633  -1.001  0.00  0.00    -0.035 C 
ATOM     17  C   UNL     1       9.048   4.410   0.316  0.00  0.00    +0.011 C 
ATOM     18  C   UNL     1      10.387   3.080  -1.321  0.00  0.00    +0.011 C 
ATOM     19  C   UNL     1       8.549   4.567  -2.127  0.00  0.00    +0.011 C 
ENDBRANCH  14  16
ENDBRANCH   4   7
BRANCH   1  20
ATOM     20  S   UNL     1      -1.402  -1.068   0.010  0.00  0.00    -0.073 S 
BRANCH  20  21
ATOM     21  C   UNL     1      -2.729   0.163   0.028  0.00  0.00    +0.143 C 
BRANCH  21  22
ATOM     22  C   UNL     1      -4.059  -0.534   0.161  0.00  0.00    +0.234 C 
ATOM     23  O   UNL     1      -4.159  -1.708  -0.123  0.00  0.00    -0.274 OA
ATOM     24  N   UNL     1      -5.137   0.149   0.596  0.00  0.00    -0.239 N 
ATOM     25  C   UNL     1      -6.326  -0.474   0.714  0.00  0.00    +0.303 C 
ATOM     26  O   UNL     1      -6.426  -1.651   0.429  0.00  0.00    -0.253 OA
ATOM     27  N   UNL     1      -7.404   0.208   1.149  0.00  0.00    -0.313 N 
ATOM     28  H   UNL     1      -5.057   1.089   0.823  0.00  0.00    +0.159 HD
ATOM     29  H   UNL     1      -7.324   1.148   1.376  0.00  0.00    +0.146 HD
ATOM     30  H   UNL     1      -8.260  -0.240   1.234  0.00  0.00    +0.146 HD
ENDBRANCH  21  22
BRANCH  21  32
ATOM     31  C   UNL     1      -3.024   0.037  -2.450  0.00  0.00    +0.009 C 
ATOM     32  C   UNL     1      -2.700   0.963  -1.275  0.00  0.00    +0.005 C 
ATOM     33  C   UNL     1      -3.740   2.084  -1.209  0.00  0.00    +0.009 C 
ENDBRANCH  21  32
ENDBRANCH  20  21
ENDBRANCH   1  20
TORSDOF 6
