REMARK  Name = ZINC12413628
REMARK  8 active torsions:
REMARK  status: ('A' for Active; 'I' for Inactive)
REMARK    1  A    between atoms: C_1  and  C_2
REMARK    2  A    between atoms: C_2  and  C_3
REMARK    3  A    between atoms: N_8  and  S_9
REMARK    4  A    between atoms: S_9  and  C_12
REMARK    5  A    between atoms: C_15  and  N_18
REMARK    6  A    between atoms: N_18  and  S_19
REMARK    7  A    between atoms: S_19  and  C_22
REMARK    8  A    between atoms: N_31  and  C_32
REMARK                            x       y       z     vdW  Elec       q    Type
REMARK                         _______ _______ _______ _____ _____    ______ ____
ROOT
ATOM      1  C   UNL     1      -0.125   4.154  -0.049  0.00  0.00    +0.109 A 
ATOM      2  C   UNL     1       1.093   3.501  -0.112  0.00  0.00    +0.030 A 
ATOM      3  C   UNL     1       1.139   2.121  -0.096  0.00  0.00    +0.026 A 
ATOM      4  C   UNL     1      -0.039   1.389  -0.015  0.00  0.00    +0.048 A 
ATOM      5  C   UNL     1      -1.260   2.048   0.044  0.00  0.00    +0.026 A 
ATOM      6  C   UNL     1      -1.299   3.429   0.031  0.00  0.00    +0.030 A 
ENDROOT
BRANCH   1   7
ATOM      7  S   UNL     1      -0.180   5.915  -0.070  0.00  0.00    +0.074 S 
ATOM      8  O   UNL     1      -1.402   6.291   0.549  0.00  0.00    -0.150 OA
ATOM      9  O   UNL     1       1.083   6.367   0.400  0.00  0.00    -0.150 OA
BRANCH   7  15
ATOM     10  C   UNL     1      -3.411   5.612  -4.103  0.00  0.00    +0.103 A 
ATOM     11  N   UNL     1      -3.449   5.183  -2.858  0.00  0.00    -0.145 NA
ATOM     12  N   UNL     1      -2.507   5.391  -2.046  0.00  0.00    -0.125 NA
ATOM     13  C   UNL     1      -1.415   6.058  -2.398  0.00  0.00    +0.201 A 
ATOM     14  S   UNL     1      -1.816   6.426  -4.103  0.00  0.00    -0.034 S 
ATOM     15  N   UNL     1      -0.289   6.382  -1.655  0.00  0.00    -0.192 N 
ATOM     16  H   UNL     1       0.434   6.883  -2.065  0.00  0.00    +0.176 HD
BRANCH  10  18
ATOM     17  C   UNL     1      -5.391   6.650  -5.176  0.00  0.00    +0.011 C 
ATOM     18  C   UNL     1      -4.424   5.465  -5.209  0.00  0.00    +0.061 C 
ENDBRANCH  10  18
ENDBRANCH   7  15
ENDBRANCH   1   7
BRANCH   4  19
ATOM     19  N   UNL     1       0.005  -0.007   0.002  0.00  0.00    -0.216 N 
ATOM     20  H   UNL     1       0.564  -0.482  -0.632  0.00  0.00    +0.174 HD
BRANCH  19  21
ATOM     21  S   UNL     1      -0.898  -0.850   1.105  0.00  0.00    +0.072 S 
ATOM     22  O   UNL     1      -2.231  -0.372   0.989  0.00  0.00    -0.150 OA
ATOM     23  O   UNL     1      -0.563  -2.222   0.940  0.00  0.00    -0.150 OA
BRANCH  21  24
ATOM     24  C   UNL     1      -0.333  -0.383   2.707  0.00  0.00    +0.110 A 
ATOM     25  C   UNL     1       0.756  -1.018   3.279  0.00  0.00    +0.031 A 
ATOM     26  C   UNL     1       1.215  -0.663   4.526  0.00  0.00    +0.029 A 
ATOM     27  C   UNL     1       0.583   0.350   5.265  0.00  0.00    +0.059 A 
ATOM     28  C   UNL     1      -0.521   0.970   4.660  0.00  0.00    +0.043 A 
ATOM     29  C   UNL     1      -0.976   0.619   3.412  0.00  0.00    +0.046 A 
ATOM     30  S   UNL     1      -1.031   2.161   5.875  0.00  0.00    -0.027 S 
ATOM     31  C   UNL     1       0.208   1.800   7.108  0.00  0.00    +0.291 A 
ATOM     32  O   UNL     1       0.371   2.314   8.199  0.00  0.00    -0.259 OA
ATOM     33  N   UNL     1       0.918   0.813   6.526  0.00  0.00    -0.305 N 
ATOM     34  C   UNL     1       2.058   0.225   7.235  0.00  0.00    +0.153 C 
ENDBRANCH  21  24
ENDBRANCH  19  21
ENDBRANCH   4  19
TORSDOF 6
