REMARK  Name = ZINC19816152
REMARK  8 active torsions:
REMARK  status: ('A' for Active; 'I' for Inactive)
REMARK    1  A    between atoms: C_1  and  C_2
REMARK    2  A    between atoms: C_6  and  C_28
REMARK    3  A    between atoms: C_7  and  N_27
REMARK    4  A    between atoms: C_8  and  C_23
REMARK    5  A    between atoms: C_8  and  C_25
REMARK    6  A    between atoms: C_9  and  C_16
REMARK    7  A    between atoms: C_11  and  C_15
REMARK    8  A    between atoms: N_13  and  C_14
REMARK                            x       y       z     vdW  Elec       q    Type
REMARK                         _______ _______ _______ _____ _____    ______ ____
ROOT
ATOM      1  C   UNL     1       0.112  -0.547   0.773  0.00  0.00    +0.028 C 
ATOM      2  C   UNL     1      -0.453   0.047  -0.519  0.00  0.00    +0.077 C 
ATOM      3  C   UNL     1       0.433  -0.323  -1.683  0.00  0.00    -0.003 C 
ATOM      4  C   UNL     1       1.476   0.428  -1.982  0.00  0.00    -0.023 C 
ATOM      5  C   UNL     1       2.314   0.100  -3.163  0.00  0.00    +0.074 C 
ATOM      6  C   UNL     1       3.178   1.032  -3.640  0.00  0.00    +0.054 C 
ATOM      7  C   UNL     1       3.361   2.386  -3.023  0.00  0.00    +0.188 C 
ATOM      8  C   UNL     1       2.171   2.776  -2.146  0.00  0.00    +0.070 C 
ATOM      9  C   UNL     1       1.875   1.631  -1.175  0.00  0.00    +0.016 C 
ATOM     10  C   UNL     1       0.866   2.025  -0.121  0.00  0.00    +0.096 C 
ATOM     11  N   UNL     1      -0.475   1.518  -0.425  0.00  0.00    -0.298 NA
ATOM     12  C   UNL     1      -1.448   1.967   0.579  0.00  0.00    +0.105 C 
ATOM     13  C   UNL     1       3.176   1.292  -0.446  0.00  0.00    +0.018 C 
ENDROOT
BRANCH   8  14
ATOM     14  C   UNL     1       2.504   4.025  -1.370  0.00  0.00    -0.040 A 
ATOM     15  C   UNL     1       3.638   4.066  -0.581  0.00  0.00    +0.007 A 
ATOM     16  C   UNL     1       3.947   5.212   0.126  0.00  0.00    +0.038 A 
ATOM     17  C   UNL     1       3.114   6.316   0.053  0.00  0.00    +0.123 A 
ATOM     18  C   UNL     1       1.975   6.271  -0.733  0.00  0.00    +0.038 A 
ATOM     19  C   UNL     1       1.671   5.126  -1.444  0.00  0.00    +0.007 A 
ATOM     20  F   UNL     1       3.413   7.435   0.749  0.00  0.00    -0.205 F 
ENDBRANCH   8  14
BRANCH   6  21
ATOM     21  N   UNL     1       3.921   0.719  -4.743  0.00  0.00    -0.358 N 
ATOM     22  H   UNL     1       4.631   1.452  -5.154  0.00  0.00    +0.142 HD
ATOM     23  H   UNL     1       3.811  -0.266  -5.219  0.00  0.00    +0.142 HD
ENDBRANCH   6  21
BRANCH   7  24
ATOM     24  C   UNL     1       4.581   2.377  -2.200  0.00  0.00    +0.091 C 
ATOM     25  N   UNL     1       5.523   2.371  -1.566  0.00  0.00    -0.194 NA
ENDBRANCH   7  24
BRANCH   7  26
ATOM     26  C   UNL     1       3.514   3.384  -4.095  0.00  0.00    +0.091 C 
ATOM     27  N   UNL     1       3.632   4.154  -4.921  0.00  0.00    -0.194 NA
ENDBRANCH   7  26
BRANCH   5  28
ATOM     28  C   UNL     1       2.212  -1.183  -3.790  0.00  0.00    +0.101 C 
ATOM     29  N   UNL     1       2.131  -2.201  -4.288  0.00  0.00    -0.191 NA
ENDBRANCH   5  28
TORSDOF 5
