REMARK  Name = ZINC66631806
REMARK  7 active torsions:
REMARK  status: ('A' for Active; 'I' for Inactive)
REMARK    1  A    between atoms: C_1  and  C_2
REMARK    2  A    between atoms: C_2  and  C_4
REMARK    3  A    between atoms: C_2  and  N_20
REMARK    4  A    between atoms: C_4  and  C_5
REMARK    5  A    between atoms: N_7  and  C_8
REMARK    6  A    between atoms: C_11  and  C_14
REMARK    7  A    between atoms: C_21  and  C_23
REMARK                            x       y       z     vdW  Elec       q    Type
REMARK                         _______ _______ _______ _____ _____    ______ ____
ROOT
ATOM      1  C   UNL     1      -1.416  -2.034  -0.121  0.00  0.00    +0.219 C 
ATOM      2  O   UNL     1      -0.360  -2.622  -0.223  0.00  0.00    -0.275 OA
ATOM      3  N   UNL     1      -2.574  -2.724  -0.133  0.00  0.00    -0.285 N 
ATOM      4  H   UNL     1      -3.415  -2.262   0.015  0.00  0.00    +0.155 HD
ENDROOT
BRANCH   3   5
ATOM      5  C   UNL     1      -2.565  -4.104  -0.360  0.00  0.00    +0.033 A 
ATOM      6  C   UNL     1      -1.522  -4.880   0.130  0.00  0.00    +0.024 A 
ATOM      7  C   UNL     1      -1.511  -6.241  -0.093  0.00  0.00    +0.012 A 
ATOM      8  C   UNL     1      -2.546  -6.837  -0.810  0.00  0.00    +0.002 A 
ATOM      9  C   UNL     1      -3.591  -6.056  -1.301  0.00  0.00    +0.012 A 
ATOM     10  C   UNL     1      -3.601  -4.697  -1.072  0.00  0.00    +0.024 A 
BRANCH   8  11
ATOM     11  C   UNL     1      -2.535  -8.301  -1.052  0.00  0.00    +0.092 A 
ATOM     12  C   UNL     1      -3.509  -9.031  -1.762  0.00  0.00    +0.049 A 
ATOM     13  C   UNL     1      -3.137 -10.330  -1.758  0.00  0.00    +0.105 A 
ATOM     14  N   UNL     1      -1.976 -10.429  -1.076  0.00  0.00    -0.284 N 
ATOM     15  H   UNL     1      -1.478 -11.246  -0.914  0.00  0.00    +0.188 HD
ATOM     16  N   UNL     1      -1.612  -9.147  -0.645  0.00  0.00    -0.174 NA
ENDBRANCH   8  11
ENDBRANCH   3   5
BRANCH   1  17
ATOM     17  C   UNL     1      -1.433  -0.534   0.020  0.00  0.00    +0.118 C 
BRANCH  17  19
ATOM     18  C   UNL     1      -0.019   1.526   0.022  0.00  0.00    +0.028 C 
ATOM     19  C   UNL     1       0.002  -0.004   0.005  0.00  0.00    +0.079 C 
BRANCH  19  20
ATOM     20  N   UNL     1       0.716  -0.496   1.185  0.00  0.00    -0.312 N 
ATOM     21  C   UNL     1       2.059  -0.606   1.163  0.00  0.00    +0.216 C 
ATOM     22  O   UNL     1       2.677  -0.297   0.165  0.00  0.00    -0.276 OA
ATOM     23  H   UNL     1       0.223  -0.742   1.983  0.00  0.00    +0.149 HD
BRANCH  21  24
ATOM     24  C   UNL     1       2.795  -1.112   2.377  0.00  0.00    +0.075 C 
ATOM     25  C   UNL     1       2.519  -0.184   3.563  0.00  0.00    +0.013 C 
ATOM     26  C   UNL     1       3.265  -0.698   4.796  0.00  0.00    +0.001 C 
ATOM     27  C   UNL     1       4.768  -0.726   4.508  0.00  0.00    +0.000 C 
ATOM     28  C   UNL     1       5.043  -1.653   3.322  0.00  0.00    +0.001 C 
ATOM     29  C   UNL     1       4.297  -1.139   2.089  0.00  0.00    +0.013 C 
ENDBRANCH  21  24
ENDBRANCH  19  20
ENDBRANCH  17  19
ENDBRANCH   1  17
TORSDOF 6
