REMARK  Name = ZINC08853932
REMARK  8 active torsions:
REMARK  status: ('A' for Active; 'I' for Inactive)
REMARK    1  A    between atoms: C_6  and  C_7
REMARK    2  A    between atoms: C_7  and  S_8
REMARK    3  A    between atoms: S_8  and  C_9
REMARK    4  A    between atoms: C_11  and  C_14
REMARK    5  A    between atoms: C_14  and  C_15
REMARK    6  A    between atoms: N_17  and  C_18
REMARK    7  A    between atoms: C_18  and  C_19
REMARK    8  A    between atoms: C_19  and  C_20
REMARK                            x       y       z     vdW  Elec       q    Type
REMARK                         _______ _______ _______ _____ _____    ______ ____
ROOT
ATOM      1  C   UNL     1       1.244  -4.520  -1.450  0.00  0.00    +0.135 A 
ATOM      2  N   UNL     1       1.243  -5.502  -2.332  0.00  0.00    -0.237 NA
ATOM      3  C   UNL     1       1.268  -6.764  -1.947  0.00  0.00    +0.058 A 
ATOM      4  C   UNL     1       1.283  -7.035  -0.620  0.00  0.00    +0.071 A 
ATOM      5  S   UNL     1       1.268  -5.382   0.057  0.00  0.00    -0.069 S 
ENDROOT
BRANCH   1   6
ATOM      6  S   UNL     1       1.219  -2.780  -1.731  0.00  0.00    -0.094 S 
BRANCH   6   7
ATOM      7  C   UNL     1       1.227  -2.186  -0.021  0.00  0.00    +0.111 C 
BRANCH   7  13
ATOM      8  C   UNL     1       0.002  -0.004   0.002  0.00  0.00    +0.007 A 
ATOM      9  C   UNL     1      -0.017   1.378   0.010  0.00  0.00    +0.038 A 
ATOM     10  C   UNL     1       1.173   2.086   0.002  0.00  0.00    +0.123 A 
ATOM     11  C   UNL     1       2.381   1.408  -0.013  0.00  0.00    +0.038 A 
ATOM     12  C   UNL     1       2.397   0.026  -0.020  0.00  0.00    +0.007 A 
ATOM     13  C   UNL     1       1.208  -0.679  -0.013  0.00  0.00    -0.037 A 
ATOM     14  F   UNL     1       1.156   3.437   0.009  0.00  0.00    -0.205 F 
ENDBRANCH   7  13
ENDBRANCH   6   7
ENDBRANCH   1   6
BRANCH   3  15
ATOM     15  C   UNL     1       1.273  -7.879  -2.962  0.00  0.00    +0.151 C 
BRANCH  15  16
ATOM     16  C   UNL     1       0.099  -7.717  -3.892  0.00  0.00    +0.219 C 
ATOM     17  O   UNL     1      -0.667  -6.788  -3.746  0.00  0.00    -0.275 OA
ATOM     18  N   UNL     1      -0.100  -8.605  -4.886  0.00  0.00    -0.315 N 
ATOM     19  H   UNL     1       0.512  -9.348  -5.003  0.00  0.00    +0.149 HD
BRANCH  18  20
ATOM     20  C   UNL     1      -1.242  -8.448  -5.791  0.00  0.00    +0.108 C 
BRANCH  20  21
ATOM     21  C   UNL     1      -1.236  -9.579  -6.821  0.00  0.00    +0.049 C 
BRANCH  21  22
ATOM     22  C   UNL     1      -2.411  -9.417  -7.751  0.00  0.00    -0.072 C 
ATOM     23  C   UNL     1      -2.217  -8.798  -8.871  0.00  0.00    -0.028 C 
ATOM     24  C   UNL     1      -3.288  -8.552  -9.893  0.00  0.00    +0.027 C 
ATOM     25  C   UNL     1      -4.482  -9.474  -9.636  0.00  0.00    +0.004 C 
ATOM     26  C   UNL     1      -4.863  -9.375  -8.154  0.00  0.00    +0.005 C 
ATOM     27  C   UNL     1      -3.731  -9.990  -7.325  0.00  0.00    +0.030 C 
ENDBRANCH  21  22
ENDBRANCH  20  21
ENDBRANCH  18  20
ENDBRANCH  15  16
ENDBRANCH   3  15
TORSDOF 8
