REMARK  Name = ZINC39987206
REMARK  4 active torsions:
REMARK  status: ('A' for Active; 'I' for Inactive)
REMARK    1  A    between atoms: C_4  and  C_7
REMARK    2  A    between atoms: C_17  and  C_19
REMARK    3  A    between atoms: C_22  and  C_25
REMARK    4  A    between atoms: C_30  and  C_32
REMARK                            x       y       z     vdW  Elec       q    Type
REMARK                         _______ _______ _______ _____ _____    ______ ____
ROOT
ATOM      1  C   UNL     1       2.390  -0.745  -0.479  0.00  0.00    -0.014 C 
ATOM      2  C   UNL     1       3.500  -0.015  -0.913  0.00  0.00    +0.002 A 
ATOM      3  C   UNL     1       3.430   1.387  -1.054  0.00  0.00    +0.030 A 
ATOM      4  C   UNL     1       4.526   2.074  -1.478  0.00  0.00    +0.042 A 
ATOM      5  C   UNL     1       5.720   1.420  -1.778  0.00  0.00    +0.022 A 
ATOM      6  C   UNL     1       5.847   0.069  -1.663  0.00  0.00    +0.025 A 
ATOM      7  C   UNL     1       4.756  -0.705  -1.229  0.00  0.00    +0.041 A 
ATOM      8  N   UNL     1       4.884  -2.031  -1.115  0.00  0.00    -0.284 N 
ATOM      9  C   UNL     1       3.909  -2.825  -0.717  0.00  0.00    +0.230 C 
ATOM     10  O   UNL     1       4.098  -4.025  -0.637  0.00  0.00    -0.274 OA
ATOM     11  C   UNL     1       2.561  -2.247  -0.352  0.00  0.00    +0.152 C 
ATOM     12 CL   UNL     1       4.435   3.799  -1.650  0.00  0.00    -0.084 Cl
ATOM     13  H   UNL     1       5.739  -2.430  -1.338  0.00  0.00    +0.155 HD
ENDROOT
BRANCH  11  14
ATOM     14  C   UNL     1       2.260  -2.627   1.075  0.00  0.00    +0.056 C 
ATOM     15  N   UNL     1       2.006  -1.808   2.011  0.00  0.00    -0.184 NA
ATOM     16  N   UNL     1       1.758  -2.402   3.247  0.00  0.00    -0.178 N 
ATOM     17  C   UNL     1       1.868  -3.863   3.099  0.00  0.00    +0.173 C 
ATOM     18  C   UNL     1       2.207  -4.042   1.605  0.00  0.00    +0.086 C 
ATOM     19  C   UNL     1       1.467  -1.748   4.389  0.00  0.00    +0.266 C 
ATOM     20  O   UNL     1       1.300  -2.370   5.421  0.00  0.00    -0.268 OA
BRANCH  19  21
ATOM     21  C   UNL     1       1.351  -0.276   4.388  0.00  0.00    +0.039 A 
ATOM     22  C   UNL     1       0.888   0.392   5.524  0.00  0.00    +0.016 A 
ATOM     23  C   UNL     1       0.782   1.766   5.517  0.00  0.00    +0.039 A 
ATOM     24  C   UNL     1       1.134   2.486   4.385  0.00  0.00    +0.123 A 
ATOM     25  C   UNL     1       1.594   1.828   3.255  0.00  0.00    +0.039 A 
ATOM     26  C   UNL     1       1.710   0.455   3.253  0.00  0.00    +0.016 A 
ATOM     27  F   UNL     1       1.028   3.833   4.384  0.00  0.00    -0.205 F 
ENDBRANCH  19  21
BRANCH  17  28
ATOM     28  C   UNL     1       2.970  -4.405   3.973  0.00  0.00    +0.128 A 
ATOM     29  C   UNL     1       2.936  -5.564   4.654  0.00  0.00    +0.046 A 
ATOM     30  C   UNL     1       4.170  -5.676   5.334  0.00  0.00    +0.041 A 
ATOM     31  C   UNL     1       4.885  -4.579   5.028  0.00  0.00    +0.195 A 
ATOM     32  O   UNL     1       4.155  -3.815   4.198  0.00  0.00    -0.466 OA
ENDBRANCH  17  28
ENDBRANCH  11  14
BRANCH   1  36
ATOM     33  C   UNL     1      -1.239   1.132   0.445  0.00  0.00    +0.000 A 
ATOM     34  C   UNL     1      -0.045   1.710   0.844  0.00  0.00    +0.001 A 
ATOM     35  C   UNL     1       1.154   1.101   0.545  0.00  0.00    +0.008 A 
ATOM     36  C   UNL     1       1.162  -0.110  -0.166  0.00  0.00    -0.020 A 
ATOM     37  C   UNL     1      -0.054  -0.688  -0.565  0.00  0.00    +0.008 A 
ATOM     38  C   UNL     1      -1.242  -0.062  -0.257  0.00  0.00    +0.001 A 
ENDBRANCH   1  36
TORSDOF 4
