REMARK  Name = ZINC39697328
REMARK  5 active torsions:
REMARK  status: ('A' for Active; 'I' for Inactive)
REMARK    1  A    between atoms: C_4  and  C_7
REMARK    2  A    between atoms: C_12  and  N_13
REMARK    3  A    between atoms: C_14  and  C_16
REMARK    4  A    between atoms: C_16  and  S_17
REMARK    5  A    between atoms: S_17  and  C_18
REMARK                            x       y       z     vdW  Elec       q    Type
REMARK                         _______ _______ _______ _____ _____    ______ ____
ROOT
ATOM      1  N   UNL     1       2.968  -2.064   1.819  0.00  0.00    -0.284 N 
ATOM      2  C   UNL     1       3.166  -3.118   2.636  0.00  0.00    +0.228 C 
ATOM      3  O   UNL     1       4.226  -3.707   2.621  0.00  0.00    -0.275 OA
ATOM      4  H   UNL     1       2.146  -1.553   1.877  0.00  0.00    +0.155 HD
ENDROOT
BRANCH   1  10
ATOM      5  C   UNL     1       3.577  -1.201  -0.362  0.00  0.00    +0.003 A 
ATOM      6  C   UNL     1       4.562  -0.844  -1.280  0.00  0.00    +0.010 A 
ATOM      7  C   UNL     1       5.894  -0.997  -0.956  0.00  0.00    +0.001 A 
ATOM      8  C   UNL     1       6.258  -1.505   0.279  0.00  0.00    +0.002 A 
ATOM      9  C   UNL     1       5.291  -1.863   1.198  0.00  0.00    +0.024 A 
ATOM     10  C   UNL     1       3.948  -1.708   0.889  0.00  0.00    +0.041 A 
BRANCH   5  14
ATOM     11  C   UNL     1      -0.532  -0.735  -1.346  0.00  0.00    +0.000 A 
ATOM     12  C   UNL     1       0.345   0.317  -1.538  0.00  0.00    +0.001 A 
ATOM     13  C   UNL     1       1.681   0.171  -1.220  0.00  0.00    +0.008 A 
ATOM     14  C   UNL     1       2.144  -1.038  -0.705  0.00  0.00    -0.016 A 
ATOM     15  C   UNL     1       1.255  -2.095  -0.514  0.00  0.00    +0.008 A 
ATOM     16  C   UNL     1      -0.078  -1.938  -0.836  0.00  0.00    +0.001 A 
ENDBRANCH   5  14
ENDBRANCH   1  10
BRANCH   2  17
ATOM     17  C   UNL     1       2.070  -3.565   3.569  0.00  0.00    +0.173 C 
BRANCH  17  18
ATOM     18  S   UNL     1       2.638  -4.995   4.529  0.00  0.00    -0.075 S 
BRANCH  18  19
ATOM     19  C   UNL     1       1.263  -5.392   5.557  0.00  0.00    +0.208 C 
ATOM     20  N   UNL     1       0.181  -4.660   5.451  0.00  0.00    -0.227 NA
ATOM     21  C   UNL     1      -0.981  -5.044   6.248  0.00  0.00    +0.252 C 
ATOM     22  C   UNL     1      -0.438  -5.742   7.488  0.00  0.00    +0.117 C 
ATOM     23  C   UNL     1      -1.075  -5.161   8.542  0.00  0.00    +0.025 A 
ATOM     24  C   UNL     1      -1.075  -5.449   9.930  0.00  0.00    +0.012 A 
ATOM     25  C   UNL     1      -1.824  -4.649  10.735  0.00  0.00    +0.001 A 
ATOM     26  C   UNL     1      -2.589  -3.571  10.280  0.00  0.00    +0.002 A 
ATOM     27  C   UNL     1      -2.669  -3.208   8.972  0.00  0.00    +0.026 A 
ATOM     28  C   UNL     1      -1.893  -4.023   8.022  0.00  0.00    +0.046 A 
ATOM     29  N   UNL     1      -1.789  -3.933   6.731  0.00  0.00    -0.358 N 
ATOM     30  N   UNL     1       0.569  -6.617   7.405  0.00  0.00    -0.147 NA
ATOM     31  N   UNL     1       1.383  -6.441   6.408  0.00  0.00    -0.122 NA
ATOM     32  H   UNL     1      -2.184  -3.240   6.179  0.00  0.00    +0.162 HD
ENDBRANCH  18  19
ENDBRANCH  17  18
ENDBRANCH   2  17
TORSDOF 5
