REMARK  Name = ZINC14780903
REMARK  12 active torsions:
REMARK  status: ('A' for Active; 'I' for Inactive)
REMARK    1  A    between atoms: C_1  and  C_2
REMARK    2  A    between atoms: C_2  and  C_31
REMARK    3  A    between atoms: C_3  and  C_4
REMARK    4  A    between atoms: C_4  and  C_5
REMARK    5  A    between atoms: C_9  and  C_12
REMARK    6  A    between atoms: C_10  and  O_11
REMARK    7  A    between atoms: C_12  and  C_13
REMARK    8  A    between atoms: C_14  and  C_15
REMARK    9  A    between atoms: C_14  and  C_16
REMARK   10  A    between atoms: C_19  and  C_23
REMARK   11  A    between atoms: C_26  and  O_30
REMARK   12  A    between atoms: C_28  and  O_29
REMARK                            x       y       z     vdW  Elec       q    Type
REMARK                         _______ _______ _______ _____ _____    ______ ____
ROOT
ATOM      1  C   UNL     1       7.909   7.271   4.169  0.00  0.00    -0.001 A 
ATOM      2  C   UNL     1       6.673   7.034   4.699  0.00  0.00    +0.022 A 
ATOM      3  C   UNL     1       5.891   5.989   4.199  0.00  0.00    +0.061 A 
ATOM      4  C   UNL     1       6.374   5.178   3.155  0.00  0.00    +0.138 A 
ATOM      5  C   UNL     1       7.628   5.434   2.627  0.00  0.00    +0.040 A 
ATOM      6  C   UNL     1       8.392   6.477   3.132  0.00  0.00    +0.127 A 
ATOM      7  O   UNL     1       5.631   4.156   2.670  0.00  0.00    -0.490 OA
ATOM      8  C   UNL     1       4.215   4.186   2.859  0.00  0.00    +0.245 C 
ATOM      9  C   UNL     1       3.906   4.407   4.347  0.00  0.00    +0.131 C 
ATOM     10  C   UNL     1       4.556   5.719   4.751  0.00  0.00    +0.177 C 
ATOM     11  O   UNL     1       4.001   6.504   5.492  0.00  0.00    -0.291 OA
ENDROOT
BRANCH   9  12
ATOM     12  C   UNL     1       4.480   3.278   5.163  0.00  0.00    +0.008 A 
ATOM     13  C   UNL     1       5.837   3.019   5.125  0.00  0.00    +0.011 A 
ATOM     14  C   UNL     1       6.366   1.984   5.873  0.00  0.00    +0.046 A 
ATOM     15  C   UNL     1       5.535   1.202   6.663  0.00  0.00    +0.120 A 
ATOM     16  C   UNL     1       4.174   1.460   6.703  0.00  0.00    +0.091 A 
ATOM     17  C   UNL     1       3.646   2.499   5.952  0.00  0.00    +0.124 A 
BRANCH  17  18
ATOM     18  O   UNL     1       2.311   2.751   5.984  0.00  0.00    -0.506 OA
ATOM     19  H   UNL     1       2.045   3.376   6.673  0.00  0.00    +0.292 HD
ENDBRANCH  17  18
BRANCH  15  20
ATOM     20  O   UNL     1       6.056   0.184   7.398  0.00  0.00    -0.507 OA
ATOM     21  H   UNL     1       6.083  -0.663   6.932  0.00  0.00    +0.292 HD
ENDBRANCH  15  20
ENDBRANCH   9  12
BRANCH   6  22
ATOM     22  O   UNL     1       9.621   6.724   2.612  0.00  0.00    -0.506 OA
ATOM     23  H   UNL     1       9.617   7.346   1.872  0.00  0.00    +0.292 HD
ENDBRANCH   6  22
BRANCH   1  24
ATOM     24  C   UNL     1       8.754   8.397   4.708  0.00  0.00    +0.066 C 
BRANCH  24  27
ATOM     25  C   UNL     1       7.619  10.719   5.838  0.00  0.00    +0.038 C 
ATOM     26  C   UNL     1       8.081  10.724   4.404  0.00  0.00    -0.079 C 
ATOM     27  C   UNL     1       8.549   9.627   3.862  0.00  0.00    -0.023 C 
ATOM     28  C   UNL     1       8.004  11.992   3.592  0.00  0.00    +0.038 C 
ENDBRANCH  24  27
ENDBRANCH   1  24
BRANCH   5  29
ATOM     29  C   UNL     1       8.163   4.583   1.504  0.00  0.00    +0.069 C 
BRANCH  29  30
ATOM     30  C   UNL     1       7.761   5.184   0.182  0.00  0.00    -0.023 C 
ATOM     31  C   UNL     1       8.668   5.417  -0.734  0.00  0.00    -0.079 C 
ATOM     32  C   UNL     1      10.072   4.899  -0.554  0.00  0.00    +0.038 C 
ATOM     33  C   UNL     1       8.308   6.204  -1.968  0.00  0.00    +0.038 C 
ENDBRANCH  29  30
ENDBRANCH   5  29
TORSDOF 8
