REMARK  Name = ZINC04718140
REMARK  3 active torsions:
REMARK  status: ('A' for Active; 'I' for Inactive)
REMARK    1  A    between atoms: C_1  and  C_2
REMARK    2  A    between atoms: C_2  and  C_30
REMARK    3  A    between atoms: C_6  and  C_20
REMARK                            x       y       z     vdW  Elec       q    Type
REMARK                         _______ _______ _______ _____ _____    ______ ____
ROOT
ATOM      1  C   UNL     1      -8.400  -0.546  -2.999  0.00  0.00    +0.011 C 
ATOM      2  C   UNL     1      -9.232  -0.777  -1.737  0.00  0.00    -0.023 C 
ATOM      3  C   UNL     1      -8.877   0.279  -0.687  0.00  0.00    +0.058 C 
ATOM      4  C   UNL     1      -7.424   0.149  -0.312  0.00  0.00    +0.020 C 
ATOM      5  C   UNL     1      -6.796  -1.047  -0.345  0.00  0.00    +0.039 C 
ATOM      6  C   UNL     1      -5.346  -1.155   0.053  0.00  0.00    +0.147 C 
ATOM      7  C   UNL     1      -5.355   1.259   0.058  0.00  0.00    +0.166 C 
ATOM      8  N   UNL     1      -6.732   1.268   0.071  0.00  0.00    -0.292 N 
ATOM      9  N   UNL     1      -4.669   2.455   0.058  0.00  0.00    -0.243 N 
ATOM     10  C   UNL     1      -3.288   2.459   0.045  0.00  0.00    +0.295 A 
ATOM     11  N   UNL     1      -2.542   3.533   0.044  0.00  0.00    -0.195 NA
ATOM     12  C   UNL     1      -1.235   3.156   0.030  0.00  0.00    +0.111 A 
ATOM     13  C   UNL     1      -0.029   3.859   0.022  0.00  0.00    +0.031 A 
ATOM     14  C   UNL     1       1.164   3.170   0.007  0.00  0.00    +0.002 A 
ATOM     15  C   UNL     1       1.173   1.783   0.000  0.00  0.00    +0.004 A 
ATOM     16  C   UNL     1      -0.013   1.076   0.008  0.00  0.00    +0.048 A 
ATOM     17  C   UNL     1      -1.221   1.753   0.017  0.00  0.00    +0.157 A 
ATOM     18  O   UNL     1      -2.515   1.359   0.033  0.00  0.00    -0.424 OA
ATOM     19  C   UNL     1      -7.473  -2.209  -0.749  0.00  0.00    +0.163 C 
ATOM     20  O   UNL     1      -6.881  -3.270  -0.766  0.00  0.00    -0.292 OA
ATOM     21  C   UNL     1      -8.919  -2.162  -1.161  0.00  0.00    +0.086 C 
ATOM     22  C   UNL     1     -10.720  -0.687  -2.079  0.00  0.00    +0.011 C 
ATOM     23  H   UNL     1      -7.211   2.064   0.349  0.00  0.00    +0.154 HD
ATOM     24  H   UNL     1      -5.156   3.294   0.066  0.00  0.00    +0.159 HD
ATOM     25  N   UNL     1      -4.605   0.152   0.040  0.00  0.00    -0.350 N 
ATOM     26  H   UNL     1      -3.579   0.193   0.017  0.00  0.00    +0.163 HD
ENDROOT
BRANCH   6  27
ATOM     27  C   UNL     1      -5.258  -1.744   1.438  0.00  0.00    -0.020 A 
ATOM     28  C   UNL     1      -5.466  -0.941   2.544  0.00  0.00    +0.009 A 
ATOM     29  C   UNL     1      -5.391  -1.480   3.814  0.00  0.00    +0.039 A 
ATOM     30  C   UNL     1      -5.096  -2.823   3.979  0.00  0.00    +0.123 A 
ATOM     31  C   UNL     1      -4.883  -3.625   2.871  0.00  0.00    +0.039 A 
ATOM     32  C   UNL     1      -4.965  -3.084   1.602  0.00  0.00    +0.009 A 
ATOM     33  F   UNL     1      -5.016  -3.350   5.221  0.00  0.00    -0.205 F 
ENDBRANCH   6  27
TORSDOF 1
