REMARK  Name = ZINC64143398
REMARK  12 active torsions:
REMARK  status: ('A' for Active; 'I' for Inactive)
REMARK    1  A    between atoms: C_1  and  C_2
REMARK    2  A    between atoms: C_2  and  C_3
REMARK    3  A    between atoms: C_2  and  C_4
REMARK    4  A    between atoms: C_4  and  C_5
REMARK    5  A    between atoms: C_5  and  C_7
REMARK    6  A    between atoms: C_5  and  N_30
REMARK    7  A    between atoms: N_16  and  C_19
REMARK    8  A    between atoms: C_19  and  C_20
REMARK    9  A    between atoms: C_31  and  C_33
REMARK   10  A    between atoms: C_36  and  C_38
REMARK   11  A    between atoms: C_38  and  O_39
REMARK   12  A    between atoms: O_39  and  C_40
REMARK                            x       y       z     vdW  Elec       q    Type
REMARK                         _______ _______ _______ _____ _____    ______ ____
ROOT
ATOM      1  C   UNL     1       0.479  -0.131   2.592  0.00  0.00    +0.219 C 
ATOM      2  N   UNL     1       1.864   0.364   2.507  0.00  0.00    -0.170 NA
ATOM      3  N   UNL     1       2.346   0.528   3.639  0.00  0.00    -0.172 NA
ATOM      4  C   UNL     1       1.381   0.155   4.670  0.00  0.00    +0.200 C 
ATOM      5  N   UNL     1       0.056   0.210   3.968  0.00  0.00    -0.254 NA
ATOM      6  C   UNL     1      -0.761  -0.826   4.592  0.00  0.00    +0.104 C 
ATOM      7  C   UNL     1      -1.752  -0.192   5.560  0.00  0.00    +0.100 C 
ATOM      8  N   UNL     1      -1.142   1.071   6.078  0.00  0.00    -0.299 NA
ATOM      9  C   UNL     1       0.134   0.842   6.753  0.00  0.00    +0.088 C 
ATOM     10  C   UNL     1       1.335   1.134   5.824  0.00  0.00    +0.060 C 
ENDROOT
BRANCH   1  11
ATOM     11  C   UNL     1      -0.407   0.579   1.567  0.00  0.00    +0.115 C 
BRANCH  11  12
ATOM     12  N   UNL     1      -0.246   2.029   1.703  0.00  0.00    -0.303 N 
ATOM     13  C   UNL     1      -1.197   2.860   1.230  0.00  0.00    +0.280 C 
ATOM     14  O   UNL     1      -2.229   2.406   0.772  0.00  0.00    -0.267 OA
ATOM     15  H   UNL     1       0.544   2.391   2.133  0.00  0.00    +0.150 HD
BRANCH  13  16
ATOM     16  C   UNL     1      -0.987   4.311   1.267  0.00  0.00    +0.190 A 
ATOM     17  C   UNL     1      -1.865   5.260   0.829  0.00  0.00    +0.055 A 
ATOM     18  C   UNL     1      -1.259   6.506   1.056  0.00  0.00    +0.048 A 
ATOM     19  C   UNL     1      -0.053   6.265   1.616  0.00  0.00    +0.131 A 
ATOM     20  O   UNL     1       0.105   4.942   1.746  0.00  0.00    -0.453 OA
BRANCH  19  21
ATOM     21  C   UNL     1       0.947   7.314   2.030  0.00  0.00    +0.233 C 
BRANCH  21  22
ATOM     22  O   UNL     1       0.705   7.694   3.385  0.00  0.00    -0.375 OA
ATOM     23  C   UNL     1       1.604   8.690   3.879  0.00  0.00    +0.194 C 
ENDBRANCH  21  22
ENDBRANCH  19  21
ENDBRANCH  13  16
ENDBRANCH  11  12
BRANCH  11  24
ATOM     24  C   UNL     1       0.001   0.151   0.156  0.00  0.00    +0.028 C 
BRANCH  24  26
ATOM     25  C   UNL     1      -1.813  -1.562   0.028  0.00  0.00    +0.007 C 
ATOM     26  C   UNL     1      -0.301  -1.337  -0.033  0.00  0.00    -0.015 C 
ATOM     27  C   UNL     1       0.229  -1.796  -1.393  0.00  0.00    +0.007 C 
ENDBRANCH  24  26
ENDBRANCH  11  24
ENDBRANCH   1  11
BRANCH   8  28
ATOM     28  C   UNL     1      -2.078   1.789   6.952  0.00  0.00    +0.113 C 
BRANCH  28  29
ATOM     29  C   UNL     1      -1.603   3.232   7.133  0.00  0.00    +0.117 C 
ATOM     30  C   UNL     1      -2.635   4.028   7.901  0.00  0.00    +0.008 C 
ATOM     31  C   UNL     1      -3.027   5.027   7.076  0.00  0.00    -0.004 A 
ATOM     32  C   UNL     1      -3.992   6.122   7.230  0.00  0.00    +0.010 A 
ATOM     33  C   UNL     1      -4.173   6.985   6.205  0.00  0.00    +0.001 A 
ATOM     34  C   UNL     1      -3.465   6.860   5.002  0.00  0.00    +0.002 A 
ATOM     35  C   UNL     1      -2.562   5.880   4.786  0.00  0.00    +0.026 A 
ATOM     36  C   UNL     1      -2.292   4.916   5.796  0.00  0.00    +0.043 A 
ATOM     37  N   UNL     1      -1.475   3.889   5.828  0.00  0.00    -0.377 N 
ATOM     38  H   UNL     1      -0.886   3.611   5.109  0.00  0.00    +0.160 HD
ENDBRANCH  28  29
ENDBRANCH   8  28
TORSDOF 9
