REMARK  Name = ZINC35383249
REMARK  8 active torsions:
REMARK  status: ('A' for Active; 'I' for Inactive)
REMARK    1  A    between atoms: C_1  and  C_2
REMARK    2  A    between atoms: C_2  and  N_3
REMARK    3  A    between atoms: N_3  and  C_4
REMARK    4  A    between atoms: N_3  and  C_8
REMARK    5  A    between atoms: C_4  and  C_5
REMARK    6  A    between atoms: C_5  and  C_6
REMARK    7  A    between atoms: C_5  and  C_7
REMARK    8  A    between atoms: C_13  and  N_14
REMARK                            x       y       z     vdW  Elec       q    Type
REMARK                         _______ _______ _______ _____ _____    ______ ____
ROOT
ATOM      1  C   UNL     1      -2.015  -0.759   1.224  0.00  0.00    +0.053 A 
ATOM      2  C   UNL     1      -2.751   0.245   1.827  0.00  0.00    +0.053 A 
ATOM      3  C   UNL     1      -3.394  -0.002   3.040  0.00  0.00    +0.080 A 
ATOM      4  C   UNL     1      -3.286  -1.278   3.639  0.00  0.00    +0.067 A 
ATOM      5  C   UNL     1      -2.540  -2.283   3.021  0.00  0.00    +0.040 A 
ATOM      6  C   UNL     1      -1.913  -2.025   1.818  0.00  0.00    +0.047 A 
ATOM      7  C   UNL     1      -3.976  -1.502   4.915  0.00  0.00    +0.259 A 
ATOM      8  O   UNL     1      -3.922  -2.577   5.483  0.00  0.00    -0.267 OA
ATOM      9  N   UNL     1      -4.674  -0.466   5.436  0.00  0.00    -0.313 N 
ATOM     10  H   UNL     1      -5.142  -0.578   6.278  0.00  0.00    +0.170 HD
ATOM     11  C   UNL     1      -4.724   0.730   4.792  0.00  0.00    +0.199 A 
ATOM     12  N   UNL     1      -4.126   0.957   3.663  0.00  0.00    -0.237 NA
ENDROOT
BRANCH   6  13
ATOM     13  N   UNL     1      -1.169  -3.031   1.191  0.00  0.00    -0.357 N 
ATOM     14  H   UNL     1      -0.724  -2.851   0.347  0.00  0.00    +0.142 HD
ATOM     15  H   UNL     1      -1.097  -3.908   1.599  0.00  0.00    +0.142 HD
ENDBRANCH   6  13
BRANCH   1  16
ATOM     16  N   UNL     1      -1.372  -0.511   0.012  0.00  0.00    -0.328 N 
BRANCH  16  18
ATOM     17  C   UNL     1      -0.019   1.526   0.010  0.00  0.00    +0.024 C 
ATOM     18  C   UNL     1       0.002  -0.004   0.002  0.00  0.00    +0.102 C 
ENDBRANCH  16  18
BRANCH  16  19
ATOM     19  C   UNL     1      -2.072  -0.758  -1.251  0.00  0.00    +0.108 C 
BRANCH  19  20
ATOM     20  C   UNL     1      -1.816  -2.197  -1.703  0.00  0.00    +0.000 C 
ATOM     21  C   UNL     1      -2.645  -2.494  -2.954  0.00  0.00    +0.009 C 
ATOM     22  C   UNL     1      -0.330  -2.375  -2.021  0.00  0.00    +0.009 C 
ENDBRANCH  19  20
ENDBRANCH  16  19
ENDBRANCH   1  16
TORSDOF 5
