REMARK  Name = ZINC20545093
REMARK  2 active torsions:
REMARK  status: ('A' for Active; 'I' for Inactive)
REMARK    1  A    between atoms: C_3  and  C_18
REMARK    2  A    between atoms: N_7  and  C_8
REMARK                            x       y       z     vdW  Elec       q    Type
REMARK                         _______ _______ _______ _____ _____    ______ ____
ROOT
ATOM      1  C   UNL     1      -1.264   1.806   0.002  0.00  0.00    +0.018 A 
ATOM      2  C   UNL     1      -1.206   3.189   0.017  0.00  0.00    +0.020 A 
ATOM      3  C   UNL     1       0.053   3.802   0.026  0.00  0.00    +0.101 A 
ATOM      4  C   UNL     1       1.201   2.990   0.023  0.00  0.00    +0.111 A 
ATOM      5  N   UNL     1       1.087   1.671   0.013  0.00  0.00    -0.349 N 
ATOM      6  C   UNL     1      -0.089   1.075   0.005  0.00  0.00    +0.084 A 
ATOM      7  N   UNL     1       2.454   3.572   0.032  0.00  0.00    -0.324 N 
ATOM      8  H   UNL     1       2.554   4.665  -0.048  0.00  0.00    +0.148 HD
ATOM      9  H   UNL     1       1.989   1.042   0.011  0.00  0.00    +0.167 HD
ENDROOT
BRANCH   7  10
ATOM     10  C   UNL     1       3.651   2.735   0.146  0.00  0.00    +0.034 C 
ATOM     11  C   UNL     1       3.704   1.759  -1.032  0.00  0.00    +0.029 C 
ATOM     12  C   UNL     1       4.953   0.884  -0.912  0.00  0.00    -0.008 C 
ATOM     13  C   UNL     1       6.200   1.770  -0.927  0.00  0.00    +0.007 C 
ATOM     14  C   UNL     1       6.147   2.745   0.250  0.00  0.00    -0.008 C 
ATOM     15  C   UNL     1       4.898   3.621   0.131  0.00  0.00    +0.029 C 
ATOM     16  C   UNL     1       6.096   1.960   1.562  0.00  0.00    +0.007 C 
ATOM     17  C   UNL     1       4.849   1.073   1.577  0.00  0.00    -0.008 C 
ATOM     18  C   UNL     1       4.902   0.098   0.399  0.00  0.00    +0.007 C 
ATOM     19  C   UNL     1       3.599   1.948   1.457  0.00  0.00    +0.029 C 
ENDBRANCH   7  10
BRANCH   3  20
ATOM     20  C   UNL     1       0.172   5.270   0.037  0.00  0.00    +0.390 C 
ATOM     21  O   UNL     1       1.265   5.792  -0.061  0.00  0.00    -0.240 OA
ATOM     22  O   UNL     1      -0.932   6.035   0.157  0.00  0.00    -0.240 OA
ENDBRANCH   3  20
TORSDOF 2
