REMARK  Name = ZINC21808570
REMARK  7 active torsions:
REMARK  status: ('A' for Active; 'I' for Inactive)
REMARK    1  A    between atoms: C_1  and  C_2
REMARK    2  A    between atoms: C_5  and  N_8
REMARK    3  A    between atoms: C_9  and  C_11
REMARK    4  A    between atoms: C_11  and  C_32
REMARK    5  A    between atoms: N_23  and  C_24
REMARK    6  A    between atoms: C_24  and  C_25
REMARK    7  A    between atoms: C_25  and  C_26
REMARK                            x       y       z     vdW  Elec       q    Type
REMARK                         _______ _______ _______ _____ _____    ______ ____
ROOT
ATOM      1  C   UNL     1      -0.877   1.750  -1.146  0.00  0.00    +0.128 C 
ATOM      2  C   UNL     1      -0.229   1.000   0.017  0.00  0.00    +0.157 C 
ATOM      3  N   UNL     1      -0.811   1.471   1.276  0.00  0.00    -0.333 N 
ATOM      4  C   UNL     1      -0.963   0.790   2.470  0.00  0.00    +0.057 A 
ATOM      5  C   UNL     1      -0.705  -0.482   3.003  0.00  0.00    +0.034 A 
ATOM      6  C   UNL     1      -1.017  -0.757   4.286  0.00  0.00    +0.048 A 
ATOM      7  S   UNL     1      -1.716   0.782   4.857  0.00  0.00    -0.095 S 
ATOM      8  C   UNL     1      -1.553   1.708   3.352  0.00  0.00    +0.038 A 
ATOM      9  C   UNL     1      -1.759   2.918   2.696  0.00  0.00    +0.048 A 
ATOM     10  C   UNL     1      -1.306   2.763   1.419  0.00  0.00    +0.106 A 
ATOM     11  C   UNL     1      -1.284   3.704   0.292  0.00  0.00    +0.264 C 
ATOM     12  O   UNL     1      -1.549   4.884   0.435  0.00  0.00    -0.268 OA
ATOM     13  N   UNL     1      -0.954   3.188  -0.915  0.00  0.00    -0.280 N 
ATOM     14  C   UNL     1      -2.292   1.208  -1.357  0.00  0.00    +0.043 C 
ENDROOT
BRANCH   1  16
ATOM     15  N   UNL     1       1.128   2.098  -2.552  0.00  0.00    -0.311 N 
ATOM     16  C   UNL     1      -0.071   1.503  -2.395  0.00  0.00    +0.238 C 
ATOM     17  O   UNL     1      -0.501   0.768  -3.259  0.00  0.00    -0.273 OA
ATOM     18  H   UNL     1       1.557   2.696  -1.734  0.00  0.00    +0.149 HD
BRANCH  15  23
ATOM     19  C   UNL     1       5.581   1.685  -1.616  0.00  0.00    +0.007 C 
ATOM     20  C   UNL     1       4.596   1.721  -2.786  0.00  0.00    -0.014 C 
ATOM     21  C   UNL     1       3.851   3.057  -2.785  0.00  0.00    +0.005 C 
ATOM     22  C   UNL     1       2.866   3.092  -3.956  0.00  0.00    +0.022 C 
ATOM     23  C   UNL     1       1.861   1.948  -3.811  0.00  0.00    +0.073 C 
ATOM     24  C   UNL     1       2.606   0.612  -3.812  0.00  0.00    +0.022 C 
ATOM     25  C   UNL     1       3.591   0.576  -2.642  0.00  0.00    +0.005 C 
ENDBRANCH  15  23
ENDBRANCH   1  16
BRANCH  13  26
ATOM     26  C   UNL     1      -0.662   4.102  -2.022  0.00  0.00    +0.114 C 
BRANCH  26  27
ATOM     27  C   UNL     1      -1.925   4.305  -2.861  0.00  0.00    +0.054 C 
BRANCH  27  28
ATOM     28  C   UNL     1      -1.600   5.156  -4.062  0.00  0.00    -0.046 A 
ATOM     29  C   UNL     1      -1.615   6.534  -3.957  0.00  0.00    +0.004 A 
ATOM     30  C   UNL     1      -1.312   7.314  -5.057  0.00  0.00    +0.000 A 
ATOM     31  C   UNL     1      -1.002   6.716  -6.264  0.00  0.00    +0.000 A 
ATOM     32  C   UNL     1      -0.991   5.338  -6.370  0.00  0.00    +0.000 A 
ATOM     33  C   UNL     1      -1.290   4.558  -5.269  0.00  0.00    +0.004 A 
ENDBRANCH  27  28
ENDBRANCH  26  27
ENDBRANCH  13  26
TORSDOF 5
