REMARK  Name = ZINC35649230
REMARK  6 active torsions:
REMARK  status: ('A' for Active; 'I' for Inactive)
REMARK    1  A    between atoms: C_1  and  C_2
REMARK    2  A    between atoms: C_3  and  C_9
REMARK    3  A    between atoms: C_7  and  N_8
REMARK    4  A    between atoms: C_9  and  N_10
REMARK    5  A    between atoms: C_13  and  C_17
REMARK    6  A    between atoms: C_13  and  C_18
REMARK                            x       y       z     vdW  Elec       q    Type
REMARK                         _______ _______ _______ _____ _____    ______ ____
ROOT
ATOM      1  C   UNL     1      -0.011   0.072  -2.498  0.00  0.00    +0.153 C 
ENDROOT
BRANCH   1   2
ATOM      2  N   UNL     1       1.342   0.543  -2.805  0.00  0.00    -0.220 N 
ATOM      3  C   UNL     1       1.839   1.730  -2.404  0.00  0.00    +0.246 C 
ATOM      4  O   UNL     1       1.272   2.577  -1.746  0.00  0.00    -0.273 OA
ATOM      5  C   UNL     1       3.253   1.786  -2.946  0.00  0.00    +0.107 C 
ATOM      6  N   UNL     1       3.403   0.504  -3.656  0.00  0.00    -0.285 N 
ATOM      7  C   UNL     1       2.238  -0.153  -3.513  0.00  0.00    +0.310 C 
ATOM      8  O   UNL     1       2.023  -1.255  -3.979  0.00  0.00    -0.252 OA
ATOM      9  C   UNL     1       4.264   1.890  -1.802  0.00  0.00    +0.041 C 
ATOM     10  C   UNL     1       3.413   2.960  -3.914  0.00  0.00    +0.041 C 
ATOM     11  H   UNL     1       4.190   0.194  -4.131  0.00  0.00    +0.151 HD
ENDBRANCH   1   2
BRANCH   1  14
ATOM     12  C   UNL     1      -0.018   1.503   0.010  0.00  0.00    +0.046 C 
ATOM     13  C   UNL     1       0.002  -0.004   0.002  0.00  0.00    -0.025 A 
ATOM     14  C   UNL     1       0.006  -0.689  -1.198  0.00  0.00    -0.025 A 
ATOM     15  C   UNL     1       0.024  -2.071  -1.206  0.00  0.00    +0.005 A 
ATOM     16  C   UNL     1       0.039  -2.773  -0.014  0.00  0.00    +0.002 A 
ATOM     17  C   UNL     1       0.036  -2.095   1.188  0.00  0.00    +0.023 A 
ATOM     18  C   UNL     1       0.023  -0.706   1.200  0.00  0.00    +0.028 A 
BRANCH  18  19
ATOM     19  N   UNL     1       0.025  -0.016   2.415  0.00  0.00    -0.358 N 
ATOM     20  H   UNL     1       0.012   0.954   2.422  0.00  0.00    +0.142 HD
ATOM     21  H   UNL     1       0.040  -0.507   3.252  0.00  0.00    +0.142 HD
ENDBRANCH  18  19
ENDBRANCH   1  14
TORSDOF 3
