REMARK  Name = ZINC04000074
REMARK  7 active torsions:
REMARK  status: ('A' for Active; 'I' for Inactive)
REMARK    1  A    between atoms: C_1  and  C_2
REMARK    2  A    between atoms: C_2  and  C_28
REMARK    3  A    between atoms: C_10  and  C_16
REMARK    4  A    between atoms: C_17  and  C_18
REMARK    5  A    between atoms: C_21  and  C_24
REMARK    6  A    between atoms: C_24  and  O_26
REMARK    7  A    between atoms: O_26  and  C_27
REMARK                            x       y       z     vdW  Elec       q    Type
REMARK                         _______ _______ _______ _____ _____    ______ ____
ROOT
ATOM      1  C   UNL     1      -0.019   1.526   0.010  0.00  0.00    +0.020 C 
ATOM      2  C   UNL     1       0.002  -0.004   0.002  0.00  0.00    +0.034 C 
ATOM      3  C   UNL     1       0.815  -0.516  -1.169  0.00  0.00    -0.017 A 
ATOM      4  C   UNL     1       0.592  -0.436  -2.529  0.00  0.00    +0.006 A 
ATOM      5  C   UNL     1       1.487  -1.007  -3.415  0.00  0.00    +0.000 A 
ATOM      6  C   UNL     1       2.608  -1.660  -2.935  0.00  0.00    +0.002 A 
ATOM      7  C   UNL     1       2.839  -1.736  -1.579  0.00  0.00    +0.023 A 
ATOM      8  C   UNL     1       1.945  -1.155  -0.676  0.00  0.00    +0.035 A 
ATOM      9  N   UNL     1       2.005  -1.075   0.709  0.00  0.00    -0.304 N 
ATOM     10  C   UNL     1       0.739  -0.537   1.235  0.00  0.00    +0.130 C 
ATOM     11  N   UNL     1       1.063   0.525   2.181  0.00  0.00    -0.290 N 
ATOM     12  C   UNL     1       2.276   0.655   2.725  0.00  0.00    +0.216 C 
ATOM     13  O   UNL     1       2.397   1.474   3.611  0.00  0.00    -0.276 OA
ATOM     14  C   UNL     1       3.498  -0.119   2.342  0.00  0.00    +0.115 C 
ATOM     15  C   UNL     1       3.131  -1.408   1.594  0.00  0.00    +0.117 C 
ATOM     16  C   UNL     1      -1.424  -0.557  -0.050  0.00  0.00    +0.020 C 
ATOM     17  H   UNL     1       0.372   1.161   2.424  0.00  0.00    +0.151 HD
ENDROOT
BRANCH  10  18
ATOM     18  C   UNL     1      -0.064  -1.627   1.897  0.00  0.00    +0.020 C 
ATOM     19  C   UNL     1       0.449  -2.845   2.022  0.00  0.00    +0.007 C 
BRANCH  19  20
ATOM     20  C   UNL     1      -0.337  -3.913   2.671  0.00  0.00    -0.025 A 
ATOM     21  C   UNL     1      -1.623  -3.643   3.148  0.00  0.00    +0.009 A 
ATOM     22  C   UNL     1      -2.352  -4.635   3.751  0.00  0.00    +0.015 A 
ATOM     23  C   UNL     1      -1.811  -5.916   3.888  0.00  0.00    +0.059 A 
ATOM     24  C   UNL     1      -0.525  -6.186   3.410  0.00  0.00    +0.015 A 
ATOM     25  C   UNL     1       0.202  -5.195   2.803  0.00  0.00    +0.009 A 
BRANCH  23  26
ATOM     26  C   UNL     1      -2.596  -6.984   4.537  0.00  0.00    +0.339 C 
ATOM     27  O   UNL     1      -3.713  -6.749   4.953  0.00  0.00    -0.245 OA
BRANCH  26  28
ATOM     28  O   UNL     1      -2.074  -8.219   4.669  0.00  0.00    -0.464 OA
ATOM     29  C   UNL     1      -2.889  -9.203   5.308  0.00  0.00    +0.280 C 
ENDBRANCH  26  28
ENDBRANCH  23  26
ENDBRANCH  19  20
ENDBRANCH  10  18
TORSDOF 4
