REMARK  Name = ZINC12870744
REMARK  5 active torsions:
REMARK  status: ('A' for Active; 'I' for Inactive)
REMARK    1  A    between atoms: C_1  and  C_2
REMARK    2  A    between atoms: C_12  and  N_68
REMARK    3  A    between atoms: C_17  and  C_18
REMARK    4  A    between atoms: C_17  and  N_68
REMARK    5  A    between atoms: C_25  and  C_38
REMARK                            x       y       z     vdW  Elec       q    Type
REMARK                         _______ _______ _______ _____ _____    ______ ____
ROOT
ATOM      1  C   UNL     1       0.810   5.486   0.616  0.00  0.00    -0.067 C 
ENDROOT
BRANCH   1   2
ATOM      2  C   UNL     1      -0.050   6.232   1.637  0.00  0.00    +0.087 C 
ATOM      3  C   UNL     1      -0.054   7.761   1.334  0.00  0.00    +0.042 C 
ATOM      4  C   UNL     1       0.251   7.905  -0.159  0.00  0.00    +0.014 C 
ATOM      5  C   UNL     1      -0.180   9.278  -0.669  0.00  0.00    +0.030 C 
ATOM      6  C   UNL     1      -1.702   9.394  -0.506  0.00  0.00    -0.023 C 
ATOM      7  C   UNL     1      -2.195  10.710  -1.107  0.00  0.00    +0.007 C 
ATOM      8  C   UNL     1      -1.909  10.733  -2.610  0.00  0.00    +0.003 C 
ATOM      9  C   UNL     1      -0.395  10.681  -2.842  0.00  0.00    +0.037 C 
ATOM     10  C   UNL     1       0.170   9.437  -2.152  0.00  0.00    +0.096 C 
ATOM     11  C   UNL     1       0.301   8.158  -2.978  0.00  0.00    +0.196 C 
ATOM     12  O   UNL     1       1.433   8.942  -2.593  0.00  0.00    -0.368 OA
ATOM     13  C   UNL     1      -2.018   9.359   0.990  0.00  0.00    +0.052 C 
ATOM     14  C   UNL     1      -1.536   8.078   1.625  0.00  0.00    +0.181 C 
ATOM     15  O   UNL     1      -2.240   6.896   1.145  0.00  0.00    -0.461 OA
ATOM     16  C   UNL     1      -1.505   5.821   1.508  0.00  0.00    +0.309 C 
ATOM     17  O   UNL     1      -1.938   4.709   1.698  0.00  0.00    -0.251 OA
ATOM     18  C   UNL     1      -2.387   8.219  -1.205  0.00  0.00    +0.011 C 
ENDBRANCH   1   2
BRANCH   1  19
ATOM     19  N   UNL     1       0.854   4.055   0.974  0.00  0.00    +0.385 N 
ATOM     20  H   UNL     1       1.259   3.954   1.912  0.00  0.00    -0.085 HD
ATOM     21  H   UNL     1      -0.100   3.676   0.970  0.00  0.00    -0.085 HD
BRANCH  19  33
ATOM     22  C   UNL     1       1.030  -4.163  -0.025  0.00  0.00    +0.044 C 
ATOM     23  C   UNL     1       0.679  -2.697  -0.017  0.00  0.00    -0.050 A 
ATOM     24  C   UNL     1      -0.653  -2.308  -0.005  0.00  0.00    +0.005 A 
ATOM     25  C   UNL     1      -0.995  -0.974   0.005  0.00  0.00    +0.026 A 
ATOM     26  C   UNL     1       0.002  -0.004   0.002  0.00  0.00    +0.047 A 
ATOM     27  C   UNL     1       1.353  -0.403  -0.011  0.00  0.00    +0.003 A 
ATOM     28  C   UNL     1       1.675  -1.762  -0.020  0.00  0.00    +0.013 A 
ATOM     29  C   UNL     1       2.132   0.830  -0.013  0.00  0.00    -0.021 A 
ATOM     30  C   UNL     1       1.261   1.857   0.000  0.00  0.00    +0.006 A 
ATOM     31  N   UNL     1      -0.017   1.374   0.010  0.00  0.00    -0.359 N 
ATOM     32  H   UNL     1      -0.818   1.920   0.017  0.00  0.00    +0.166 HD
ATOM     33  C   UNL     1       1.679   3.310   0.004  0.00  0.00    -0.024 C 
ATOM     34  C   UNL     1       3.154   3.391   0.412  0.00  0.00    -0.009 C 
ATOM     35  C   UNL     1       3.974   2.416  -0.438  0.00  0.00    +0.003 C 
ATOM     36  C   UNL     1       3.632   0.978  -0.030  0.00  0.00    +0.037 C 
ENDBRANCH  19  33
ENDBRANCH   1  19
TORSDOF 3
