REMARK  Name = ZINC65184007
REMARK  8 active torsions:
REMARK  status: ('A' for Active; 'I' for Inactive)
REMARK    1  A    between atoms: C_1  and  C_2
REMARK    2  A    between atoms: C_2  and  C_3
REMARK    3  A    between atoms: C_4  and  S_14
REMARK    4  A    between atoms: C_9  and  C_11
REMARK    5  A    between atoms: C_11  and  C_12
REMARK    6  A    between atoms: C_11  and  C_13
REMARK    7  A    between atoms: S_14  and  N_17
REMARK    8  A    between atoms: N_17  and  C_18
REMARK                            x       y       z     vdW  Elec       q    Type
REMARK                         _______ _______ _______ _____ _____    ______ ____
ROOT
ATOM      1  C   UNL     1       0.707  -0.490  -1.238  0.00  0.00    +0.089 A 
ATOM      2  C   UNL     1       0.127  -0.749  -2.423  0.00  0.00    +0.224 A 
ATOM      3  N   UNL     1       1.121  -1.173  -3.297  0.00  0.00    -0.186 N 
ATOM      4  C   UNL     1       2.274  -1.142  -2.559  0.00  0.00    +0.198 A 
ATOM      5  N   UNL     1       2.022  -0.733  -1.349  0.00  0.00    -0.223 NA
ATOM      6  S   UNL     1       3.491  -1.692  -3.732  0.00  0.00    -0.033 S 
ATOM      7  C   UNL     1       2.392  -1.926  -5.120  0.00  0.00    +0.105 A 
ATOM      8  N   UNL     1       1.243  -1.587  -4.619  0.00  0.00    -0.160 NA
ENDROOT
BRANCH   7   9
ATOM      9  C   UNL     1       2.716  -2.395  -6.515  0.00  0.00    +0.040 C 
ATOM     10  C   UNL     1       2.723  -3.925  -6.549  0.00  0.00    +0.014 C 
ATOM     11  C   UNL     1       1.660  -1.868  -7.488  0.00  0.00    +0.014 C 
ENDBRANCH   7   9
BRANCH   2  12
ATOM     12  S   UNL     1      -1.586  -0.580  -2.800  0.00  0.00    +0.111 S 
ATOM     13  O   UNL     1      -2.113   0.364  -1.878  0.00  0.00    -0.147 OA
ATOM     14  O   UNL     1      -1.676  -0.403  -4.207  0.00  0.00    -0.147 OA
BRANCH  12  15
ATOM     15  N   UNL     1      -2.307  -2.031  -2.458  0.00  0.00    -0.093 NA
BRANCH  15  16
ATOM     16  C   UNL     1      -3.683  -2.193  -2.662  0.00  0.00    +0.110 A 
ATOM     17  C   UNL     1      -4.441  -1.142  -3.157  0.00  0.00    +0.032 A 
ATOM     18  C   UNL     1      -5.799  -1.305  -3.358  0.00  0.00    +0.040 A 
ATOM     19  C   UNL     1      -6.403  -2.515  -3.066  0.00  0.00    +0.126 A 
ATOM     20  C   UNL     1      -5.650  -3.567  -2.572  0.00  0.00    +0.078 A 
ATOM     21  C   UNL     1      -4.290  -3.411  -2.375  0.00  0.00    +0.150 A 
ATOM     22  F   UNL     1      -3.554  -4.439  -1.899  0.00  0.00    -0.203 F 
ATOM     23  F   UNL     1      -7.731  -2.671  -3.263  0.00  0.00    -0.205 F 
ENDBRANCH  15  16
ENDBRANCH  12  15
ENDBRANCH   2  12
BRANCH   1  25
ATOM     24  C   UNL     1      -0.019   1.526   0.010  0.00  0.00    +0.010 C 
ATOM     25  C   UNL     1       0.002  -0.004   0.002  0.00  0.00    +0.056 C 
ENDBRANCH   1  25
TORSDOF 5
