REMARK  Name = ZINC16381624
REMARK  9 active torsions:
REMARK  status: ('A' for Active; 'I' for Inactive)
REMARK    1  A    between atoms: C_4  and  O_20
REMARK    2  A    between atoms: C_5  and  C_7
REMARK    3  A    between atoms: N_9  and  C_10
REMARK    4  A    between atoms: C_10  and  C_11
REMARK    5  A    between atoms: C_11  and  O_12
REMARK    6  A    between atoms: O_12  and  C_13
REMARK    7  A    between atoms: O_20  and  C_21
REMARK    8  A    between atoms: C_21  and  C_22
REMARK    9  A    between atoms: N_24  and  C_25
REMARK                            x       y       z     vdW  Elec       q    Type
REMARK                         _______ _______ _______ _____ _____    ______ ____
ROOT
ATOM      1  C   UNL     1       0.848   0.489  -4.828  0.00  0.00    +0.001 A 
ATOM      2  C   UNL     1       1.463   0.067  -3.660  0.00  0.00    +0.004 A 
ATOM      3  C   UNL     1       0.950   0.429  -2.431  0.00  0.00    +0.046 A 
ATOM      4  C   UNL     1      -0.195   1.208  -2.357  0.00  0.00    +0.133 A 
ATOM      5  C   UNL     1      -0.820   1.636  -3.536  0.00  0.00    +0.078 A 
ATOM      6  C   UNL     1      -0.287   1.268  -4.774  0.00  0.00    +0.017 A 
ENDROOT
BRANCH   5   7
ATOM      7  C   UNL     1      -2.035   2.471  -3.470  0.00  0.00    +0.248 C 
ATOM      8  O   UNL     1      -2.496   2.790  -2.391  0.00  0.00    -0.270 OA
ATOM      9  N   UNL     1      -2.633   2.881  -4.606  0.00  0.00    -0.308 N 
ATOM     10  H   UNL     1      -2.265   2.627  -5.467  0.00  0.00    +0.149 HD
BRANCH   9  11
ATOM     11  C   UNL     1      -3.839   3.710  -4.541  0.00  0.00    +0.145 C 
BRANCH  11  12
ATOM     12  C   UNL     1      -4.313   4.034  -5.960  0.00  0.00    +0.247 C 
BRANCH  12  13
ATOM     13  O   UNL     1      -4.717   2.829  -6.613  0.00  0.00    -0.490 OA
BRANCH  13  14
ATOM     14  C   UNL     1      -5.168   2.941  -7.891  0.00  0.00    +0.121 A 
ATOM     15  C   UNL     1      -5.226   4.186  -8.500  0.00  0.00    +0.047 A 
ATOM     16  C   UNL     1      -5.680   4.298  -9.800  0.00  0.00    +0.023 A 
ATOM     17  C   UNL     1      -6.088   3.170 -10.490  0.00  0.00    +0.041 A 
ATOM     18  C   UNL     1      -6.036   1.928  -9.883  0.00  0.00    +0.023 A 
ATOM     19  C   UNL     1      -5.577   1.812  -8.585  0.00  0.00    +0.047 A 
ATOM     20 CL   UNL     1      -6.664   3.314 -12.121  0.00  0.00    -0.084 Cl
ENDBRANCH  13  14
ENDBRANCH  12  13
ENDBRANCH  11  12
ENDBRANCH   9  11
ENDBRANCH   5   7
BRANCH   4  21
ATOM     21  O   UNL     1      -0.704   1.559  -1.150  0.00  0.00    -0.482 OA
BRANCH  21  22
ATOM     22  C   UNL     1      -0.013   1.086   0.008  0.00  0.00    +0.324 C 
BRANCH  22  23
ATOM     23  C   UNL     1      -0.718   1.572   1.248  0.00  0.00    +0.251 C 
ATOM     24  O   UNL     1      -1.714   2.256   1.150  0.00  0.00    -0.272 OA
ATOM     25  N   UNL     1      -0.242   1.246   2.466  0.00  0.00    -0.307 N 
ATOM     26  H   UNL     1       0.555   0.699   2.544  0.00  0.00    +0.149 HD
BRANCH  25  27
ATOM     27  C   UNL     1      -0.927   1.718   3.671  0.00  0.00    +0.035 C 
ATOM     28  C   UNL     1      -0.948   3.248   3.679  0.00  0.00    +0.029 C 
ATOM     29  C   UNL     1      -1.664   3.742   4.938  0.00  0.00    -0.008 C 
ATOM     30  C   UNL     1      -0.924   3.235   6.178  0.00  0.00    +0.007 C 
ATOM     31  C   UNL     1      -0.903   1.705   6.169  0.00  0.00    -0.008 C 
ATOM     32  C   UNL     1      -0.187   1.212   4.911  0.00  0.00    +0.029 C 
ATOM     33  C   UNL     1      -2.339   1.175   6.180  0.00  0.00    +0.007 C 
ATOM     34  C   UNL     1      -3.079   1.682   4.941  0.00  0.00    -0.008 C 
ATOM     35  C   UNL     1      -3.100   3.212   4.949  0.00  0.00    +0.007 C 
ATOM     36  C   UNL     1      -2.363   1.189   3.682  0.00  0.00    +0.029 C 
ENDBRANCH  25  27
ENDBRANCH  22  23
ENDBRANCH  21  22
ENDBRANCH   4  21
TORSDOF 9
