REMARK  Name = ZINC23585978
REMARK  14 active torsions:
REMARK  status: ('A' for Active; 'I' for Inactive)
REMARK    1  A    between atoms: C_1  and  C_2
REMARK    2  A    between atoms: C_2  and  O_3
REMARK    3  A    between atoms: O_3  and  C_4
REMARK    4  A    between atoms: C_6  and  C_16
REMARK    5  A    between atoms: C_8  and  O_13
REMARK    6  A    between atoms: C_9  and  O_10
REMARK    7  A    between atoms: O_10  and  C_11
REMARK    8  A    between atoms: C_11  and  C_12
REMARK    9  A    between atoms: O_13  and  C_14
REMARK   10  A    between atoms: C_14  and  C_15
REMARK   11  A    between atoms: C_19  and  S_21
REMARK   12  A    between atoms: S_21  and  C_22
REMARK   13  A    between atoms: C_22  and  C_23
REMARK   14  A    between atoms: N_28  and  C_29
REMARK                            x       y       z     vdW  Elec       q    Type
REMARK                         _______ _______ _______ _____ _____    ______ ____
ROOT
ATOM      1  C   UNL     1      -0.216  -4.963   0.455  0.00  0.00    +0.249 A 
ATOM      2  N   UNL     1      -0.849  -4.614   1.549  0.00  0.00    -0.106 NA
ATOM      3  N   UNL     1      -1.204  -5.670   2.192  0.00  0.00    -0.101 NA
ATOM      4  C   UNL     1      -0.811  -6.736   1.535  0.00  0.00    +0.278 A 
ATOM      5  O   UNL     1      -0.183  -6.313   0.420  0.00  0.00    -0.411 OA
ENDROOT
BRANCH   1   8
ATOM      6  C   UNL     1       0.777  -1.811  -1.336  0.00  0.00    +0.166 A 
ATOM      7  C   UNL     1       0.243  -2.666  -0.388  0.00  0.00    +0.063 A 
ATOM      8  C   UNL     1       0.352  -4.048  -0.556  0.00  0.00    +0.046 A 
ATOM      9  C   UNL     1       0.999  -4.563  -1.681  0.00  0.00    +0.063 A 
ATOM     10  C   UNL     1       1.531  -3.704  -2.626  0.00  0.00    +0.166 A 
ATOM     11  C   UNL     1       1.416  -2.327  -2.459  0.00  0.00    +0.204 A 
BRANCH   6  12
ATOM     12  O   UNL     1       0.671  -0.465  -1.174  0.00  0.00    -0.488 OA
BRANCH  12  14
ATOM     13  C   UNL     1      -0.019   1.526   0.010  0.00  0.00    +0.048 C 
ATOM     14  C   UNL     1       0.002  -0.004   0.002  0.00  0.00    +0.226 C 
ENDBRANCH  12  14
ENDBRANCH   6  12
BRANCH  11  15
ATOM     15  O   UNL     1       1.935  -1.485  -3.393  0.00  0.00    -0.485 OA
BRANCH  15  16
ATOM     16  C   UNL     1       3.291  -1.071  -3.212  0.00  0.00    +0.226 C 
ATOM     17  C   UNL     1       3.694  -0.133  -4.351  0.00  0.00    +0.048 C 
ENDBRANCH  15  16
ENDBRANCH  11  15
BRANCH  10  18
ATOM     18  O   UNL     1       2.161  -4.205  -3.722  0.00  0.00    -0.488 OA
BRANCH  18  19
ATOM     19  C   UNL     1       2.237  -5.628  -3.832  0.00  0.00    +0.226 C 
ATOM     20  C   UNL     1       2.975  -6.001  -5.119  0.00  0.00    +0.048 C 
ENDBRANCH  18  19
ENDBRANCH  10  18
ENDBRANCH   1   8
BRANCH   4  21
ATOM     21  S   UNL     1      -1.064  -8.411   2.018  0.00  0.00    -0.056 S 
BRANCH  21  22
ATOM     22  C   UNL     1      -1.967  -8.285   3.586  0.00  0.00    +0.175 C 
BRANCH  22  23
ATOM     23  C   UNL     1      -2.251  -9.667   4.115  0.00  0.00    +0.231 C 
ATOM     24  O   UNL     1      -1.880 -10.641   3.495  0.00  0.00    -0.274 OA
ATOM     25  N   UNL     1      -2.916  -9.820   5.277  0.00  0.00    -0.239 N 
ATOM     26  C   UNL     1      -3.170 -11.056   5.750  0.00  0.00    +0.306 C 
ATOM     27  O   UNL     1      -2.799 -12.033   5.129  0.00  0.00    -0.252 OA
ATOM     28  N   UNL     1      -3.836 -11.209   6.912  0.00  0.00    -0.296 N 
ATOM     29  H   UNL     1      -3.213  -9.040   5.772  0.00  0.00    +0.159 HD
ATOM     30  H   UNL     1      -4.132 -10.430   7.407  0.00  0.00    +0.151 HD
BRANCH  28  31
ATOM     31  C   UNL     1      -4.112 -12.553   7.426  0.00  0.00    +0.074 C 
ATOM     32  C   UNL     1      -5.396 -13.089   6.790  0.00  0.00    +0.022 C 
ATOM     33  C   UNL     1      -5.684 -14.492   7.327  0.00  0.00    +0.002 C 
ATOM     34  C   UNL     1      -5.855 -14.431   8.846  0.00  0.00    +0.000 C 
ATOM     35  C   UNL     1      -4.571 -13.895   9.483  0.00  0.00    +0.002 C 
ATOM     36  C   UNL     1      -4.283 -12.492   8.946  0.00  0.00    +0.022 C 
ENDBRANCH  28  31
ENDBRANCH  22  23
ENDBRANCH  21  22
ENDBRANCH   4  21
TORSDOF 11
