REMARK  Name = ZINC18266511
REMARK  7 active torsions:
REMARK  status: ('A' for Active; 'I' for Inactive)
REMARK    1  A    between atoms: C_1  and  C_2
REMARK    2  A    between atoms: C_2  and  O_3
REMARK    3  A    between atoms: O_3  and  C_4
REMARK    4  A    between atoms: C_9  and  C_10
REMARK    5  A    between atoms: C_10  and  O_12
REMARK    6  A    between atoms: O_12  and  C_13
REMARK    7  A    between atoms: C_13  and  C_14
REMARK                            x       y       z     vdW  Elec       q    Type
REMARK                         _______ _______ _______ _____ _____    ______ ____
ROOT
ATOM      1  C   UNL     1      -2.112  -4.267   0.005  0.00  0.00    +0.170 A 
ATOM      2  N   UNL     1      -2.039  -4.900  -1.152  0.00  0.00    -0.214 NA
ATOM      3  C   UNL     1      -2.018  -6.221  -1.233  0.00  0.00    +0.128 A 
ATOM      4  C   UNL     1      -2.088  -6.988  -0.037  0.00  0.00    +0.051 A 
ATOM      5  C   UNL     1      -2.087  -8.444   0.119  0.00  0.00    -0.025 A 
ATOM      6  C   UNL     1      -2.163  -8.924   1.377  0.00  0.00    -0.004 A 
ATOM      7  S   UNL     1      -2.241  -7.490   2.416  0.00  0.00    -0.073 S 
ATOM      8  C   UNL     1      -2.171  -6.243   1.157  0.00  0.00    +0.114 A 
ATOM      9  N   UNL     1      -2.180  -4.925   1.147  0.00  0.00    -0.221 NA
ATOM     10  C   UNL     1      -2.178 -10.362   1.799  0.00  0.00    +0.043 C 
ATOM     11  C   UNL     1      -2.466 -11.228   0.565  0.00  0.00    +0.005 C 
ATOM     12  C   UNL     1      -1.558 -10.769  -0.580  0.00  0.00    +0.005 C 
ATOM     13  C   UNL     1      -2.002  -9.392  -1.074  0.00  0.00    +0.037 C 
ATOM     14  N   UNL     1      -1.935  -6.846  -2.463  0.00  0.00    -0.343 N 
ATOM     15  H   UNL     1      -2.154  -7.788  -2.545  0.00  0.00    +0.144 HD
ATOM     16  H   UNL     1      -1.658  -6.344  -3.245  0.00  0.00    +0.144 HD
ENDROOT
BRANCH   1  17
ATOM     17  C   UNL     1      -2.125  -2.760   0.021  0.00  0.00    +0.308 C 
BRANCH  17  18
ATOM     18  O   UNL     1      -0.762  -2.266   0.113  0.00  0.00    -0.453 OA
BRANCH  18  19
ATOM     19  C   UNL     1      -0.597  -0.929   0.139  0.00  0.00    +0.343 C 
ATOM     20  O   UNL     1      -1.565  -0.196   0.085  0.00  0.00    -0.245 OA
BRANCH  19  26
ATOM     21  C   UNL     1       0.934   1.035   0.258  0.00  0.00    +0.134 A 
ATOM     22  C   UNL     1       2.213   1.564   0.345  0.00  0.00    +0.046 A 
ATOM     23  C   UNL     1       3.307   0.723   0.405  0.00  0.00    +0.004 A 
ATOM     24  C   UNL     1       3.137  -0.652   0.379  0.00  0.00    +0.001 A 
ATOM     25  C   UNL     1       1.873  -1.194   0.293  0.00  0.00    +0.018 A 
ATOM     26  C   UNL     1       0.757  -0.355   0.232  0.00  0.00    +0.101 A 
BRANCH  21  27
ATOM     27  O   UNL     1      -0.141   1.860   0.194  0.00  0.00    -0.491 OA
BRANCH  27  29
ATOM     28  C   UNL     1      -1.207   4.029   0.144  0.00  0.00    +0.048 C 
ATOM     29  C   UNL     1       0.117   3.265   0.226  0.00  0.00    +0.226 C 
ENDBRANCH  27  29
ENDBRANCH  21  27
ENDBRANCH  19  26
ENDBRANCH  18  19
ENDBRANCH  17  18
ENDBRANCH   1  17
TORSDOF 6
