REMARK  Name = ZINC13034012
REMARK  14 active torsions:
REMARK  status: ('A' for Active; 'I' for Inactive)
REMARK    1  A    between atoms: C_1  and  C_2
REMARK    2  A    between atoms: C_2  and  C_3
REMARK    3  A    between atoms: C_10  and  C_15
REMARK    4  A    between atoms: C_15  and  N_74
REMARK    5  A    between atoms: C_16  and  N_74
REMARK    6  A    between atoms: C_22  and  C_24
REMARK    7  A    between atoms: C_22  and  C_26
REMARK    8  A    between atoms: C_22  and  N_74
REMARK    9  A    between atoms: C_24  and  C_25
REMARK   10  A    between atoms: N_30  and  C_31
REMARK   11  A    between atoms: C_31  and  C_32
REMARK   12  A    between atoms: C_31  and  C_33
REMARK   13  A    between atoms: C_31  and  C_34
REMARK   14  A    between atoms: C_34  and  C_35
REMARK                            x       y       z     vdW  Elec       q    Type
REMARK                         _______ _______ _______ _____ _____    ______ ____
ROOT
ATOM      1  N   UNL     1       1.531   1.260   2.645  0.00  0.00    +0.391 N 
ATOM      2  H   UNL     1       2.054   1.066   3.507  0.00  0.00    -0.080 HD
ENDROOT
BRANCH   1   3
ATOM      3  C   UNL     1       1.659   2.696   2.319  0.00  0.00    -0.067 C 
ATOM      4  C   UNL     1       1.292   3.517   3.556  0.00  0.00    -0.015 C 
ATOM      5  C   UNL     1       1.439   5.007   3.242  0.00  0.00    -0.002 C 
ATOM      6  C   UNL     1       0.507   5.380   2.087  0.00  0.00    -0.000 C 
ATOM      7  C   UNL     1       0.874   4.558   0.850  0.00  0.00    -0.002 C 
ATOM      8  C   UNL     1       0.726   3.068   1.164  0.00  0.00    -0.015 C 
ENDBRANCH   1   3
BRANCH   1   9
ATOM      9  C   UNL     1       2.092   0.442   1.549  0.00  0.00    -0.036 C 
BRANCH   9  17
ATOM     10  C   UNL     1       7.851  -1.220   3.087  0.00  0.00    -0.047 A 
ATOM     11  C   UNL     1       8.493  -0.173   2.439  0.00  0.00    +0.005 A 
ATOM     12  C   UNL     1       7.770   0.778   1.752  0.00  0.00    +0.026 A 
ATOM     13  C   UNL     1       6.383   0.691   1.706  0.00  0.00    +0.049 A 
ATOM     14  C   UNL     1       5.735  -0.372   2.364  0.00  0.00    -0.001 A 
ATOM     15  C   UNL     1       6.489  -1.326   3.055  0.00  0.00    +0.013 A 
ATOM     16  C   UNL     1       4.275  -0.455   2.310  0.00  0.00    +0.017 A 
ATOM     17  C   UNL     1       3.596   0.498   1.625  0.00  0.00    +0.001 A 
ATOM     18  C   UNL     1       4.294   1.540   0.977  0.00  0.00    +0.251 A 
ATOM     19  O   UNL     1       3.665   2.384   0.362  0.00  0.00    -0.268 OA
ATOM     20  N   UNL     1       5.635   1.628   1.026  0.00  0.00    -0.322 N 
ATOM     21  H   UNL     1       6.083   2.360   0.573  0.00  0.00    +0.169 HD
BRANCH  10  23
ATOM     22  C   UNL     1       9.028  -3.393   2.885  0.00  0.00    +0.009 C 
ATOM     23  C   UNL     1       8.663  -2.248   3.832  0.00  0.00    +0.032 C 
ENDBRANCH  10  23
ENDBRANCH   9  17
ENDBRANCH   1   9
BRANCH   1  24
ATOM     24  C   UNL     1       0.110   0.914   2.857  0.00  0.00    +0.003 C 
BRANCH  24  25
ATOM     25  C   UNL     1      -0.604   0.785   1.537  0.00  0.00    +0.139 A 
ATOM     26  N   UNL     1      -0.121   0.270   0.433  0.00  0.00    -0.115 NA
ATOM     27  N   UNL     1      -1.035   0.341  -0.473  0.00  0.00    -0.023 NA
ATOM     28  N   UNL     1      -2.088   0.889   0.025  0.00  0.00    -0.043 NA
ATOM     29  N   UNL     1      -1.864   1.172   1.264  0.00  0.00    -0.225 N 
BRANCH  29  30
ATOM     30  C   UNL     1      -2.803   1.800   2.196  0.00  0.00    +0.061 C 
ATOM     31  C   UNL     1      -2.931   0.935   3.452  0.00  0.00    +0.036 C 
ATOM     32  C   UNL     1      -2.287   3.187   2.583  0.00  0.00    +0.036 C 
BRANCH  30  33
ATOM     33  C   UNL     1      -4.173   1.935   1.528  0.00  0.00    +0.026 C 
ATOM     34  C   UNL     1      -5.154   2.590   2.502  0.00  0.00    +0.006 C 
ENDBRANCH  30  33
ENDBRANCH  29  30
ENDBRANCH  24  25
BRANCH  24  35
ATOM     35  C   UNL     1       0.036  -0.416   3.609  0.00  0.00    -0.011 C 
ATOM     36  C   UNL     1       0.642  -0.249   5.004  0.00  0.00    +0.002 C 
ENDBRANCH  24  35
ENDBRANCH   1  24
TORSDOF 9
