REMARK  Name = ZINC36092873
REMARK  9 active torsions:
REMARK  status: ('A' for Active; 'I' for Inactive)
REMARK    1  A    between atoms: C_1  and  C_2
REMARK    2  A    between atoms: C_7  and  N_12
REMARK    3  A    between atoms: C_9  and  C_11
REMARK    4  A    between atoms: C_13  and  C_15
REMARK    5  A    between atoms: C_15  and  C_16
REMARK    6  A    between atoms: C_16  and  C_17
REMARK    7  A    between atoms: C_17  and  N_18
REMARK    8  A    between atoms: C_25  and  O_31
REMARK    9  A    between atoms: O_31  and  C_32
REMARK                            x       y       z     vdW  Elec       q    Type
REMARK                         _______ _______ _______ _____ _____    ______ ____
ROOT
ATOM      1  N   UNL     1       1.730  -7.523   6.035  0.00  0.00    -0.287 N 
ATOM      2  C   UNL     1       0.679  -7.681   6.864  0.00  0.00    +0.279 A 
ATOM      3  O   UNL     1       0.118  -6.710   7.338  0.00  0.00    -0.265 OA
ATOM      4  C   UNL     1       0.232  -8.991   7.179  0.00  0.00    +0.129 A 
ATOM      5  C   UNL     1       0.895 -10.068   6.621  0.00  0.00    +0.079 A 
ATOM      6  C   UNL     1       0.231 -11.275   7.111  0.00  0.00    +0.027 A 
ATOM      7  C   UNL     1       0.440 -12.642   6.905  0.00  0.00    +0.057 A 
ATOM      8  C   UNL     1      -0.381 -13.561   7.527  0.00  0.00    +0.121 A 
ATOM      9  C   UNL     1      -1.412 -13.130   8.358  0.00  0.00    +0.047 A 
ATOM     10  C   UNL     1      -1.628 -11.788   8.570  0.00  0.00    +0.030 A 
ATOM     11  C   UNL     1      -0.812 -10.844   7.951  0.00  0.00    +0.049 A 
ATOM     12  N   UNL     1      -0.795  -9.465   7.979  0.00  0.00    -0.349 N 
ATOM     13  H   UNL     1      -1.410  -8.911   8.483  0.00  0.00    +0.166 HD
ATOM     14  N   UNL     1       1.969  -9.843   5.778  0.00  0.00    -0.333 N 
ATOM     15  C   UNL     1       2.357  -8.584   5.499  0.00  0.00    +0.161 A 
ATOM     16  S   UNL     1       3.683  -8.330   4.446  0.00  0.00    -0.013 S 
ATOM     17  H   UNL     1       2.439 -10.593   5.382  0.00  0.00    +0.168 HD
ENDROOT
BRANCH   8  18
ATOM     18  O   UNL     1      -0.181 -14.891   7.328  0.00  0.00    -0.495 OA
ATOM     19  C   UNL     1      -1.066 -15.788   8.003  0.00  0.00    +0.277 C 
ENDBRANCH   8  18
BRANCH   1  20
ATOM     20  C   UNL     1       2.193  -6.172   5.709  0.00  0.00    +0.128 C 
BRANCH  20  21
ATOM     21  C   UNL     1       1.453  -5.665   4.469  0.00  0.00    +0.031 C 
BRANCH  21  22
ATOM     22  C   UNL     1       1.936  -4.254   4.128  0.00  0.00    +0.097 C 
BRANCH  22  24
ATOM     23  N   UNL     1       1.471  -2.526   2.420  0.00  0.00    -0.312 N 
ATOM     24  C   UNL     1       1.207  -3.754   2.907  0.00  0.00    +0.213 C 
ATOM     25  O   UNL     1       0.382  -4.458   2.364  0.00  0.00    -0.276 OA
ATOM     26  H   UNL     1       2.131  -1.963   2.855  0.00  0.00    +0.149 HD
BRANCH  23  32
ATOM     27  C   UNL     1      -0.019   1.526   0.010  0.00  0.00    +0.008 C 
ATOM     28  C   UNL     1       0.002  -0.004   0.002  0.00  0.00    -0.009 C 
ATOM     29  C   UNL     1       0.718  -0.497  -1.257  0.00  0.00    +0.003 C 
ATOM     30  C   UNL     1       0.739  -2.027  -1.265  0.00  0.00    +0.002 C 
ATOM     31  C   UNL     1       1.479  -2.534  -0.026  0.00  0.00    +0.022 C 
ATOM     32  C   UNL     1       0.763  -2.041   1.233  0.00  0.00    +0.076 C 
ATOM     33  C   UNL     1       0.742  -0.511   1.242  0.00  0.00    +0.009 C 
ATOM     34  C   UNL     1       0.026  -0.018   2.500  0.00  0.00    +0.009 C 
ENDBRANCH  23  32
ENDBRANCH  22  24
ENDBRANCH  21  22
ENDBRANCH  20  21
ENDBRANCH   1  20
TORSDOF 6
