REMARK  Name = ZINC12348488
REMARK  9 active torsions:
REMARK  status: ('A' for Active; 'I' for Inactive)
REMARK    1  A    between atoms: C_1  and  O_2
REMARK    2  A    between atoms: O_2  and  C_3
REMARK    3  A    between atoms: C_6  and  C_13
REMARK    4  A    between atoms: C_7  and  O_11
REMARK    5  A    between atoms: C_8  and  O_9
REMARK    6  A    between atoms: O_9  and  C_10
REMARK    7  A    between atoms: O_11  and  C_12
REMARK    8  A    between atoms: N_18  and  C_21
REMARK    9  A    between atoms: C_19  and  O_20
REMARK                            x       y       z     vdW  Elec       q    Type
REMARK                         _______ _______ _______ _____ _____    ______ ____
ROOT
ATOM      1  C   UNL     1      -5.129  -2.543  -0.224  0.00  0.00    +0.096 C 
ATOM      2  C   UNL     1      -5.888  -2.316   1.052  0.00  0.00    +0.068 A 
ATOM      3  C   UNL     1      -6.929  -1.362   1.145  0.00  0.00    +0.153 A 
ATOM      4  N   UNL     1      -7.395  -1.379   2.358  0.00  0.00    -0.148 NA
ATOM      5  N   UNL     1      -6.680  -2.341   3.090  0.00  0.00    -0.199 N 
ATOM      6  C   UNL     1      -5.756  -2.903   2.258  0.00  0.00    +0.222 A 
ATOM      7  N   UNL     1      -7.296  -0.600   0.032  0.00  0.00    -0.301 N 
ATOM      8  C   UNL     1      -6.857  -0.998  -1.206  0.00  0.00    +0.017 C 
ATOM      9  C   UNL     1      -5.859  -1.889  -1.377  0.00  0.00    +0.024 C 
ATOM     10  C   UNL     1      -5.439  -2.258  -2.669  0.00  0.00    +0.162 C 
ATOM     11  C   UNL     1      -6.072  -1.673  -3.900  0.00  0.00    +0.080 C 
ATOM     12  C   UNL     1      -6.592  -0.270  -3.569  0.00  0.00    +0.014 C 
ATOM     13  C   UNL     1      -7.562  -0.388  -2.397  0.00  0.00    +0.051 C 
ATOM     14  O   UNL     1      -4.543  -3.070  -2.791  0.00  0.00    -0.292 OA
ATOM     15  H   UNL     1      -7.848   0.191   0.133  0.00  0.00    +0.153 HD
ENDROOT
BRANCH   1  19
ATOM     16  C   UNL     1      -1.212  -0.856   0.126  0.00  0.00    +0.165 A 
ATOM     17  C   UNL     1      -1.387  -2.231   0.172  0.00  0.00    +0.050 A 
ATOM     18  C   UNL     1      -2.653  -2.773   0.058  0.00  0.00    +0.012 A 
ATOM     19  C   UNL     1      -3.750  -1.947  -0.101  0.00  0.00    +0.010 A 
ATOM     20  C   UNL     1      -3.584  -0.572  -0.147  0.00  0.00    +0.169 A 
ATOM     21  C   UNL     1      -2.313  -0.023  -0.027  0.00  0.00    +0.204 A 
BRANCH  16  23
ATOM     22  C   UNL     1       1.120  -1.241   0.392  0.00  0.00    +0.277 C 
ATOM     23  O   UNL     1       0.035  -0.324   0.237  0.00  0.00    -0.491 OA
ENDBRANCH  16  23
BRANCH  21  24
ATOM     24  O   UNL     1      -2.146   1.328  -0.067  0.00  0.00    -0.488 OA
ATOM     25  C   UNL     1      -1.931   1.917  -1.351  0.00  0.00    +0.277 C 
ENDBRANCH  21  24
BRANCH  20  26
ATOM     26  O   UNL     1      -4.664   0.240  -0.304  0.00  0.00    -0.491 OA
ATOM     27  C   UNL     1      -5.182   0.866   0.871  0.00  0.00    +0.277 C 
ENDBRANCH  20  26
ENDBRANCH   1  19
BRANCH   5  28
ATOM     28  C   UNL     1      -6.879  -2.666   4.438  0.00  0.00    +0.069 A 
ATOM     29  C   UNL     1      -6.709  -3.975   4.871  0.00  0.00    +0.028 A 
ATOM     30  C   UNL     1      -6.906  -4.292   6.200  0.00  0.00    +0.002 A 
ATOM     31  C   UNL     1      -7.273  -3.308   7.100  0.00  0.00    +0.000 A 
ATOM     32  C   UNL     1      -7.444  -2.005   6.672  0.00  0.00    +0.002 A 
ATOM     33  C   UNL     1      -7.242  -1.680   5.345  0.00  0.00    +0.028 A 
ENDBRANCH   5  28
BRANCH   6  34
ATOM     34  O   UNL     1      -4.868  -3.876   2.584  0.00  0.00    -0.492 OA
ATOM     35  H   UNL     1      -4.023  -3.542   2.915  0.00  0.00    +0.294 HD
ENDBRANCH   6  34
TORSDOF 6
