REMARK  Name = ZINC39688706
REMARK  8 active torsions:
REMARK  status: ('A' for Active; 'I' for Inactive)
REMARK    1  A    between atoms: C_1  and  C_2
REMARK    2  A    between atoms: C_2  and  C_4
REMARK    3  A    between atoms: C_2  and  N_12
REMARK    4  A    between atoms: C_4  and  C_5
REMARK    5  A    between atoms: C_13  and  C_15
REMARK    6  A    between atoms: C_26  and  C_28
REMARK    7  A    between atoms: C_31  and  O_34
REMARK    8  A    between atoms: O_34  and  C_35
REMARK                            x       y       z     vdW  Elec       q    Type
REMARK                         _______ _______ _______ _____ _____    ______ ____
ROOT
ATOM      1  C   UNL     1       0.400  -1.947   2.979  0.00  0.00    +0.100 C 
ATOM      2  C   UNL     1       1.067  -3.339   3.036  0.00  0.00    +0.121 C 
ATOM      3  N   UNL     1       0.900  -3.777   4.442  0.00  0.00    -0.296 N 
ATOM      4  C   UNL     1      -0.463  -3.325   4.809  0.00  0.00    +0.115 C 
ATOM      5  C   UNL     1      -0.604  -1.942   4.144  0.00  0.00    -0.004 C 
ATOM      6  C   UNL     1      -0.254  -0.839   5.138  0.00  0.00    -0.010 C 
ATOM      7  C   UNL     1      -1.298  -0.817   6.258  0.00  0.00    -0.082 C 
ATOM      8  N   UNL     1      -2.629  -0.581   5.683  0.00  0.00    +0.379 N 
ATOM      9  C   UNL     1      -2.997  -1.693   4.799  0.00  0.00    -0.082 C 
ATOM     10  C   UNL     1      -2.024  -1.752   3.618  0.00  0.00    -0.010 C 
ATOM     11  C   UNL     1       1.787  -4.436   5.213  0.00  0.00    +0.248 C 
ATOM     12  O   UNL     1       2.919  -4.625   4.811  0.00  0.00    -0.270 OA
ATOM     13  H   UNL     1      -3.306  -0.506   6.427  0.00  0.00    -0.086 HD
ATOM     14  H   UNL     1      -2.618   0.278   5.155  0.00  0.00    -0.086 HD
ENDROOT
BRANCH  11  15
ATOM     15  C   UNL     1       1.385  -4.930   6.544  0.00  0.00    +0.055 A 
ATOM     16  C   UNL     1       0.029  -5.096   6.862  0.00  0.00    +0.020 A 
ATOM     17  C   UNL     1      -0.297  -5.560   8.120  0.00  0.00    +0.068 A 
ATOM     18  C   UNL     1       0.721  -5.845   9.025  0.00  0.00    +0.220 A 
ATOM     19  N   UNL     1       1.992  -5.676   8.695  0.00  0.00    -0.220 NA
ATOM     20  C   UNL     1       2.348  -5.242   7.504  0.00  0.00    +0.127 A 
BRANCH  18  21
ATOM     21  O   UNL     1       0.406  -6.300  10.262  0.00  0.00    -0.438 OA
BRANCH  21  22
ATOM     22  C   UNL     1       1.424  -6.660  11.087  0.00  0.00    +0.130 A 
ATOM     23  C   UNL     1       2.145  -5.687  11.766  0.00  0.00    +0.046 A 
ATOM     24  C   UNL     1       3.179  -6.055  12.604  0.00  0.00    +0.004 A 
ATOM     25  C   UNL     1       3.497  -7.391  12.767  0.00  0.00    +0.000 A 
ATOM     26  C   UNL     1       2.780  -8.362  12.092  0.00  0.00    +0.004 A 
ATOM     27  C   UNL     1       1.741  -8.000  11.257  0.00  0.00    +0.046 A 
ENDBRANCH  21  22
ENDBRANCH  18  21
ENDBRANCH  11  15
BRANCH   1  29
ATOM     28  N   UNL     1      -0.458  -0.529   1.142  0.00  0.00    -0.312 N 
ATOM     29  C   UNL     1      -0.318  -1.763   1.666  0.00  0.00    +0.218 C 
ATOM     30  O   UNL     1      -0.771  -2.724   1.083  0.00  0.00    -0.275 OA
ATOM     31  H   UNL     1      -0.096   0.240   1.609  0.00  0.00    +0.149 HD
BRANCH  28  33
ATOM     32  C   UNL     1      -2.662  -0.253   0.118  0.00  0.00    +0.028 C 
ATOM     33  C   UNL     1      -1.156  -0.350  -0.134  0.00  0.00    +0.074 C 
BRANCH  33  34
ATOM     34  C   UNL     1      -0.668   0.935  -0.806  0.00  0.00    +0.057 C 
BRANCH  34  35
ATOM     35  C   UNL     1       0.789   0.792  -1.165  0.00  0.00    -0.045 A 
ATOM     36  C   UNL     1       1.764   1.164  -0.258  0.00  0.00    +0.006 A 
ATOM     37  C   UNL     1       3.100   1.033  -0.586  0.00  0.00    +0.038 A 
ATOM     38  C   UNL     1       3.462   0.528  -1.824  0.00  0.00    +0.123 A 
ATOM     39  C   UNL     1       2.485   0.156  -2.732  0.00  0.00    +0.038 A 
ATOM     40  C   UNL     1       1.149   0.283  -2.399  0.00  0.00    +0.006 A 
ATOM     41  F   UNL     1       4.768   0.400  -2.146  0.00  0.00    -0.205 F 
ENDBRANCH  34  35
ENDBRANCH  33  34
ENDBRANCH  28  33
ENDBRANCH   1  29
TORSDOF 7
