REMARK  Name = ZINC28126150
REMARK  4 active torsions:
REMARK  status: ('A' for Active; 'I' for Inactive)
REMARK    1  A    between atoms: C_4  and  C_7
REMARK    2  A    between atoms: C_7  and  C_9
REMARK    3  A    between atoms: C_14  and  O_15
REMARK    4  A    between atoms: C_23  and  N_26
REMARK                            x       y       z     vdW  Elec       q    Type
REMARK                         _______ _______ _______ _____ _____    ______ ____
ROOT
ATOM      1  C   UNL     1       0.148  -2.183   6.231  0.00  0.00    +0.066 A 
ATOM      2  C   UNL     1       0.121  -2.703   4.931  0.00  0.00    +0.019 A 
ATOM      3  C   UNL     1      -0.153  -1.877   3.868  0.00  0.00    +0.048 A 
ATOM      4  C   UNL     1      -0.406  -0.521   4.071  0.00  0.00    +0.143 A 
ATOM      5  C   UNL     1      -0.375   0.011   5.353  0.00  0.00    +0.112 A 
ATOM      6  C   UNL     1      -0.101  -0.820   6.438  0.00  0.00    +0.152 A 
ATOM      7  N   UNL     1      -0.603   1.373   5.596  0.00  0.00    -0.331 N 
ATOM      8  C   UNL     1      -1.301   2.028   4.486  0.00  0.00    +0.054 C 
ATOM      9  C   UNL     1      -2.749   1.540   4.425  0.00  0.00    +0.027 C 
ATOM     10  C   UNL     1      -3.463   1.897   5.731  0.00  0.00    +0.002 C 
ATOM     11  C   UNL     1      -3.441   3.414   5.926  0.00  0.00    +0.000 C 
ATOM     12  C   UNL     1      -1.991   3.900   5.989  0.00  0.00    +0.002 C 
ATOM     13  C   UNL     1      -1.278   3.544   4.683  0.00  0.00    +0.027 C 
ATOM     14  C   UNL     1      -0.588   1.674   3.175  0.00  0.00    +0.147 C 
ATOM     15  O   UNL     1      -0.679   0.258   2.989  0.00  0.00    -0.502 OA
ATOM     16  H   UNL     1      -0.322   1.954   6.488  0.00  0.00    +0.147 HD
ENDROOT
BRANCH  14  17
ATOM     17  N   UNL     1      -1.237   2.365   2.054  0.00  0.00    +0.406 N 
ATOM     18  C   UNL     1      -1.874   1.405   1.143  0.00  0.00    -0.073 C 
ATOM     19  C   UNL     1      -2.661   2.163   0.071  0.00  0.00    -0.018 C 
ATOM     20  C   UNL     1      -1.708   3.077  -0.705  0.00  0.00    -0.004 C 
ATOM     21  C   UNL     1      -1.021   4.034   0.274  0.00  0.00    -0.018 C 
ATOM     22  C   UNL     1      -0.282   3.221   1.339  0.00  0.00    -0.073 C 
ATOM     23  H   UNL     1      -2.026   3.012   2.464  0.00  0.00    -0.076 HD
ENDBRANCH  14  17
BRANCH   1  24
ATOM     24  C   UNL     1       0.438  -3.064   7.374  0.00  0.00    +0.197 C 
ATOM     25  O   UNL     1      -0.411  -3.834   7.779  0.00  0.00    -0.287 OA
BRANCH  24  29
ATOM     26  C   UNL     1       4.242  -2.915   9.258  0.00  0.00    +0.000 A 
ATOM     27  C   UNL     1       3.241  -3.710   9.789  0.00  0.00    +0.001 A 
ATOM     28  C   UNL     1       2.004  -3.763   9.182  0.00  0.00    +0.012 A 
ATOM     29  C   UNL     1       1.762  -3.012   8.030  0.00  0.00    +0.022 A 
ATOM     30  C   UNL     1       2.778  -2.216   7.497  0.00  0.00    +0.012 A 
ATOM     31  C   UNL     1       4.010  -2.169   8.117  0.00  0.00    +0.001 A 
ENDBRANCH  24  29
ENDBRANCH   1  24
BRANCH   6  32
ATOM     32  O   UNL     1      -0.077  -0.308   7.695  0.00  0.00    -0.504 OA
ATOM     33  H   UNL     1      -0.273   0.762   7.858  0.00  0.00    +0.292 HD
ENDBRANCH   6  32
TORSDOF 4
