REMARK  Name = ZINC11855983
REMARK  5 active torsions:
REMARK  status: ('A' for Active; 'I' for Inactive)
REMARK    1  A    between atoms: C_4  and  C_7
REMARK    2  A    between atoms: C_7  and  C_8
REMARK    3  A    between atoms: C_7  and  C_14
REMARK    4  A    between atoms: N_16  and  C_17
REMARK    5  A    between atoms: C_19  and  C_34
REMARK                            x       y       z     vdW  Elec       q    Type
REMARK                         _______ _______ _______ _____ _____    ______ ____
ROOT
ATOM      1  C   UNL     1       0.062   3.008   0.776  0.00  0.00    +0.132 A 
ATOM      2  C   UNL     1      -1.259   2.712   0.864  0.00  0.00    +0.074 A 
ATOM      3  C   UNL     1      -1.375   1.333   1.142  0.00  0.00    +0.102 A 
ATOM      4  N   UNL     1      -0.162   0.824   1.210  0.00  0.00    -0.162 NA
ATOM      5  N   UNL     1       0.761   1.854   0.991  0.00  0.00    -0.185 N 
ATOM      6  C   UNL     1       2.136   1.724   0.987  0.00  0.00    +0.234 A 
ATOM      7  N   UNL     1       2.694   0.506   1.217  0.00  0.00    -0.291 N 
ATOM      8  H   UNL     1       2.131  -0.266   1.384  0.00  0.00    +0.172 HD
ATOM      9  C   UNL     1       4.036   0.379   1.212  0.00  0.00    +0.256 A 
ATOM     10  O   UNL     1       4.556  -0.706   1.415  0.00  0.00    -0.267 OA
ATOM     11  C   UNL     1       4.833   1.520   0.968  0.00  0.00    +0.038 A 
ATOM     12  C   UNL     1       4.221   2.708   0.736  0.00  0.00    +0.053 A 
ATOM     13  N   UNL     1       2.884   2.778   0.754  0.00  0.00    -0.217 NA
ATOM     14  C   UNL     1       4.986   3.973   0.445  0.00  0.00    +0.056 C 
ATOM     15  C   UNL     1       6.441   3.835   0.888  0.00  0.00    +0.006 C 
ATOM     16  C   UNL     1       7.006   2.539   0.295  0.00  0.00    +0.005 C 
ATOM     17  C   UNL     1       6.329   1.358   0.988  0.00  0.00    +0.042 C 
ENDROOT
BRANCH   3  18
ATOM     18  C   UNL     1      -2.640   0.588   1.318  0.00  0.00    +0.039 A 
ATOM     19  C   UNL     1      -2.828  -0.741   1.587  0.00  0.00    +0.018 A 
ATOM     20  C   UNL     1      -4.115  -1.216   1.709  0.00  0.00    +0.008 A 
ATOM     21  C   UNL     1      -5.155  -0.356   1.560  0.00  0.00    +0.046 A 
ATOM     22  S   UNL     1      -4.319   1.189   1.242  0.00  0.00    -0.095 S 
ENDBRANCH   3  18
BRANCH   1  25
ATOM     23  C   UNL     1      -0.201   5.322   0.320  0.00  0.00    +0.230 C 
ATOM     24  O   UNL     1      -1.405   5.184   0.374  0.00  0.00    -0.274 OA
ATOM     25  N   UNL     1       0.608   4.263   0.514  0.00  0.00    -0.269 N 
ATOM     26  H   UNL     1       1.571   4.373   0.471  0.00  0.00    +0.156 HD
BRANCH  23  27
ATOM     27  C   UNL     1       0.389   6.680   0.036  0.00  0.00    +0.135 C 
BRANCH  27  31
ATOM     28  C   UNL     1       2.724   6.499  -3.536  0.00  0.00    +0.000 A 
ATOM     29  C   UNL     1       1.428   6.017  -3.532  0.00  0.00    +0.000 A 
ATOM     30  C   UNL     1       0.673   6.075  -2.376  0.00  0.00    +0.005 A 
ATOM     31  C   UNL     1       1.213   6.616  -1.224  0.00  0.00    -0.031 A 
ATOM     32  C   UNL     1       2.507   7.102  -1.229  0.00  0.00    +0.005 A 
ATOM     33  C   UNL     1       3.264   7.039  -2.384  0.00  0.00    +0.000 A 
ENDBRANCH  27  31
BRANCH  27  34
ATOM     34  C   UNL     1      -0.721   7.684  -0.139  0.00  0.00    -0.031 A 
ATOM     35  C   UNL     1      -1.733   7.442  -1.049  0.00  0.00    +0.005 A 
ATOM     36  C   UNL     1      -2.754   8.361  -1.207  0.00  0.00    +0.000 A 
ATOM     37  C   UNL     1      -2.757   9.525  -0.462  0.00  0.00    +0.000 A 
ATOM     38  C   UNL     1      -1.742   9.769   0.444  0.00  0.00    +0.000 A 
ATOM     39  C   UNL     1      -0.724   8.848   0.605  0.00  0.00    +0.005 A 
ENDBRANCH  27  34
ENDBRANCH  23  27
ENDBRANCH   1  25
TORSDOF 5
