REMARK  Name = ZINC63831407
REMARK  8 active torsions:
REMARK  status: ('A' for Active; 'I' for Inactive)
REMARK    1  A    between atoms: C_1  and  C_2
REMARK    2  A    between atoms: C_4  and  N_17
REMARK    3  A    between atoms: N_8  and  C_11
REMARK    4  A    between atoms: N_9  and  C_10
REMARK    5  A    between atoms: C_18  and  C_20
REMARK    6  A    between atoms: C_20  and  N_21
REMARK    7  A    between atoms: C_24  and  C_29
REMARK    8  A    between atoms: C_29  and  C_30
REMARK                            x       y       z     vdW  Elec       q    Type
REMARK                         _______ _______ _______ _____ _____    ______ ____
ROOT
ATOM      1  C   UNL     1      -3.887  -2.631  -1.631  0.00  0.00    +0.213 C 
ENDROOT
BRANCH   1   2
ATOM      2  N   UNL     1      -5.274  -2.331  -1.995  0.00  0.00    -0.216 N 
ATOM      3  C   UNL     1      -6.332  -2.546  -1.189  0.00  0.00    +0.244 C 
ATOM      4  O   UNL     1      -6.317  -3.008  -0.068  0.00  0.00    -0.273 OA
ATOM      5  C   UNL     1      -7.546  -2.091  -1.975  0.00  0.00    +0.165 C 
ATOM      6  N   UNL     1      -6.977  -1.628  -3.252  0.00  0.00    -0.287 N 
ATOM      7  C   UNL     1      -5.646  -1.804  -3.167  0.00  0.00    +0.310 C 
ATOM      8  O   UNL     1      -4.868  -1.518  -4.056  0.00  0.00    -0.252 OA
ATOM      9  H   UNL     1      -7.466  -1.265  -4.007  0.00  0.00    +0.151 HD
BRANCH   5  10
ATOM     10  C   UNL     1      -8.509  -3.258  -2.202  0.00  0.00    +0.065 C 
BRANCH  10  11
ATOM     11  C   UNL     1      -9.759  -2.753  -2.876  0.00  0.00    -0.039 C 
ATOM     12  C   UNL     1     -10.025  -2.755  -4.202  0.00  0.00    -0.001 A 
ATOM     13  C   UNL     1      -9.259  -3.207  -5.369  0.00  0.00    +0.010 A 
ATOM     14  C   UNL     1      -9.801  -3.074  -6.601  0.00  0.00    +0.001 A 
ATOM     15  C   UNL     1     -11.072  -2.516  -6.790  0.00  0.00    +0.002 A 
ATOM     16  C   UNL     1     -11.836  -2.077  -5.768  0.00  0.00    +0.026 A 
ATOM     17  C   UNL     1     -11.365  -2.169  -4.428  0.00  0.00    +0.043 A 
ATOM     18  N   UNL     1     -11.907  -1.819  -3.287  0.00  0.00    -0.380 N 
ATOM     19  C   UNL     1     -10.973  -2.149  -2.205  0.00  0.00    +0.144 C 
ATOM     20  H   UNL     1     -12.781  -1.413  -3.176  0.00  0.00    +0.160 HD
ENDBRANCH  10  11
ENDBRANCH   5  10
ENDBRANCH   1   2
BRANCH   1  22
ATOM     21  N   UNL     1      -1.992  -1.474  -0.540  0.00  0.00    -0.301 N 
ATOM     22  C   UNL     1      -3.271  -1.429  -0.963  0.00  0.00    +0.232 C 
ATOM     23  O   UNL     1      -3.926  -0.420  -0.807  0.00  0.00    -0.274 OA
ATOM     24  H   UNL     1      -1.469  -2.281  -0.665  0.00  0.00    +0.150 HD
BRANCH  21  27
ATOM     25  C   UNL     1       0.695   1.111  -0.144  0.00  0.00    +0.028 C 
ATOM     26  C   UNL     1       0.146  -0.314  -0.051  0.00  0.00    +0.102 C 
ATOM     27  C   UNL     1      -1.394  -0.305   0.109  0.00  0.00    +0.179 C 
ATOM     28  C   UNL     1      -1.561  -0.373   1.616  0.00  0.00    +0.256 C 
ATOM     29  O   UNL     1      -2.579  -0.139   2.232  0.00  0.00    -0.272 OA
ATOM     30  N   UNL     1      -0.380  -0.739   2.148  0.00  0.00    -0.201 N 
ATOM     31  N   UNL     1       0.580  -0.968   1.206  0.00  0.00    -0.218 NA
ATOM     32  C   UNL     1       0.787  -2.408   1.005  0.00  0.00    +0.128 C 
BRANCH  30  33
ATOM     33  C   UNL     1      -0.160  -0.870   3.523  0.00  0.00    +0.053 A 
ATOM     34  C   UNL     1       0.964  -0.299   4.106  0.00  0.00    +0.025 A 
ATOM     35  C   UNL     1       1.179  -0.430   5.464  0.00  0.00    +0.002 A 
ATOM     36  C   UNL     1       0.277  -1.131   6.243  0.00  0.00    +0.000 A 
ATOM     37  C   UNL     1      -0.843  -1.702   5.667  0.00  0.00    +0.002 A 
ATOM     38  C   UNL     1      -1.067  -1.568   4.310  0.00  0.00    +0.025 A 
ENDBRANCH  30  33
ENDBRANCH  21  27
ENDBRANCH   1  22
TORSDOF 6
