REMARK  Name = ZINC10211221
REMARK  13 active torsions:
REMARK  status: ('A' for Active; 'I' for Inactive)
REMARK    1  A    between atoms: C_1  and  C_2
REMARK    2  A    between atoms: C_6  and  N_9
REMARK    3  A    between atoms: C_7  and  C_8
REMARK    4  A    between atoms: C_13  and  S_15
REMARK    5  A    between atoms: S_15  and  C_16
REMARK    6  A    between atoms: C_16  and  C_18
REMARK    7  A    between atoms: C_16  and  C_19
REMARK    8  A    between atoms: N_21  and  C_22
REMARK    9  A    between atoms: C_22  and  C_23
REMARK   10  A    between atoms: C_22  and  C_24
REMARK   11  A    between atoms: C_22  and  C_26
REMARK   12  A    between atoms: C_26  and  C_27
REMARK   13  A    between atoms: C_26  and  C_28
REMARK                            x       y       z     vdW  Elec       q    Type
REMARK                         _______ _______ _______ _____ _____    ______ ____
ROOT
ATOM      1  N   UNL     1       3.583   2.122  -0.020  0.00  0.00    -0.292 N 
ATOM      2  C   UNL     1       3.567   3.509  -0.117  0.00  0.00    +0.187 A 
ATOM      3  N   UNL     1       2.538   4.334  -0.128  0.00  0.00    -0.125 NA
ATOM      4  N   UNL     1       2.749   5.690  -0.230  0.00  0.00    -0.133 NA
ATOM      5  C   UNL     1       3.980   6.157  -0.327  0.00  0.00    +0.161 A 
ATOM      6  S   UNL     1       4.934   4.648  -0.269  0.00  0.00    -0.024 S 
ATOM      7  H   UNL     1       4.418   1.639  -0.114  0.00  0.00    +0.154 HD
ENDROOT
BRANCH   1  13
ATOM      8  C   UNL     1       1.177  -2.153   0.287  0.00  0.00    +0.044 C 
ATOM      9  C   UNL     1       1.199  -0.648   0.369  0.00  0.00    -0.046 A 
ATOM     10  C   UNL     1       0.042   0.044   0.678  0.00  0.00    +0.004 A 
ATOM     11  C   UNL     1       0.058   1.424   0.755  0.00  0.00    +0.002 A 
ATOM     12  C   UNL     1       1.231   2.117   0.524  0.00  0.00    +0.023 A 
ATOM     13  C   UNL     1       2.395   1.425   0.214  0.00  0.00    +0.036 A 
ATOM     14  C   UNL     1       2.375   0.037   0.138  0.00  0.00    -0.026 A 
ATOM     15  C   UNL     1       3.635  -0.718  -0.198  0.00  0.00    +0.046 C 
ENDBRANCH   1  13
BRANCH   5  16
ATOM     16  S   UNL     1       4.533   7.824  -0.473  0.00  0.00    -0.084 S 
BRANCH  16  17
ATOM     17  C   UNL     1       3.002   8.797  -0.463  0.00  0.00    +0.136 C 
ATOM     18  C   UNL     1       2.313   8.650   0.895  0.00  0.00    +0.029 C 
BRANCH  17  19
ATOM     19  C   UNL     1       3.328  10.248  -0.707  0.00  0.00    +0.227 C 
ATOM     20  O   UNL     1       4.452  10.658  -0.513  0.00  0.00    -0.275 OA
ATOM     21  N   UNL     1       2.369  11.090  -1.140  0.00  0.00    -0.296 N 
ATOM     22  H   UNL     1       1.469  10.762  -1.295  0.00  0.00    +0.150 HD
BRANCH  21  23
ATOM     23  C   UNL     1       2.685  12.501  -1.377  0.00  0.00    +0.121 C 
ATOM     24  C   UNL     1       3.177  13.138  -0.076  0.00  0.00    +0.048 C 
BRANCH  23  25
ATOM     25  C   UNL     1       1.431  13.231  -1.860  0.00  0.00    +0.020 C 
ATOM     26  C   UNL     1       0.381  13.233  -0.747  0.00  0.00    +0.010 C 
ATOM     27  C   UNL     1       1.789  14.673  -2.226  0.00  0.00    +0.010 C 
ENDBRANCH  23  25
BRANCH  23  28
ATOM     28  C   UNL     1       3.737  12.602  -2.402  0.00  0.00    +0.088 C 
ATOM     29  N   UNL     1       4.549  12.681  -3.192  0.00  0.00    -0.194 NA
ENDBRANCH  23  28
ENDBRANCH  21  23
ENDBRANCH  17  19
ENDBRANCH  16  17
ENDBRANCH   5  16
TORSDOF 7
