REMARK  Name = ZINC17951832
REMARK  11 active torsions:
REMARK  status: ('A' for Active; 'I' for Inactive)
REMARK    1  A    between atoms: C_1  and  C_2
REMARK    2  A    between atoms: C_2  and  C_3
REMARK    3  A    between atoms: C_2  and  C_4
REMARK    4  A    between atoms: C_4  and  N_5
REMARK    5  A    between atoms: C_6  and  N_35
REMARK    6  A    between atoms: C_7  and  C_14
REMARK    7  A    between atoms: N_10  and  C_13
REMARK    8  A    between atoms: C_14  and  C_16
REMARK    9  A    between atoms: C_16  and  S_17
REMARK   10  A    between atoms: S_17  and  C_18
REMARK   11  A    between atoms: N_22  and  C_23
REMARK                            x       y       z     vdW  Elec       q    Type
REMARK                         _______ _______ _______ _____ _____    ______ ____
ROOT
ATOM      1  C   UNL     1       8.149   4.387   1.224  0.00  0.00    +0.157 C 
ENDROOT
BRANCH   1   2
ATOM      2  C   UNL     1       9.174   5.477   1.043  0.00  0.00    +0.182 C 
ATOM      3  O   UNL     1       8.815   6.627   0.887  0.00  0.00    -0.291 OA
BRANCH   2   6
ATOM      4  N   UNL     1      12.844   5.817   1.019  0.00  0.00    -0.281 N 
ATOM      5  C   UNL     1      11.525   6.171   1.000  0.00  0.00    +0.116 A 
ATOM      6  C   UNL     1      10.549   5.162   1.054  0.00  0.00    +0.120 A 
ATOM      7  C   UNL     1      11.006   3.767   1.116  0.00  0.00    +0.269 A 
ATOM      8  O   UNL     1      10.205   2.852   1.159  0.00  0.00    -0.267 OA
ATOM      9  N   UNL     1      12.333   3.522   1.124  0.00  0.00    -0.263 N 
ATOM     10  C   UNL     1      13.220   4.530   1.077  0.00  0.00    +0.333 A 
ATOM     11  O   UNL     1      14.406   4.266   1.085  0.00  0.00    -0.246 OA
ATOM     12  C   UNL     1      12.812   2.139   1.185  0.00  0.00    +0.157 C 
BRANCH   5  13
ATOM     13  N   UNL     1      11.162   7.481   0.936  0.00  0.00    -0.344 N 
ATOM     14  H   UNL     1      10.229   7.721   0.828  0.00  0.00    +0.144 HD
ATOM     15  H   UNL     1      11.837   8.175   0.997  0.00  0.00    +0.144 HD
ENDBRANCH   5  13
BRANCH   4  16
ATOM     16  C   UNL     1      13.869   6.862   0.969  0.00  0.00    +0.131 C 
BRANCH  16  18
ATOM     17  C   UNL     1      13.004   7.755  -1.198  0.00  0.00    +0.009 C 
ATOM     18  C   UNL     1      14.222   7.161  -0.489  0.00  0.00    +0.003 C 
ATOM     19  C   UNL     1      15.379   8.161  -0.539  0.00  0.00    +0.009 C 
ENDBRANCH  16  18
ENDBRANCH   4  16
ENDBRANCH   2   6
ENDBRANCH   1   2
BRANCH   1  20
ATOM     20  S   UNL     1       6.484   5.105   1.162  0.00  0.00    -0.078 S 
BRANCH  20  21
ATOM     21  C   UNL     1       5.415   3.723   1.387  0.00  0.00    +0.198 A 
ATOM     22  N   UNL     1       5.789   2.478   1.556  0.00  0.00    -0.120 NA
ATOM     23  N   UNL     1       4.637   1.694   1.702  0.00  0.00    -0.112 NA
ATOM     24  C   UNL     1       3.595   2.482   1.609  0.00  0.00    +0.225 A 
ATOM     25  N   UNL     1       4.047   3.760   1.415  0.00  0.00    -0.259 N 
ATOM     26  N   UNL     1       2.265   2.091   1.698  0.00  0.00    -0.299 N 
ATOM     27  C   UNL     1       1.873   1.292   0.530  0.00  0.00    +0.108 C 
ATOM     28  C   UNL     1       0.371   1.003   0.590  0.00  0.00    +0.019 C 
ATOM     29  C   UNL     1       0.053   0.244   1.881  0.00  0.00    +0.003 C 
ATOM     30  C   UNL     1       0.515   1.077   3.080  0.00  0.00    +0.019 C 
ATOM     31  C   UNL     1       2.013   1.364   2.948  0.00  0.00    +0.108 C 
BRANCH  25  32
ATOM     32  C   UNL     1       3.249   4.904   1.271  0.00  0.00    +0.052 A 
ATOM     33  C   UNL     1       2.438   5.051   0.154  0.00  0.00    +0.026 A 
ATOM     34  C   UNL     1       1.649   6.176   0.018  0.00  0.00    +0.002 A 
ATOM     35  C   UNL     1       1.675   7.162   0.988  0.00  0.00    +0.000 A 
ATOM     36  C   UNL     1       2.486   7.021   2.099  0.00  0.00    +0.002 A 
ATOM     37  C   UNL     1       3.273   5.895   2.243  0.00  0.00    +0.026 A 
ENDBRANCH  25  32
ENDBRANCH  20  21
ENDBRANCH   1  20
TORSDOF 8
