REMARK  Name = ZINC60355070
REMARK  10 active torsions:
REMARK  status: ('A' for Active; 'I' for Inactive)
REMARK    1  A    between atoms: C_1  and  C_2
REMARK    2  A    between atoms: C_5  and  C_7
REMARK    3  A    between atoms: C_7  and  C_9
REMARK    4  A    between atoms: C_7  and  N_28
REMARK    5  A    between atoms: C_9  and  N_10
REMARK    6  A    between atoms: C_11  and  C_13
REMARK    7  A    between atoms: N_16  and  C_21
REMARK    8  A    between atoms: C_17  and  C_18
REMARK    9  A    between atoms: C_18  and  C_19
REMARK   10  A    between atoms: C_18  and  C_20
REMARK                            x       y       z     vdW  Elec       q    Type
REMARK                         _______ _______ _______ _____ _____    ______ ____
ROOT
ATOM      1  N   UNL     1       3.171  -4.472   1.597  0.00  0.00    -0.312 N 
ATOM      2  C   UNL     1       3.789  -5.271   2.489  0.00  0.00    +0.247 C 
ATOM      3  O   UNL     1       3.603  -5.110   3.680  0.00  0.00    -0.270 OA
ATOM      4  H   UNL     1       3.318  -4.601   0.646  0.00  0.00    +0.149 HD
ENDROOT
BRANCH   2   5
ATOM      5  C   UNL     1       4.690  -6.340   2.021  0.00  0.00    +0.078 A 
ATOM      6  C   UNL     1       4.918  -6.717   0.678  0.00  0.00    +0.148 A 
ATOM      7  N   UNL     1       5.779  -7.697   0.673  0.00  0.00    -0.174 NA
ATOM      8  N   UNL     1       6.139  -7.991   1.994  0.00  0.00    -0.236 N 
ATOM      9  C   UNL     1       5.474  -7.155   2.812  0.00  0.00    +0.060 A 
BRANCH   8  10
ATOM     10  C   UNL     1       7.042  -8.985   2.395  0.00  0.00    +0.067 A 
ATOM     11  C   UNL     1       7.905  -8.753   3.458  0.00  0.00    +0.028 A 
ATOM     12  C   UNL     1       8.794  -9.734   3.851  0.00  0.00    +0.003 A 
ATOM     13  C   UNL     1       8.826 -10.946   3.188  0.00  0.00    +0.020 A 
ATOM     14  C   UNL     1       7.968 -11.181   2.128  0.00  0.00    +0.043 A 
ATOM     15  C   UNL     1       7.072 -10.205   1.734  0.00  0.00    +0.047 A 
ATOM     16 CL   UNL     1       8.012 -12.705   1.297  0.00  0.00    -0.083 Cl
ENDBRANCH   8  10
BRANCH   9  17
ATOM     17  C   UNL     1       5.567  -7.118   4.316  0.00  0.00    +0.032 C 
ATOM     18  C   UNL     1       6.001  -5.721   4.765  0.00  0.00    +0.014 C 
ATOM     19  C   UNL     1       4.200  -7.446   4.920  0.00  0.00    +0.014 C 
ENDBRANCH   9  17
ENDBRANCH   2   5
BRANCH   1  20
ATOM     20  C   UNL     1       2.275  -3.411   2.062  0.00  0.00    +0.097 C 
BRANCH  20  21
ATOM     21  C   UNL     1       1.608  -2.742   0.858  0.00  0.00    +0.016 C 
BRANCH  21  26
ATOM     22  C   UNL     1      -2.384  -5.631  -0.215  0.00  0.00    +0.086 C 
ATOM     23  C   UNL     1      -1.022  -4.992  -0.304  0.00  0.00    +0.102 A 
ATOM     24  C   UNL     1      -0.099  -5.236  -1.251  0.00  0.00    +0.044 A 
ATOM     25  C   UNL     1       1.020  -4.426  -0.951  0.00  0.00    +0.043 A 
ATOM     26  C   UNL     1       0.714  -3.735   0.162  0.00  0.00    +0.093 A 
ATOM     27  O   UNL     1      -0.527  -4.078   0.546  0.00  0.00    -0.466 OA
ENDBRANCH  21  26
BRANCH  21  28
ATOM     28  N   UNL     1       0.808  -1.598   1.314  0.00  0.00    +0.387 N 
ATOM     29  C   UNL     1       1.695  -0.533   1.849  0.00  0.00    -0.078 C 
ATOM     30  C   UNL     1       0.821   0.742   1.746  0.00  0.00    -0.020 C 
ATOM     31  C   UNL     1       0.056   0.531   0.419  0.00  0.00    -0.020 C 
ATOM     32  C   UNL     1       0.091  -0.989   0.172  0.00  0.00    -0.078 C 
ATOM     33  H   UNL     1       0.151  -1.892   2.020  0.00  0.00    -0.081 HD
ENDBRANCH  21  28
ENDBRANCH  20  21
ENDBRANCH   1  20
TORSDOF 7
