REMARK  Name = ZINC09533347
REMARK  7 active torsions:
REMARK  status: ('A' for Active; 'I' for Inactive)
REMARK    1  A    between atoms: C_1  and  C_2
REMARK    2  A    between atoms: N_13  and  C_26
REMARK    3  A    between atoms: C_14  and  S_16
REMARK    4  A    between atoms: S_16  and  C_17
REMARK    5  A    between atoms: C_17  and  C_19
REMARK    6  A    between atoms: C_17  and  C_20
REMARK    7  A    between atoms: C_26  and  C_27
REMARK                            x       y       z     vdW  Elec       q    Type
REMARK                         _______ _______ _______ _____ _____    ______ ____
ROOT
ATOM      1  C   UNL     1      10.886   6.409  -0.468  0.00  0.00    +0.008 C 
ATOM      2  C   UNL     1       9.375   6.294  -0.255  0.00  0.00    -0.009 C 
ATOM      3  C   UNL     1       8.640   6.967  -1.417  0.00  0.00    +0.008 C 
ATOM      4  C   UNL     1       7.149   7.076  -1.096  0.00  0.00    +0.037 C 
ATOM      5  C   UNL     1       6.629   5.697  -0.697  0.00  0.00    -0.023 A 
ATOM      6  C   UNL     1       7.480   4.726  -0.311  0.00  0.00    -0.004 A 
ATOM      7  S   UNL     1       6.451   3.329   0.050  0.00  0.00    -0.073 S 
ATOM      8  C   UNL     1       4.874   4.057  -0.319  0.00  0.00    +0.117 A 
ATOM      9  C   UNL     1       5.203   5.364  -0.713  0.00  0.00    +0.076 A 
ATOM     10  C   UNL     1       4.101   6.201  -1.077  0.00  0.00    +0.264 A 
ATOM     11  O   UNL     1       4.290   7.352  -1.432  0.00  0.00    -0.267 OA
ATOM     12  N   UNL     1       2.853   5.700  -1.022  0.00  0.00    -0.280 N 
ATOM     13  C   UNL     1       2.623   4.414  -0.627  0.00  0.00    +0.174 A 
ATOM     14  N   UNL     1       3.619   3.624  -0.281  0.00  0.00    -0.216 NA
ATOM     15  C   UNL     1       8.973   4.813  -0.210  0.00  0.00    +0.046 C 
ENDROOT
BRANCH  13  16
ATOM     16  S   UNL     1       0.971   3.804  -0.571  0.00  0.00    -0.075 S 
BRANCH  16  17
ATOM     17  C   UNL     1       1.278   2.115   0.001  0.00  0.00    +0.137 C 
ATOM     18  C   UNL     1       1.858   2.153   1.417  0.00  0.00    +0.029 C 
BRANCH  17  19
ATOM     19  C   UNL     1      -0.016   1.344   0.009  0.00  0.00    +0.233 C 
ATOM     20  O   UNL     1      -1.074   1.935   0.018  0.00  0.00    -0.274 OA
ATOM     21  N   UNL     1       0.002  -0.004   0.002  0.00  0.00    -0.239 N 
ATOM     22  C   UNL     1      -1.156  -0.694   0.009  0.00  0.00    +0.303 C 
ATOM     23  O   UNL     1      -2.216  -0.101   0.023  0.00  0.00    -0.253 OA
ATOM     24  N   UNL     1      -1.137  -2.041   0.002  0.00  0.00    -0.313 N 
ATOM     25  H   UNL     1       0.849  -0.478  -0.009  0.00  0.00    +0.159 HD
ATOM     26  H   UNL     1      -0.291  -2.515  -0.009  0.00  0.00    +0.146 HD
ATOM     27  H   UNL     1      -1.971  -2.538   0.007  0.00  0.00    +0.146 HD
ENDBRANCH  17  19
ENDBRANCH  16  17
ENDBRANCH  13  16
BRANCH  12  28
ATOM     28  C   UNL     1       1.720   6.551  -1.395  0.00  0.00    +0.201 C 
BRANCH  28  29
ATOM     29  C   UNL     1       1.216   7.278  -0.175  0.00  0.00    +0.125 A 
ATOM     30  C   UNL     1       1.642   8.478   0.258  0.00  0.00    +0.046 A 
ATOM     31  C   UNL     1       0.902   8.779   1.425  0.00  0.00    +0.041 A 
ATOM     32  C   UNL     1       0.074   7.741   1.640  0.00  0.00    +0.195 A 
ATOM     33  O   UNL     1       0.268   6.835   0.668  0.00  0.00    -0.466 OA
ENDBRANCH  28  29
ENDBRANCH  12  28
TORSDOF 5
