REMARK  Name = ZINC43735689
REMARK  13 active torsions:
REMARK  status: ('A' for Active; 'I' for Inactive)
REMARK    1  A    between atoms: C_1  and  C_2
REMARK    2  A    between atoms: C_5  and  O_40
REMARK    3  A    between atoms: C_7  and  C_38
REMARK    4  A    between atoms: C_7  and  C_39
REMARK    5  A    between atoms: C_12  and  C_37
REMARK    6  A    between atoms: C_20  and  C_30
REMARK    7  A    between atoms: C_20  and  C_31
REMARK    8  A    between atoms: C_24  and  C_29
REMARK    9  A    between atoms: C_27  and  C_28
REMARK   10  A    between atoms: C_31  and  O_33
REMARK   11  A    between atoms: O_33  and  C_34
REMARK   12  A    between atoms: C_34  and  C_35
REMARK   13  A    between atoms: C_35  and  N_36
REMARK                            x       y       z     vdW  Elec       q    Type
REMARK                         _______ _______ _______ _____ _____    ______ ____
ROOT
ATOM      1  C   UNL     1      -0.507   1.510  -0.574  0.00  0.00    +0.012 C 
ATOM      2  C   UNL     1      -0.415  -0.029  -0.499  0.00  0.00    -0.022 C 
ATOM      3  C   UNL     1      -0.102  -0.459  -1.940  0.00  0.00    +0.010 C 
ATOM      4  C   UNL     1       0.307  -1.925  -1.990  0.00  0.00    +0.032 C 
ATOM      5  C   UNL     1       1.624  -2.062  -1.228  0.00  0.00    +0.120 C 
ATOM      6  C   UNL     1       1.407  -1.718   0.248  0.00  0.00    -0.006 C 
ATOM      7  C   UNL     1       0.709  -0.392   0.454  0.00  0.00    +0.004 C 
ATOM      8  C   UNL     1       0.322  -0.158   1.909  0.00  0.00    +0.005 C 
ATOM      9  C   UNL     1      -1.007  -0.766   2.328  0.00  0.00    +0.008 C 
ATOM     10  C   UNL     1      -2.131  -0.394   1.374  0.00  0.00    -0.016 C 
ATOM     11  C   UNL     1      -1.734  -0.640  -0.069  0.00  0.00    +0.025 C 
ATOM     12  C   UNL     1      -2.868  -0.330  -0.996  0.00  0.00    -0.022 C 
ATOM     13  C   UNL     1      -4.139  -0.360  -0.606  0.00  0.00    +0.000 C 
ATOM     14  C   UNL     1      -4.497  -0.665   0.797  0.00  0.00    -0.041 C 
ATOM     15  C   UNL     1      -5.740  -0.469   1.218  0.00  0.00    -0.052 C 
ATOM     16  C   UNL     1      -6.783  -0.003   0.227  0.00  0.00    +0.050 C 
ATOM     17  C   UNL     1      -8.035  -0.874   0.321  0.00  0.00    +0.075 C 
ATOM     18  C   UNL     1      -8.601  -0.807   1.741  0.00  0.00    +0.093 C 
ATOM     19  C   UNL     1      -7.545  -1.278   2.708  0.00  0.00    +0.144 C 
ATOM     20  O   UNL     1      -7.812  -2.113   3.540  0.00  0.00    -0.296 OA
ATOM     21  C   UNL     1      -6.153  -0.703   2.642  0.00  0.00    +0.048 C 
ATOM     22  C   UNL     1      -5.186  -1.623   3.374  0.00  0.00    +0.019 C 
ATOM     23  C   UNL     1      -3.748  -1.159   3.154  0.00  0.00    +0.013 C 
ATOM     24  C   UNL     1      -3.401  -1.206   1.680  0.00  0.00    -0.001 C 
ATOM     25  C   UNL     1      -3.188  -2.675   1.313  0.00  0.00    +0.016 C 
ATOM     26  C   UNL     1      -6.175   0.650   3.361  0.00  0.00    +0.024 C 
ATOM     27  C   UNL     1      -7.679  -2.321  -0.024  0.00  0.00    +0.023 C 
ATOM     28  C   UNL     1      -2.509   1.077   1.615  0.00  0.00    +0.012 C 
ATOM     29  C   UNL     1       0.683  -2.891   0.911  0.00  0.00    +0.014 C 
ATOM     30  C   UNL     1       2.814  -1.630   0.886  0.00  0.00    +0.014 C 
ENDROOT
BRANCH  17  31
ATOM     31  C   UNL     1      -9.067  -0.368  -0.654  0.00  0.00    +0.314 C 
ATOM     32  O   UNL     1      -8.823   0.589  -1.350  0.00  0.00    -0.250 OA
BRANCH  31  33
ATOM     33  O   UNL     1     -10.257  -0.981  -0.750  0.00  0.00    -0.466 OA
BRANCH  33  34
ATOM     34  C   UNL     1     -11.187  -0.448  -1.696  0.00  0.00    +0.213 C 
BRANCH  34  35
ATOM     35  C   UNL     1     -12.476  -1.271  -1.663  0.00  0.00    -0.045 C 
BRANCH  35  36
ATOM     36  N   UNL     1     -13.123  -1.117  -0.352  0.00  0.00    +0.380 N 
ATOM     37  H   UNL     1     -12.498  -1.441   0.371  0.00  0.00    -0.090 HD
ATOM     38  H   UNL     1     -13.341  -0.144  -0.197  0.00  0.00    -0.090 HD
ATOM     39  H   UNL     1     -13.973  -1.660  -0.331  0.00  0.00    -0.090 HD
ENDBRANCH  35  36
ENDBRANCH  34  35
ENDBRANCH  33  34
ENDBRANCH  31  33
ENDBRANCH  17  31
BRANCH   5  40
ATOM     40  O   UNL     1       2.099  -3.407  -1.335  0.00  0.00    -0.391 OA
ATOM     41  H   UNL     1       2.263  -3.695  -2.243  0.00  0.00    +0.210 HD
ENDBRANCH   5  40
TORSDOF 6
