REMARK  Name = ZINC32738669
REMARK  10 active torsions:
REMARK  status: ('A' for Active; 'I' for Inactive)
REMARK    1  A    between atoms: C_1  and  C_2
REMARK    2  A    between atoms: C_9  and  C_16
REMARK    3  A    between atoms: C_11  and  O_12
REMARK    4  A    between atoms: C_16  and  O_17
REMARK    5  A    between atoms: O_17  and  C_18
REMARK    6  A    between atoms: C_18  and  C_20
REMARK    7  A    between atoms: C_20  and  C_21
REMARK    8  A    between atoms: C_21  and  N_22
REMARK    9  A    between atoms: N_22  and  S_23
REMARK   10  A    between atoms: S_23  and  C_26
REMARK                            x       y       z     vdW  Elec       q    Type
REMARK                         _______ _______ _______ _____ _____    ______ ____
ROOT
ATOM      1  C   UNL     1       0.478  -7.013   0.429  0.00  0.00    +0.268 C 
ENDROOT
BRANCH   1  10
ATOM      2  C   UNL     1      -2.193   1.470   0.609  0.00  0.00    +0.109 C 
ATOM      3  C   UNL     1      -2.168  -0.036   0.609  0.00  0.00    +0.214 C 
ATOM      4  O   UNL     1      -3.058  -0.658   1.150  0.00  0.00    -0.276 OA
ATOM      5  N   UNL     1      -1.156  -0.694   0.009  0.00  0.00    -0.286 N 
ATOM      6  C   UNL     1      -1.081  -2.085   0.091  0.00  0.00    +0.037 A 
ATOM      7  C   UNL     1       0.164  -2.708   0.166  0.00  0.00    +0.024 A 
ATOM      8  C   UNL     1       0.253  -4.066   0.253  0.00  0.00    +0.014 A 
ATOM      9  C   UNL     1      -0.913  -4.841   0.254  0.00  0.00    +0.024 A 
ATOM     10  C   UNL     1      -0.848  -6.301   0.341  0.00  0.00    +0.007 A 
ATOM     11  C   UNL     1      -2.014  -6.998   0.339  0.00  0.00    +0.095 A 
ATOM     12  C   UNL     1      -3.242  -6.309   0.254  0.00  0.00    +0.285 A 
ATOM     13  O   UNL     1      -3.295  -4.971   0.176  0.00  0.00    -0.425 OA
ATOM     14  C   UNL     1      -2.173  -4.219   0.173  0.00  0.00    +0.141 A 
ATOM     15  C   UNL     1      -2.246  -2.837   0.092  0.00  0.00    +0.070 A 
ATOM     16  H   UNL     1      -0.388  -0.134  -0.545  0.00  0.00    +0.155 HD
BRANCH  12  17
ATOM     17  O   UNL     1      -4.280  -6.946   0.253  0.00  0.00    -0.480 OA
ATOM     18  H   UNL     1      -5.246  -6.423   0.188  0.00  0.00    +0.295 HD
ENDBRANCH  12  17
ENDBRANCH   1  10
BRANCH   1  19
ATOM     19  O   UNL     1       0.255  -8.445   0.503  0.00  0.00    -0.460 OA
BRANCH  19  20
ATOM     20  C   UNL     1       1.342  -9.228   0.587  0.00  0.00    +0.309 C 
ATOM     21  O   UNL     1       2.444  -8.732   0.599  0.00  0.00    -0.251 OA
BRANCH  20  22
ATOM     22  C   UNL     1       1.189 -10.725   0.668  0.00  0.00    +0.137 C 
BRANCH  22  23
ATOM     23  C   UNL     1       2.571 -11.376   0.755  0.00  0.00    +0.117 C 
BRANCH  23  24
ATOM     24  N   UNL     1       2.421 -12.831   0.833  0.00  0.00    -0.189 NA
ATOM     25  H   UNL     1       1.493 -13.268   1.228  0.00  0.00    +0.148 HD
BRANCH  24  26
ATOM     26  S   UNL     1       3.728 -13.813   0.564  0.00  0.00    +0.058 S 
ATOM     27  O   UNL     1       3.274 -15.148   0.736  0.00  0.00    -0.153 OA
ATOM     28  O   UNL     1       4.333 -13.363  -0.640  0.00  0.00    -0.153 OA
BRANCH  26  29
ATOM     29  C   UNL     1       4.886 -13.504   1.856  0.00  0.00    +0.105 A 
ATOM     30  C   UNL     1       5.852 -12.529   1.698  0.00  0.00    +0.031 A 
ATOM     31  C   UNL     1       6.758 -12.283   2.713  0.00  0.00    +0.040 A 
ATOM     32  C   UNL     1       6.704 -13.021   3.883  0.00  0.00    +0.124 A 
ATOM     33  C   UNL     1       5.738 -14.001   4.037  0.00  0.00    +0.040 A 
ATOM     34  C   UNL     1       4.830 -14.242   3.024  0.00  0.00    +0.031 A 
ATOM     35  F   UNL     1       7.592 -12.785   4.873  0.00  0.00    -0.205 F 
ENDBRANCH  26  29
ENDBRANCH  24  26
ENDBRANCH  23  24
ENDBRANCH  22  23
ENDBRANCH  20  22
ENDBRANCH  19  20
ENDBRANCH   1  19
TORSDOF 9
