REMARK  Name = ZINC65411301
REMARK  12 active torsions:
REMARK  status: ('A' for Active; 'I' for Inactive)
REMARK    1  A    between atoms: C_1  and  C_2
REMARK    2  A    between atoms: C_5  and  N_22
REMARK    3  A    between atoms: C_7  and  N_8
REMARK    4  A    between atoms: N_11  and  C_12
REMARK    5  A    between atoms: C_12  and  C_13
REMARK    6  A    between atoms: C_12  and  C_14
REMARK    7  A    between atoms: C_15  and  C_21
REMARK    8  A    between atoms: N_17  and  C_20
REMARK    9  A    between atoms: C_18  and  C_19
REMARK   10  A    between atoms: C_23  and  C_25
REMARK   11  A    between atoms: C_25  and  C_26
REMARK   12  A    between atoms: C_25  and  C_27
REMARK                            x       y       z     vdW  Elec       q    Type
REMARK                         _______ _______ _______ _____ _____    ______ ____
ROOT
ATOM      1  N   UNL     1       0.542  -0.225   2.862  0.00  0.00    -0.269 N 
ATOM      2  C   UNL     1       0.846  -0.804   4.041  0.00  0.00    +0.304 C 
ATOM      3  O   UNL     1       0.805  -2.014   4.153  0.00  0.00    -0.252 OA
ATOM      4  N   UNL     1       1.194  -0.041   5.096  0.00  0.00    -0.292 N 
ATOM      5  H   UNL     1       0.636   0.734   2.754  0.00  0.00    +0.156 HD
ATOM      6  H   UNL     1       1.227   0.924   5.007  0.00  0.00    +0.151 HD
ENDROOT
BRANCH   1  13
ATOM      7  C   UNL     1      -1.231   0.962   0.982  0.00  0.00    +0.045 C 
ATOM      8  C   UNL     1      -0.775  -0.469   0.852  0.00  0.00    -0.029 A 
ATOM      9  C   UNL     1      -1.216  -1.240  -0.206  0.00  0.00    +0.007 A 
ATOM     10  C   UNL     1      -0.801  -2.552  -0.329  0.00  0.00    +0.024 A 
ATOM     11  C   UNL     1       0.061  -3.100   0.613  0.00  0.00    +0.035 A 
ATOM     12  C   UNL     1       0.505  -2.328   1.677  0.00  0.00    +0.047 A 
ATOM     13  C   UNL     1       0.091  -1.009   1.794  0.00  0.00    +0.039 A 
BRANCH  11  14
ATOM     14  N   UNL     1       0.480  -4.429   0.489  0.00  0.00    -0.285 N 
ATOM     15  C   UNL     1       0.701  -4.955  -0.733  0.00  0.00    +0.220 C 
ATOM     16  O   UNL     1       0.626  -4.252  -1.718  0.00  0.00    -0.275 OA
ATOM     17  H   UNL     1       0.612  -4.972   1.282  0.00  0.00    +0.155 HD
BRANCH  15  18
ATOM     18  C   UNL     1       1.042  -6.416  -0.874  0.00  0.00    +0.069 C 
ATOM     19  C   UNL     1      -0.099  -7.263  -0.308  0.00  0.00    +0.017 C 
ATOM     20  C   UNL     1       1.242  -6.752  -2.353  0.00  0.00    +0.017 C 
ENDBRANCH  15  18
ENDBRANCH  11  14
ENDBRANCH   1  13
BRANCH   4  21
ATOM     21  C   UNL     1       1.525  -0.670   6.377  0.00  0.00    +0.105 C 
ATOM     22  C   UNL     1       0.234  -1.036   7.113  0.00  0.00    +0.033 C 
BRANCH  21  23
ATOM     23  C   UNL     1       2.326   0.292   7.217  0.00  0.00    +0.016 A 
ATOM     24  C   UNL     1       2.004   1.629   7.470  0.00  0.00    +0.065 A 
ATOM     25  N   UNL     1       2.936   2.135   8.237  0.00  0.00    -0.176 NA
ATOM     26  N   UNL     1       3.881   1.135   8.496  0.00  0.00    -0.271 N 
ATOM     27  C   UNL     1       3.482   0.012   7.863  0.00  0.00    +0.041 A 
ATOM     28  C   UNL     1       4.196  -1.315   7.872  0.00  0.00    +0.065 C 
ATOM     29  C   UNL     1       5.088   1.280   9.314  0.00  0.00    +0.172 C 
ATOM     30  C   UNL     1       0.794   2.360   6.950  0.00  0.00    +0.068 C 
ENDBRANCH  21  23
ENDBRANCH   4  21
TORSDOF 5
