REMARK  Name = ZINC64980973
REMARK  11 active torsions:
REMARK  status: ('A' for Active; 'I' for Inactive)
REMARK    1  A    between atoms: C_1  and  C_2
REMARK    2  A    between atoms: C_2  and  O_3
REMARK    3  A    between atoms: O_3  and  C_4
REMARK    4  A    between atoms: C_4  and  C_6
REMARK    5  A    between atoms: C_10  and  N_11
REMARK    6  A    between atoms: C_12  and  C_14
REMARK    7  A    between atoms: C_14  and  C_15
REMARK    8  A    between atoms: C_27  and  C_31
REMARK    9  A    between atoms: C_31  and  C_32
REMARK   10  A    between atoms: C_31  and  C_33
REMARK   11  A    between atoms: C_31  and  C_34
REMARK                            x       y       z     vdW  Elec       q    Type
REMARK                         _______ _______ _______ _____ _____    ______ ____
ROOT
ATOM      1  C   UNL     1      -2.842  -2.416   0.016  0.00  0.00    +0.091 A 
ATOM      2  C   UNL     1      -3.548  -2.714  -1.219  0.00  0.00    -0.021 A 
ATOM      3  C   UNL     1      -4.777  -3.242  -1.039  0.00  0.00    -0.004 A 
ATOM      4  S   UNL     1      -4.974  -3.335   0.716  0.00  0.00    -0.077 S 
ATOM      5  C   UNL     1      -3.495  -2.708   1.205  0.00  0.00    +0.086 A 
ATOM      6  C   UNL     1      -5.745  -3.651  -2.106  0.00  0.00    +0.046 C 
ATOM      7  C   UNL     1      -5.287  -3.033  -3.435  0.00  0.00    -0.000 C 
ATOM      8  C   UNL     1      -3.790  -3.300  -3.616  0.00  0.00    +0.009 C 
ATOM      9  C   UNL     1      -2.988  -2.468  -2.612  0.00  0.00    +0.037 C 
ENDROOT
BRANCH   5  10
ATOM     10  N   UNL     1      -3.033  -2.524   2.498  0.00  0.00    -0.279 N 
ATOM     11  C   UNL     1      -3.808  -2.867   3.546  0.00  0.00    +0.219 C 
ATOM     12  O   UNL     1      -4.910  -3.337   3.357  0.00  0.00    -0.275 OA
ATOM     13  H   UNL     1      -2.152  -2.147   2.650  0.00  0.00    +0.155 HD
BRANCH  11  14
ATOM     14  C   UNL     1      -3.306  -2.666   4.953  0.00  0.00    +0.120 C 
BRANCH  14  15
ATOM     15  C   UNL     1      -4.372  -3.133   5.946  0.00  0.00    +0.149 C 
ATOM     16  C   UNL     1      -3.919  -2.922   7.378  0.00  0.00    +0.235 C 
ATOM     17  O   UNL     1      -3.679  -1.814   7.809  0.00  0.00    -0.274 OA
ATOM     18  N   UNL     1      -3.795  -4.010   8.143  0.00  0.00    -0.250 N 
ATOM     19  C   UNL     1      -3.381  -3.918   9.573  0.00  0.00    +0.117 C 
ATOM     20  C   UNL     1      -3.970  -5.126  10.307  0.00  0.00    +0.043 C 
ATOM     21  C   UNL     1      -3.528  -6.419   9.619  0.00  0.00    +0.145 C 
ATOM     22  N   UNL     1      -3.966  -6.400   8.216  0.00  0.00    -0.263 NA
ATOM     23  C   UNL     1      -4.061  -5.266   7.605  0.00  0.00    +0.159 C 
ATOM     24  S   UNL     1      -4.548  -4.965   5.923  0.00  0.00    -0.077 S 
ENDBRANCH  14  15
ENDBRANCH  11  14
ENDBRANCH   5  10
BRANCH   7  25
ATOM     25  C   UNL     1      -6.066  -3.666  -4.590  0.00  0.00    -0.035 C 
ATOM     26  C   UNL     1      -7.562  -3.409  -4.398  0.00  0.00    +0.011 C 
ATOM     27  C   UNL     1      -5.608  -3.049  -5.913  0.00  0.00    +0.011 C 
ATOM     28  C   UNL     1      -5.807  -5.174  -4.614  0.00  0.00    +0.011 C 
ENDBRANCH   7  25
BRANCH   1  29
ATOM     29  C   UNL     1      -1.497  -1.838   0.006  0.00  0.00    +0.342 C 
ATOM     30  O   UNL     1      -0.523  -2.566  -0.007  0.00  0.00    -0.245 OA
BRANCH  29  31
ATOM     31  O   UNL     1      -1.339  -0.499   0.012  0.00  0.00    -0.461 OA
BRANCH  31  33
ATOM     32  C   UNL     1      -0.019   1.526   0.010  0.00  0.00    +0.048 C 
ATOM     33  C   UNL     1       0.002  -0.004   0.002  0.00  0.00    +0.229 C 
ENDBRANCH  31  33
ENDBRANCH  29  31
ENDBRANCH   1  29
TORSDOF 7
