REMARK  Name = ZINC04570942
REMARK  7 active torsions:
REMARK  status: ('A' for Active; 'I' for Inactive)
REMARK    1  A    between atoms: C_4  and  N_27
REMARK    2  A    between atoms: C_5  and  N_7
REMARK    3  A    between atoms: C_8  and  C_10
REMARK    4  A    between atoms: N_12  and  C_13
REMARK    5  A    between atoms: C_13  and  C_14
REMARK    6  A    between atoms: C_14  and  C_15
REMARK    7  A    between atoms: C_18  and  C_20
REMARK                            x       y       z     vdW  Elec       q    Type
REMARK                         _______ _______ _______ _____ _____    ______ ____
ROOT
ATOM      1  C   UNL     1       1.159   2.147   0.044  0.00  0.00    +0.299 C 
ATOM      2  O   UNL     1       2.221   1.559   0.046  0.00  0.00    -0.265 OA
ATOM      3  N   UNL     1       0.004   1.453   0.055  0.00  0.00    -0.307 N 
ATOM      4  H   UNL     1      -0.844   1.923   0.050  0.00  0.00    +0.149 HD
ENDROOT
BRANCH   1   6
ATOM      5  N   UNL     1       2.288   4.335   0.020  0.00  0.00    -0.276 N 
ATOM      6  C   UNL     1       1.133   3.641   0.030  0.00  0.00    +0.303 C 
ATOM      7  O   UNL     1       0.072   4.229   0.029  0.00  0.00    -0.265 OA
ATOM      8  H   UNL     1       3.136   3.867   0.086  0.00  0.00    +0.155 HD
BRANCH   5  13
ATOM      9  C   UNL     1       1.231   7.832   0.416  0.00  0.00    +0.002 A 
ATOM     10  C   UNL     1       2.219   8.487  -0.297  0.00  0.00    +0.002 A 
ATOM     11  C   UNL     1       3.230   7.765  -0.905  0.00  0.00    +0.034 A 
ATOM     12  C   UNL     1       3.256   6.388  -0.802  0.00  0.00    +0.147 A 
ATOM     13  C   UNL     1       2.265   5.728  -0.086  0.00  0.00    +0.064 A 
ATOM     14  C   UNL     1       1.248   6.456   0.519  0.00  0.00    +0.025 A 
BRANCH  12  15
ATOM     15  N   UNL     1       4.339   5.617  -1.453  0.00  0.00    +0.058 N 
ATOM     16  O   UNL     1       5.261   6.199  -1.995  0.00  0.00    -0.126 OA
ATOM     17  O   UNL     1       4.307   4.399  -1.447  0.00  0.00    -0.126 OA
ENDBRANCH  12  15
ENDBRANCH   5  13
ENDBRANCH   1   6
BRANCH   3  18
ATOM     18  C   UNL     1       0.030  -0.011   0.068  0.00  0.00    +0.111 C 
BRANCH  18  19
ATOM     19  C   UNL     1      -1.403  -0.547   0.079  0.00  0.00    +0.074 C 
BRANCH  19  20
ATOM     20  C   UNL     1      -1.377  -2.053   0.092  0.00  0.00    +0.051 A 
ATOM     21  C   UNL     1      -2.032  -2.737   1.068  0.00  0.00    +0.070 A 
ATOM     22  S   UNL     1      -1.667  -4.422   0.593  0.00  0.00    -0.075 S 
ATOM     23  C   UNL     1      -0.677  -4.033  -0.845  0.00  0.00    +0.109 A 
ATOM     24  N   UNL     1      -0.717  -2.708  -0.834  0.00  0.00    -0.244 NA
BRANCH  23  25
ATOM     25  C   UNL     1       0.002  -4.944  -1.791  0.00  0.00    +0.007 A 
ATOM     26  C   UNL     1       0.728  -4.425  -2.864  0.00  0.00    +0.013 A 
ATOM     27  C   UNL     1       1.364  -5.279  -3.741  0.00  0.00    +0.039 A 
ATOM     28  C   UNL     1       1.275  -6.650  -3.563  0.00  0.00    +0.123 A 
ATOM     29  C   UNL     1       0.551  -7.171  -2.502  0.00  0.00    +0.039 A 
ATOM     30  C   UNL     1      -0.085  -6.326  -1.617  0.00  0.00    +0.013 A 
ATOM     31  F   UNL     1       1.895  -7.483  -4.428  0.00  0.00    -0.205 F 
ENDBRANCH  23  25
ENDBRANCH  19  20
ENDBRANCH  18  19
ENDBRANCH   3  18
TORSDOF 7
