REMARK  Name = ZINC39914371
REMARK  14 active torsions:
REMARK  status: ('A' for Active; 'I' for Inactive)
REMARK    1  A    between atoms: C_1  and  C_2
REMARK    2  A    between atoms: C_2  and  C_3
REMARK    3  A    between atoms: C_3  and  C_4
REMARK    4  A    between atoms: C_4  and  N_5
REMARK    5  A    between atoms: C_6  and  C_25
REMARK    6  A    between atoms: C_9  and  C_16
REMARK    7  A    between atoms: C_19  and  C_23
REMARK    8  A    between atoms: C_21  and  O_22
REMARK    9  A    between atoms: C_29  and  O_31
REMARK   10  A    between atoms: O_31  and  C_32
REMARK   11  A    between atoms: C_32  and  C_33
REMARK   12  A    between atoms: C_33  and  C_34
REMARK   13  A    between atoms: C_34  and  C_35
REMARK   14  A    between atoms: C_34  and  C_36
REMARK                            x       y       z     vdW  Elec       q    Type
REMARK                         _______ _______ _______ _____ _____    ______ ____
ROOT
ATOM      1  N   UNL     1       1.425  -2.500  -2.470  0.00  0.00    -0.285 N 
ATOM      2  C   UNL     1       0.792  -2.783  -3.765  0.00  0.00    +0.141 C 
ATOM      3  C   UNL     1       1.897  -3.237  -4.679  0.00  0.00    +0.035 A 
ATOM      4  C   UNL     1       2.267  -3.678  -5.954  0.00  0.00    +0.102 A 
ATOM      5  N   UNL     1       3.569  -3.887  -5.937  0.00  0.00    -0.173 NA
ATOM      6  N   UNL     1       4.058  -3.621  -4.778  0.00  0.00    -0.272 N 
ATOM      7  H   UNL     1       4.993  -3.702  -4.536  0.00  0.00    +0.189 HD
ATOM      8  C   UNL     1       3.063  -3.207  -3.938  0.00  0.00    +0.126 A 
ATOM      9  C   UNL     1       2.743  -2.744  -2.583  0.00  0.00    +0.265 C 
ATOM     10  O   UNL     1       3.554  -2.603  -1.687  0.00  0.00    -0.268 OA
ENDROOT
BRANCH   4  11
ATOM     11  C   UNL     1       1.361  -3.876  -7.112  0.00  0.00    +0.045 A 
ATOM     12  C   UNL     1      -0.000  -3.610  -6.989  0.00  0.00    +0.034 A 
ATOM     13  C   UNL     1      -0.839  -3.795  -8.070  0.00  0.00    +0.045 A 
ATOM     14  C   UNL     1      -0.332  -4.245  -9.277  0.00  0.00    -0.029 A 
ATOM     15  C   UNL     1       1.018  -4.511  -9.409  0.00  0.00    +0.050 A 
ATOM     16  C   UNL     1       1.871  -4.324  -8.334  0.00  0.00    +0.126 A 
ATOM     17  C   UNL     1      -1.254  -4.445 -10.451  0.00  0.00    +0.045 C 
ATOM     18 CL   UNL     1      -2.536  -3.463  -7.915  0.00  0.00    -0.083 Cl
BRANCH  16  19
ATOM     19  O   UNL     1       3.199  -4.581  -8.465  0.00  0.00    -0.506 OA
ATOM     20  H   UNL     1       3.447  -5.491  -8.253  0.00  0.00    +0.292 HD
ENDBRANCH  16  19
ENDBRANCH   4  11
BRANCH   2  21
ATOM     21  C   UNL     1       0.146  -1.535  -4.311  0.00  0.00    -0.019 A 
ATOM     22  C   UNL     1       0.786  -0.315  -4.186  0.00  0.00    +0.006 A 
ATOM     23  C   UNL     1       0.196   0.832  -4.685  0.00  0.00    +0.004 A 
ATOM     24  C   UNL     1      -1.034   0.761  -5.310  0.00  0.00    +0.045 A 
ATOM     25  C   UNL     1      -1.677  -0.461  -5.436  0.00  0.00    +0.121 A 
ATOM     26  C   UNL     1      -1.081  -1.611  -4.940  0.00  0.00    +0.051 A 
BRANCH  25  27
ATOM     27  O   UNL     1      -2.888  -0.533  -6.050  0.00  0.00    -0.492 OA
BRANCH  27  28
ATOM     28  C   UNL     1      -3.439   0.690  -6.542  0.00  0.00    +0.229 C 
BRANCH  28  29
ATOM     29  C   UNL     1      -4.794   0.412  -7.196  0.00  0.00    +0.044 C 
BRANCH  29  30
ATOM     30  C   UNL     1      -5.384   1.722  -7.723  0.00  0.00    -0.014 C 
ATOM     31  C   UNL     1      -4.498   2.266  -8.845  0.00  0.00    +0.007 C 
ATOM     32  C   UNL     1      -6.792   1.465  -8.265  0.00  0.00    +0.007 C 
ENDBRANCH  29  30
ENDBRANCH  28  29
ENDBRANCH  27  28
ENDBRANCH  25  27
ENDBRANCH   2  21
BRANCH   1  33
ATOM     33  C   UNL     1       0.739  -2.027  -1.265  0.00  0.00    +0.109 C 
BRANCH  33  34
ATOM     34  C   UNL     1       0.718  -0.497  -1.257  0.00  0.00    +0.019 C 
BRANCH  34  36
ATOM     35  C   UNL     1      -0.019   1.526   0.010  0.00  0.00    +0.004 C 
ATOM     36  C   UNL     1       0.002  -0.004   0.002  0.00  0.00    -0.002 C 
ENDBRANCH  34  36
ENDBRANCH  33  34
ENDBRANCH   1  33
TORSDOF 10
