REMARK  Name = ZINC36649146
REMARK  3 active torsions:
REMARK  status: ('A' for Active; 'I' for Inactive)
REMARK    1  A    between atoms: C_4  and  C_7
REMARK    2  A    between atoms: C_7  and  C_8
REMARK    3  A    between atoms: C_14  and  C_17
REMARK                            x       y       z     vdW  Elec       q    Type
REMARK                         _______ _______ _______ _____ _____    ______ ____
ROOT
ATOM      1  C   UNL     1       4.164  -0.959   1.377  0.00  0.00    +0.160 A 
ATOM      2  N   UNL     1       4.908  -0.167   2.107  0.00  0.00    -0.131 NA
ATOM      3  N   UNL     1       5.105  -0.686   3.274  0.00  0.00    -0.121 NA
ATOM      4  C   UNL     1       4.499  -1.826   3.344  0.00  0.00    +0.212 A 
ATOM      5  N   UNL     1       3.873  -2.048   2.134  0.00  0.00    -0.191 N 
ATOM      6  N   UNL     1       3.135  -3.195   1.863  0.00  0.00    -0.163 NA
ATOM      7  C   UNL     1       2.671  -3.987   2.764  0.00  0.00    +0.114 C 
ATOM      8  C   UNL     1       2.790  -3.813   4.250  0.00  0.00    +0.138 C 
ATOM      9  S   UNL     1       4.376  -3.003   4.653  0.00  0.00    -0.078 S 
ENDROOT
BRANCH   7  10
ATOM     10  C   UNL     1       1.954  -5.177   2.293  0.00  0.00    +0.153 A 
ATOM     11  C   UNL     1       1.752  -5.503   0.989  0.00  0.00    +0.059 A 
ATOM     12  C   UNL     1       0.998  -6.757   0.998  0.00  0.00    +0.021 A 
ATOM     13  C   UNL     1       0.490  -7.594   0.002  0.00  0.00    +0.011 A 
ATOM     14  C   UNL     1      -0.189  -8.727   0.351  0.00  0.00    +0.001 A 
ATOM     15  C   UNL     1      -0.377  -9.051   1.688  0.00  0.00    +0.004 A 
ATOM     16  C   UNL     1       0.118  -8.237   2.685  0.00  0.00    +0.047 A 
ATOM     17  C   UNL     1       0.811  -7.080   2.354  0.00  0.00    +0.136 A 
ATOM     18  O   UNL     1       1.401  -6.115   3.088  0.00  0.00    -0.454 OA
ENDBRANCH   7  10
BRANCH   1  19
ATOM     19  C   UNL     1       3.711  -0.707  -0.038  0.00  0.00    +0.113 C 
BRANCH  19  23
ATOM     20  C   UNL     1      -0.017   1.378   0.010  0.00  0.00    +0.000 A 
ATOM     21  C   UNL     1       1.171   2.086   0.002  0.00  0.00    +0.000 A 
ATOM     22  C   UNL     1       2.377   1.411  -0.013  0.00  0.00    +0.004 A 
ATOM     23  C   UNL     1       2.396   0.029  -0.020  0.00  0.00    -0.040 A 
ATOM     24  C   UNL     1       1.208  -0.679  -0.012  0.00  0.00    +0.004 A 
ATOM     25  C   UNL     1       0.002  -0.004   0.002  0.00  0.00    +0.000 A 
ENDBRANCH  19  23
ENDBRANCH   1  19
TORSDOF 3
