REMARK  Name = ZINC22196191
REMARK  11 active torsions:
REMARK  status: ('A' for Active; 'I' for Inactive)
REMARK    1  A    between atoms: C_1  and  C_2
REMARK    2  A    between atoms: C_7  and  S_8
REMARK    3  A    between atoms: S_8  and  N_11
REMARK    4  A    between atoms: N_11  and  C_12
REMARK    5  A    between atoms: C_15  and  C_18
REMARK    6  A    between atoms: C_18  and  O_20
REMARK    7  A    between atoms: O_20  and  C_21
REMARK    8  A    between atoms: C_21  and  C_23
REMARK    9  A    between atoms: C_21  and  C_24
REMARK   10  A    between atoms: N_26  and  C_27
REMARK   11  A    between atoms: C_28  and  C_32
REMARK                            x       y       z     vdW  Elec       q    Type
REMARK                         _______ _______ _______ _____ _____    ______ ____
ROOT
ATOM      1  C   UNL     1       4.905   1.185  -1.485  0.00  0.00    +0.048 A 
ATOM      2  C   UNL     1       4.128   2.189  -0.915  0.00  0.00    +0.025 A 
ATOM      3  C   UNL     1       4.539   3.496  -0.977  0.00  0.00    +0.017 A 
ATOM      4  C   UNL     1       5.736   3.820  -1.623  0.00  0.00    +0.059 A 
ATOM      5  C   UNL     1       6.513   2.810  -2.199  0.00  0.00    +0.017 A 
ATOM      6  C   UNL     1       6.098   1.505  -2.129  0.00  0.00    +0.025 A 
ENDROOT
BRANCH   1   7
ATOM      7  N   UNL     1       4.488  -0.139  -1.417  0.00  0.00    -0.216 N 
ATOM      8  H   UNL     1       4.521  -0.774  -2.314  0.00  0.00    +0.174 HD
BRANCH   7   9
ATOM      9  S   UNL     1       3.940  -0.761   0.017  0.00  0.00    +0.073 S 
ATOM     10  O   UNL     1       3.695  -2.143  -0.207  0.00  0.00    -0.150 OA
ATOM     11  O   UNL     1       2.932   0.125   0.485  0.00  0.00    -0.150 OA
BRANCH   9  18
ATOM     12  C   UNL     1       6.560  -2.240  -0.286  0.00  0.00    +0.049 C 
ATOM     13  C   UNL     1       6.431  -1.379   0.944  0.00  0.00    +0.011 A 
ATOM     14  C   UNL     1       7.476  -1.304   1.850  0.00  0.00    +0.128 A 
ATOM     15  C   UNL     1       7.355  -0.513   2.979  0.00  0.00    +0.039 A 
ATOM     16  C   UNL     1       6.193   0.201   3.202  0.00  0.00    +0.005 A 
ATOM     17  C   UNL     1       5.151   0.125   2.297  0.00  0.00    +0.029 A 
ATOM     18  C   UNL     1       5.269  -0.665   1.169  0.00  0.00    +0.114 A 
ATOM     19  F   UNL     1       8.612  -2.002   1.631  0.00  0.00    -0.205 F 
ENDBRANCH   9  18
ENDBRANCH   7   9
ENDBRANCH   1   7
BRANCH   4  20
ATOM     20  C   UNL     1       6.179   5.224  -1.696  0.00  0.00    +0.340 C 
ATOM     21  O   UNL     1       7.219   5.505  -2.259  0.00  0.00    -0.245 OA
BRANCH  20  22
ATOM     22  O   UNL     1       5.430   6.197  -1.140  0.00  0.00    -0.449 OA
BRANCH  22  23
ATOM     23  C   UNL     1       5.927   7.556  -1.251  0.00  0.00    +0.259 C 
ATOM     24  C   UNL     1       6.816   7.874  -0.048  0.00  0.00    +0.062 C 
BRANCH  23  25
ATOM     25  C   UNL     1       4.765   8.515  -1.284  0.00  0.00    +0.258 C 
ATOM     26  O   UNL     1       3.635   8.103  -1.129  0.00  0.00    -0.271 OA
ATOM     27  N   UNL     1       4.981   9.830  -1.485  0.00  0.00    -0.276 N 
ATOM     28  H   UNL     1       6.006  10.203  -1.626  0.00  0.00    +0.155 HD
BRANCH  27  29
ATOM     29  C   UNL     1       3.911  10.713  -1.515  0.00  0.00    +0.089 A 
ATOM     30  C   UNL     1       3.933  12.089  -1.702  0.00  0.00    +0.080 A 
ATOM     31  C   UNL     1       2.659  12.767  -1.691  0.00  0.00    +0.028 A 
ATOM     32  C   UNL     1       1.563  12.011  -1.491  0.00  0.00    +0.048 A 
ATOM     33  S   UNL     1       2.225  10.367  -1.321  0.00  0.00    -0.081 S 
BRANCH  30  34
ATOM     34  C   UNL     1       5.160  12.800  -1.901  0.00  0.00    +0.102 C 
ATOM     35  N   UNL     1       6.133  13.365  -2.058  0.00  0.00    -0.191 NA
ENDBRANCH  30  34
ENDBRANCH  27  29
ENDBRANCH  23  25
ENDBRANCH  22  23
ENDBRANCH  20  22
ENDBRANCH   4  20
TORSDOF 9
