REMARK  Name = ZINC09377201
REMARK  8 active torsions:
REMARK  status: ('A' for Active; 'I' for Inactive)
REMARK    1  A    between atoms: C_4  and  C_7
REMARK    2  A    between atoms: C_7  and  C_8
REMARK    3  A    between atoms: C_8  and  C_10
REMARK    4  A    between atoms: C_8  and  N_27
REMARK    5  A    between atoms: N_12  and  C_13
REMARK    6  A    between atoms: C_17  and  S_19
REMARK    7  A    between atoms: S_19  and  N_22
REMARK    8  A    between atoms: C_28  and  C_30
REMARK                            x       y       z     vdW  Elec       q    Type
REMARK                         _______ _______ _______ _____ _____    ______ ____
ROOT
ATOM      1  C   UNL     1      -5.898   2.608  -0.714  0.00  0.00    +0.238 C 
ATOM      2  O   UNL     1      -5.449   3.602  -1.243  0.00  0.00    -0.273 OA
ATOM      3  N   UNL     1      -7.231   2.419  -0.656  0.00  0.00    -0.284 N 
ATOM      4  H   UNL     1      -7.589   1.590  -0.302  0.00  0.00    +0.155 HD
ENDROOT
BRANCH   3   5
ATOM      5  C   UNL     1      -8.100   3.420  -1.107  0.00  0.00    +0.035 A 
ATOM      6  C   UNL     1      -7.755   4.757  -0.962  0.00  0.00    +0.023 A 
ATOM      7  C   UNL     1      -8.614   5.742  -1.408  0.00  0.00    +0.004 A 
ATOM      8  C   UNL     1      -9.816   5.398  -1.997  0.00  0.00    +0.029 A 
ATOM      9  C   UNL     1     -10.163   4.067  -2.143  0.00  0.00    +0.110 A 
ATOM     10  C   UNL     1      -9.305   3.077  -1.704  0.00  0.00    +0.052 A 
BRANCH   9  11
ATOM     11  S   UNL     1     -11.696   3.634  -2.895  0.00  0.00    +0.073 S 
ATOM     12  O   UNL     1     -12.030   2.337  -2.419  0.00  0.00    -0.150 OA
ATOM     13  O   UNL     1     -12.559   4.751  -2.730  0.00  0.00    -0.150 OA
BRANCH  11  14
ATOM     14  N   UNL     1     -11.419   3.485  -4.521  0.00  0.00    -0.205 N 
ATOM     15  C   UNL     1     -10.593   2.497  -4.987  0.00  0.00    +0.088 C 
ATOM     16  C   UNL     1      -9.175   0.699  -5.020  0.00  0.00    +0.114 C 
ATOM     17  C   UNL     1      -9.021   1.354  -6.412  0.00  0.00    +0.028 C 
ATOM     18  C   UNL     1     -10.274   2.265  -6.447  0.00  0.00    +0.072 C 
ATOM     19  H   UNL     1     -11.841   4.098  -5.143  0.00  0.00    +0.175 HD
ATOM     20  N   UNL     1      -9.991   1.639  -4.223  0.00  0.00    -0.375 N 
ATOM     21  H   UNL     1     -10.072   1.615  -3.199  0.00  0.00    +0.161 HD
ENDBRANCH  11  14
ENDBRANCH   9  11
ENDBRANCH   3   5
BRANCH   1  22
ATOM     22  C   UNL     1      -4.965   1.583  -0.121  0.00  0.00    +0.164 C 
BRANCH  22  23
ATOM     23  N   UNL     1      -3.579   2.016  -0.311  0.00  0.00    -0.299 N 
ATOM     24  C   UNL     1      -2.586   1.105  -0.341  0.00  0.00    +0.251 C 
ATOM     25  O   UNL     1      -2.842  -0.077  -0.210  0.00  0.00    -0.270 OA
ATOM     26  H   UNL     1      -3.376   2.959  -0.415  0.00  0.00    +0.150 HD
BRANCH  24  27
ATOM     27  C   UNL     1      -1.199   1.539  -0.531  0.00  0.00    +0.074 A 
ATOM     28  C   UNL     1      -0.045   0.774  -0.591  0.00  0.00    +0.021 A 
ATOM     29  C   UNL     1       1.139   1.442  -0.785  0.00  0.00    +0.008 A 
ATOM     30  C   UNL     1       1.125   2.795  -0.902  0.00  0.00    +0.046 A 
ATOM     31  S   UNL     1      -0.556   3.189  -0.743  0.00  0.00    -0.092 S 
ENDBRANCH  24  27
ENDBRANCH  22  23
BRANCH  22  32
ATOM     32  C   UNL     1      -5.254   1.437   1.375  0.00  0.00    +0.067 C 
BRANCH  32  36
ATOM     33  C   UNL     1      -2.855  -1.710   2.986  0.00  0.00    +0.000 A 
ATOM     34  C   UNL     1      -2.375  -0.414   2.969  0.00  0.00    +0.000 A 
ATOM     35  C   UNL     1      -3.151   0.604   2.448  0.00  0.00    +0.004 A 
ATOM     36  C   UNL     1      -4.407   0.326   1.943  0.00  0.00    -0.045 A 
ATOM     37  C   UNL     1      -4.890  -0.969   1.964  0.00  0.00    +0.004 A 
ATOM     38  C   UNL     1      -4.112  -1.988   2.481  0.00  0.00    +0.000 A 
ENDBRANCH  32  36
ENDBRANCH  22  32
ENDBRANCH   1  22
TORSDOF 8
