REMARK  Name = ZINC12558925
REMARK  11 active torsions:
REMARK  status: ('A' for Active; 'I' for Inactive)
REMARK    1  A    between atoms: C_1  and  C_2
REMARK    2  A    between atoms: C_6  and  C_31
REMARK    3  A    between atoms: C_8  and  O_11
REMARK    4  A    between atoms: O_11  and  P_12
REMARK    5  A    between atoms: P_12  and  C_14
REMARK    6  A    between atoms: P_12  and  N_20
REMARK    7  A    between atoms: N_20  and  C_21
REMARK    8  A    between atoms: C_24  and  S_27
REMARK    9  A    between atoms: S_27  and  C_28
REMARK   10  A    between atoms: C_31  and  C_32
REMARK   11  A    between atoms: C_31  and  C_33
REMARK                            x       y       z     vdW  Elec       q    Type
REMARK                         _______ _______ _______ _____ _____    ______ ____
ROOT
ATOM      1  P   UNL     1      -3.613   2.744   1.111  0.00  0.00    +0.318 P 
ATOM      2  O   UNL     1      -3.487   1.535   0.267  0.00  0.00    -0.264 OA
ENDROOT
BRANCH   1   3
ATOM      3  C   UNL     1      -3.637   2.261   2.859  0.00  0.00    +0.055 A 
ATOM      4  C   UNL     1      -4.843   2.047   3.501  0.00  0.00    +0.015 A 
ATOM      5  C   UNL     1      -4.861   1.673   4.832  0.00  0.00    +0.001 A 
ATOM      6  C   UNL     1      -3.673   1.525   5.524  0.00  0.00    +0.000 A 
ATOM      7  C   UNL     1      -2.468   1.744   4.884  0.00  0.00    +0.001 A 
ATOM      8  C   UNL     1      -2.450   2.112   3.552  0.00  0.00    +0.015 A 
ENDBRANCH   1   3
BRANCH   1   9
ATOM      9  N   UNL     1      -2.338   3.738   0.836  0.00  0.00    -0.271 N 
ATOM     10  H   UNL     1      -1.710   3.535   0.125  0.00  0.00    +0.156 HD
BRANCH   9  11
ATOM     11  C   UNL     1      -2.157   4.879   1.627  0.00  0.00    +0.034 A 
ATOM     12  C   UNL     1      -3.085   5.198   2.609  0.00  0.00    +0.024 A 
ATOM     13  C   UNL     1      -2.909   6.326   3.385  0.00  0.00    +0.017 A 
ATOM     14  C   UNL     1      -1.797   7.136   3.191  0.00  0.00    +0.013 A 
ATOM     15  C   UNL     1      -0.866   6.814   2.212  0.00  0.00    +0.017 A 
ATOM     16  C   UNL     1      -1.045   5.689   1.432  0.00  0.00    +0.024 A 
BRANCH  14  17
ATOM     17  S   UNL     1      -1.569   8.572   4.187  0.00  0.00    -0.056 S 
BRANCH  17  18
ATOM     18  C   UNL     1      -0.017   9.286   3.577  0.00  0.00    +0.404 C 
ATOM     19  F   UNL     1       1.019   8.360   3.741  0.00  0.00    -0.197 F 
ATOM     20  F   UNL     1      -0.150   9.601   2.220  0.00  0.00    -0.197 F 
ENDBRANCH  17  18
ENDBRANCH  14  17
ENDBRANCH   9  11
ENDBRANCH   1   9
BRANCH   1  21
ATOM     21  O   UNL     1      -4.981   3.512   0.748  0.00  0.00    -0.307 OA
BRANCH  21  27
ATOM     22  C   UNL     1      -5.888   5.798   1.199  0.00  0.00    +0.007 C 
ATOM     23  C   UNL     1      -7.269   5.154   1.342  0.00  0.00    -0.012 C 
ATOM     24  C   UNL     1      -7.962   5.126  -0.022  0.00  0.00    +0.004 C 
ATOM     25  C   UNL     1      -7.119   4.312  -1.006  0.00  0.00    +0.006 C 
ATOM     26  C   UNL     1      -6.963   2.882  -0.483  0.00  0.00    +0.021 C 
ATOM     27  C   UNL     1      -6.270   2.911   0.881  0.00  0.00    +0.131 C 
ATOM     28  C   UNL     1      -7.113   3.725   1.865  0.00  0.00    +0.035 C 
BRANCH  26  29
ATOM     29  C   UNL     1      -6.120   2.068  -1.466  0.00  0.00    -0.012 C 
ATOM     30  C   UNL     1      -5.965   0.639  -0.943  0.00  0.00    +0.007 C 
ATOM     31  C   UNL     1      -6.813   2.040  -2.830  0.00  0.00    +0.007 C 
ENDBRANCH  26  29
ENDBRANCH  21  27
ENDBRANCH   1  21
TORSDOF 8
