REMARK  Name = ZINC36316200
REMARK  17 active torsions:
REMARK  status: ('A' for Active; 'I' for Inactive)
REMARK    1  A    between atoms: C_1  and  C_2
REMARK    2  A    between atoms: C_2  and  C_3
REMARK    3  A    between atoms: C_2  and  C_4
REMARK    4  A    between atoms: C_4  and  O_5
REMARK    5  A    between atoms: O_5  and  C_6
REMARK    6  A    between atoms: C_6  and  C_7
REMARK    7  A    between atoms: C_7  and  C_9
REMARK    8  A    between atoms: C_7  and  O_38
REMARK    9  A    between atoms: C_9  and  N_10
REMARK   10  A    between atoms: N_10  and  C_11
REMARK   11  A    between atoms: N_10  and  C_18
REMARK   12  A    between atoms: C_11  and  C_12
REMARK   13  A    between atoms: C_18  and  C_19
REMARK   14  A    between atoms: C_20  and  C_32
REMARK   15  A    between atoms: N_22  and  C_31
REMARK   16  A    between atoms: C_23  and  O_24
REMARK   17  A    between atoms: O_24  and  C_25
REMARK                            x       y       z     vdW  Elec       q    Type
REMARK                         _______ _______ _______ _____ _____    ______ ____
ROOT
ATOM      1  C   UNL     1       7.106  -0.308  -4.584  0.00  0.00    -0.035 C 
ENDROOT
BRANCH   1   2
ATOM      2  C   UNL     1       6.942   0.794  -5.598  0.00  0.00    +0.025 A 
ATOM      3  C   UNL     1       6.199   0.720  -6.792  0.00  0.00    +0.098 A 
ATOM      4  N   UNL     1       6.295   1.879  -7.407  0.00  0.00    -0.168 NA
ATOM      5  N   UNL     1       7.098   2.724  -6.630  0.00  0.00    -0.235 N 
ATOM      6  C   UNL     1       7.479   2.039  -5.521  0.00  0.00    +0.221 A 
ATOM      7  C   UNL     1       7.457   4.106  -6.953  0.00  0.00    +0.176 C 
BRANCH   3   8
ATOM      8  C   UNL     1       5.440  -0.462  -7.272  0.00  0.00    +0.002 A 
ATOM      9  C   UNL     1       6.001  -1.734  -7.189  0.00  0.00    +0.010 A 
ATOM     10  C   UNL     1       5.290  -2.829  -7.638  0.00  0.00    +0.001 A 
ATOM     11  C   UNL     1       4.024  -2.665  -8.169  0.00  0.00    +0.000 A 
ATOM     12  C   UNL     1       3.462  -1.404  -8.254  0.00  0.00    +0.001 A 
ATOM     13  C   UNL     1       4.162  -0.302  -7.804  0.00  0.00    +0.010 A 
ENDBRANCH   3   8
BRANCH   6  14
ATOM     14  O   UNL     1       8.259   2.513  -4.516  0.00  0.00    -0.438 OA
BRANCH  14  15
ATOM     15  C   UNL     1       9.607   2.397  -4.647  0.00  0.00    +0.130 A 
ATOM     16  C   UNL     1      10.152   1.914  -5.828  0.00  0.00    +0.046 A 
ATOM     17  C   UNL     1      11.522   1.798  -5.958  0.00  0.00    +0.004 A 
ATOM     18  C   UNL     1      12.350   2.163  -4.913  0.00  0.00    +0.000 A 
ATOM     19  C   UNL     1      11.810   2.644  -3.734  0.00  0.00    +0.004 A 
ATOM     20  C   UNL     1      10.440   2.768  -3.601  0.00  0.00    +0.046 A 
ENDBRANCH  14  15
ENDBRANCH   6  14
ENDBRANCH   1   2
BRANCH   1  21
ATOM     21  N   UNL     1       6.130  -0.128  -3.502  0.00  0.00    +0.387 N 
ATOM     22  H   UNL     1       6.221   0.800  -3.117  0.00  0.00    -0.081 HD
BRANCH  21  23
ATOM     23  C   UNL     1       4.772  -0.306  -4.033  0.00  0.00    -0.044 C 
BRANCH  23  24
ATOM     24  C   UNL     1       3.751   0.003  -2.937  0.00  0.00    +0.124 C 
BRANCH  24  25
ATOM     25  O   UNL     1       3.839   1.384  -2.580  0.00  0.00    -0.391 OA
ATOM     26  H   UNL     1       3.664   1.991  -3.312  0.00  0.00    +0.210 HD
ENDBRANCH  24  25
BRANCH  24  27
ATOM     27  C   UNL     1       2.342  -0.302  -3.451  0.00  0.00    +0.189 C 
BRANCH  27  28
ATOM     28  O   UNL     1       1.399  -0.124  -2.392  0.00  0.00    -0.377 OA
BRANCH  28  29
ATOM     29  C   UNL     1       0.046  -0.386  -2.768  0.00  0.00    +0.163 C 
BRANCH  29  31
ATOM     30  C   UNL     1      -0.839   1.311  -1.162  0.00  0.00    +0.009 C 
ATOM     31  C   UNL     1      -0.870  -0.165  -1.563  0.00  0.00    +0.009 C 
ATOM     32  C   UNL     1      -2.301  -0.564  -1.930  0.00  0.00    +0.009 C 
ENDBRANCH  29  31
ENDBRANCH  28  29
ENDBRANCH  27  28
ENDBRANCH  24  27
ENDBRANCH  23  24
ENDBRANCH  21  23
BRANCH  21  33
ATOM     33  C   UNL     1       6.378  -1.121  -2.448  0.00  0.00    -0.042 C 
BRANCH  33  34
ATOM     34  C   UNL     1       7.735  -0.880  -1.839  0.00  0.00    -0.064 A 
ATOM     35  C   UNL     1       8.831  -1.591  -2.291  0.00  0.00    +0.002 A 
ATOM     36  C   UNL     1      10.076  -1.369  -1.732  0.00  0.00    +0.000 A 
ATOM     37  C   UNL     1      10.225  -0.436  -0.723  0.00  0.00    +0.000 A 
ATOM     38  C   UNL     1       9.128   0.275  -0.272  0.00  0.00    +0.000 A 
ATOM     39  C   UNL     1       7.884   0.057  -0.834  0.00  0.00    +0.002 A 
ENDBRANCH  33  34
ENDBRANCH  21  33
ENDBRANCH   1  21
TORSDOF 14
