REMARK  Name = ZINC02425117
REMARK  9 active torsions:
REMARK  status: ('A' for Active; 'I' for Inactive)
REMARK    1  A    between atoms: C_1  and  C_2
REMARK    2  A    between atoms: C_2  and  C_3
REMARK    3  A    between atoms: C_3  and  C_4
REMARK    4  A    between atoms: C_4  and  S_5
REMARK    5  A    between atoms: S_5  and  C_6
REMARK    6  A    between atoms: C_17  and  C_19
REMARK    7  A    between atoms: C_17  and  C_20
REMARK    8  A    between atoms: C_20  and  C_21
REMARK    9  A    between atoms: N_22  and  N_23
REMARK                            x       y       z     vdW  Elec       q    Type
REMARK                         _______ _______ _______ _____ _____    ______ ____
ROOT
ATOM      1  C   UNL     1      -0.617   0.488  -7.670  0.00  0.00    +0.191 A 
ATOM      2  N   UNL     1      -0.026  -0.297  -6.781  0.00  0.00    -0.205 NA
ATOM      3  C   UNL     1      -0.050  -0.079  -5.468  0.00  0.00    +0.145 A 
ATOM      4  C   UNL     1      -0.764   1.077  -5.039  0.00  0.00    +0.052 A 
ATOM      5  C   UNL     1      -0.945   1.542  -3.676  0.00  0.00    -0.020 A 
ATOM      6  C   UNL     1      -1.667   2.675  -3.509  0.00  0.00    +0.021 A 
ATOM      7  S   UNL     1      -2.138   3.174  -5.143  0.00  0.00    -0.071 S 
ATOM      8  C   UNL     1      -1.369   1.869  -6.048  0.00  0.00    +0.115 A 
ATOM      9  N   UNL     1      -1.300   1.584  -7.334  0.00  0.00    -0.215 NA
ATOM     10  C   UNL     1      -1.982   3.340  -2.205  0.00  0.00    +0.203 C 
ATOM     11  O   UNL     1      -1.138   2.762  -1.196  0.00  0.00    -0.368 OA
ATOM     12  C   UNL     1      -1.125   1.332  -1.215  0.00  0.00    +0.071 C 
ATOM     13  C   UNL     1      -0.376   0.829  -2.451  0.00  0.00    +0.071 C 
ATOM     14  C   UNL     1      -2.564   0.813  -1.251  0.00  0.00    +0.042 C 
ATOM     15  N   UNL     1       0.581  -0.925  -4.574  0.00  0.00    -0.267 N 
ATOM     16  H   UNL     1       0.683  -0.661  -3.646  0.00  0.00    +0.167 HD
ENDROOT
BRANCH  15  17
ATOM     17  N   UNL     1       1.059  -2.132  -4.997  0.00  0.00    -0.255 NA
ATOM     18  H   UNL     1       1.491  -2.637  -4.237  0.00  0.00    +0.140 HD
ATOM     19  H   UNL     1       0.329  -2.681  -5.426  0.00  0.00    +0.140 HD
ENDBRANCH  15  17
BRANCH  12  20
ATOM     20  C   UNL     1      -0.430   0.815   0.046  0.00  0.00    +0.032 C 
ATOM     21  C   UNL     1      -1.255   1.197   1.276  0.00  0.00    +0.007 C 
ENDBRANCH  12  20
BRANCH   1  22
ATOM     22  S   UNL     1      -0.495   0.064  -9.376  0.00  0.00    -0.086 S 
BRANCH  22  23
ATOM     23  C   UNL     1      -1.444   1.421 -10.106  0.00  0.00    +0.077 C 
BRANCH  23  24
ATOM     24  C   UNL     1      -1.478   1.261 -11.627  0.00  0.00    +0.011 C 
BRANCH  24  26
ATOM     25  C   UNL     1      -2.313   2.248 -13.765  0.00  0.00    +0.004 C 
ATOM     26  C   UNL     1      -2.280   2.408 -12.244  0.00  0.00    -0.003 C 
ENDBRANCH  24  26
ENDBRANCH  23  24
ENDBRANCH  22  23
ENDBRANCH   1  22
TORSDOF 6
