REMARK  Name = ZINC20103761
REMARK  6 active torsions:
REMARK  status: ('A' for Active; 'I' for Inactive)
REMARK    1  A    between atoms: C_6  and  C_7
REMARK    2  A    between atoms: C_7  and  O_9
REMARK    3  A    between atoms: O_9  and  C_10
REMARK    4  A    between atoms: C_12  and  N_25
REMARK    5  A    between atoms: N_13  and  S_15
REMARK    6  A    between atoms: S_15  and  C_18
REMARK                            x       y       z     vdW  Elec       q    Type
REMARK                         _______ _______ _______ _____ _____    ______ ____
ROOT
ATOM      1  C   UNL     1      -3.408   2.115   0.030  0.00  0.00    +0.246 A 
ATOM      2  C   UNL     1      -2.464   1.080   0.020  0.00  0.00    +0.114 A 
ATOM      3  C   UNL     1      -1.226   1.645   0.017  0.00  0.00    +0.143 A 
ATOM      4  N   UNL     1      -1.391   2.993   0.030  0.00  0.00    -0.112 N 
ATOM      5  N   UNL     1      -2.767   3.259   0.033  0.00  0.00    -0.110 NA
ENDROOT
BRANCH   4   6
ATOM      6  S   UNL     1      -0.181   4.123   0.038  0.00  0.00    +0.101 S 
ATOM      7  O   UNL     1      -0.733   5.305   0.602  0.00  0.00    -0.146 OA
ATOM      8  O   UNL     1       0.967   3.485   0.580  0.00  0.00    -0.146 OA
BRANCH   6   9
ATOM      9  C   UNL     1       0.195   4.495  -1.643  0.00  0.00    +0.113 A 
ATOM     10  C   UNL     1       1.164   3.770  -2.311  0.00  0.00    +0.030 A 
ATOM     11  C   UNL     1       1.456   4.058  -3.631  0.00  0.00    +0.022 A 
ATOM     12  C   UNL     1       0.786   5.079  -4.280  0.00  0.00    +0.041 A 
ATOM     13  C   UNL     1      -0.179   5.809  -3.609  0.00  0.00    +0.022 A 
ATOM     14  C   UNL     1      -0.474   5.516  -2.291  0.00  0.00    +0.030 A 
ATOM     15 CL   UNL     1       1.156   5.445  -5.936  0.00  0.00    -0.084 Cl
ENDBRANCH   6   9
ENDBRANCH   4   6
BRANCH   3  16
ATOM     16  N   UNL     1      -0.011   0.966   0.007  0.00  0.00    -0.342 N 
ATOM     17  H   UNL     1       0.934   1.529   0.005  0.00  0.00    +0.144 HD
ATOM     18  H   UNL     1       0.004  -0.134   0.002  0.00  0.00    +0.144 HD
ENDBRANCH   3  16
BRANCH   1  19
ATOM     19  O   UNL     1      -4.759   1.961   0.036  0.00  0.00    -0.402 OA
BRANCH  19  20
ATOM     20  C   UNL     1      -5.503   3.084   0.046  0.00  0.00    +0.346 C 
ATOM     21  O   UNL     1      -4.962   4.171   0.050  0.00  0.00    -0.244 OA
BRANCH  20  27
ATOM     22  C   UNL     1      -7.603   1.744   0.043  0.00  0.00    +0.016 A 
ATOM     23  C   UNL     1      -8.979   1.666   0.056  0.00  0.00    +0.021 A 
ATOM     24  C   UNL     1      -9.742   2.822   0.066  0.00  0.00    +0.041 A 
ATOM     25  C   UNL     1      -9.127   4.064   0.069  0.00  0.00    +0.021 A 
ATOM     26  C   UNL     1      -7.751   4.155   0.063  0.00  0.00    +0.016 A 
ATOM     27  C   UNL     1      -6.977   2.993   0.053  0.00  0.00    +0.060 A 
ATOM     28 CL   UNL     1     -11.474   2.715   0.074  0.00  0.00    -0.084 Cl
ENDBRANCH  20  27
ENDBRANCH  19  20
ENDBRANCH   1  19
TORSDOF 6
