REMARK  Name = ZINC08906333
REMARK  8 active torsions:
REMARK  status: ('A' for Active; 'I' for Inactive)
REMARK    1  A    between atoms: C_1  and  C_2
REMARK    2  A    between atoms: C_5  and  N_8
REMARK    3  A    between atoms: C_10  and  C_15
REMARK    4  A    between atoms: C_21  and  S_23
REMARK    5  A    between atoms: S_23  and  C_24
REMARK    6  A    between atoms: C_24  and  C_25
REMARK    7  A    between atoms: N_27  and  C_28
REMARK    8  A    between atoms: C_31  and  N_34
REMARK                            x       y       z     vdW  Elec       q    Type
REMARK                         _______ _______ _______ _____ _____    ______ ____
ROOT
ATOM      1  C   UNL     1      -1.738  -6.628   1.072  0.00  0.00    +0.224 C 
ATOM      2  O   UNL     1      -2.393  -5.730   1.558  0.00  0.00    -0.275 OA
ATOM      3  N   UNL     1      -2.329  -7.798   0.759  0.00  0.00    -0.263 N 
ATOM      4  C   UNL     1      -3.690  -7.976   0.993  0.00  0.00    +0.189 A 
ATOM      5  N   UNL     1      -4.582  -7.141   1.502  0.00  0.00    -0.125 NA
ATOM      6  N   UNL     1      -5.792  -7.464   1.648  0.00  0.00    -0.133 NA
ATOM      7  C   UNL     1      -6.245  -8.660   1.302  0.00  0.00    +0.160 A 
ATOM      8  S   UNL     1      -4.735  -9.397   0.685  0.00  0.00    -0.024 S 
ATOM      9  H   UNL     1      -1.806  -8.517   0.370  0.00  0.00    +0.157 HD
ENDROOT
BRANCH   1  12
ATOM     10  N   UNL     1       0.083  -4.191   0.050  0.00  0.00    -0.271 N 
ATOM     11  C   UNL     1       0.191  -5.025   1.253  0.00  0.00    +0.127 C 
ATOM     12  C   UNL     1      -0.265  -6.436   0.819  0.00  0.00    +0.102 C 
ATOM     13  C   UNL     1       0.037  -6.412  -0.697  0.00  0.00    +0.110 C 
ATOM     14  C   UNL     1      -0.005  -4.944  -1.060  0.00  0.00    +0.221 C 
ATOM     15  O   UNL     1      -0.102  -4.509  -2.188  0.00  0.00    -0.275 OA
BRANCH  10  20
ATOM     16  C   UNL     1       0.017   1.482   0.084  0.00  0.00    +0.044 C 
ATOM     17  C   UNL     1       0.034  -0.025   0.075  0.00  0.00    -0.050 A 
ATOM     18  C   UNL     1       0.051  -0.708  -1.127  0.00  0.00    +0.005 A 
ATOM     19  C   UNL     1       0.067  -2.089  -1.139  0.00  0.00    +0.024 A 
ATOM     20  C   UNL     1       0.067  -2.792   0.059  0.00  0.00    +0.036 A 
ATOM     21  C   UNL     1       0.051  -2.103   1.265  0.00  0.00    +0.024 A 
ATOM     22  C   UNL     1       0.039  -0.722   1.270  0.00  0.00    +0.005 A 
ENDBRANCH  10  20
ENDBRANCH   1  12
BRANCH   7  23
ATOM     23  S   UNL     1      -7.871  -9.330   1.411  0.00  0.00    -0.088 S 
BRANCH  23  24
ATOM     24  C   UNL     1      -8.853  -7.985   2.130  0.00  0.00    +0.172 C 
BRANCH  24  25
ATOM     25  C   UNL     1     -10.284  -8.433   2.280  0.00  0.00    +0.227 C 
ATOM     26  O   UNL     1     -10.610  -9.549   1.935  0.00  0.00    -0.275 OA
ATOM     27  N   UNL     1     -11.203  -7.592   2.796  0.00  0.00    -0.285 N 
ATOM     28  H   UNL     1     -10.961  -6.675   2.998  0.00  0.00    +0.155 HD
BRANCH  27  29
ATOM     29  C   UNL     1     -12.505  -8.043   3.041  0.00  0.00    +0.034 A 
ATOM     30  C   UNL     1     -13.583  -7.186   2.862  0.00  0.00    +0.025 A 
ATOM     31  C   UNL     1     -14.867  -7.634   3.104  0.00  0.00    +0.034 A 
ATOM     32  C   UNL     1     -15.079  -8.935   3.524  0.00  0.00    +0.126 A 
ATOM     33  C   UNL     1     -14.008  -9.790   3.704  0.00  0.00    +0.034 A 
ATOM     34  C   UNL     1     -12.722  -9.350   3.457  0.00  0.00    +0.025 A 
BRANCH  32  35
ATOM     35  N   UNL     1     -16.456  -9.412   3.783  0.00  0.00    +0.056 N 
ATOM     36  O   UNL     1     -17.394  -8.665   3.627  0.00  0.00    -0.126 OA
ATOM     37  O   UNL     1     -16.643 -10.548   4.150  0.00  0.00    -0.126 OA
ENDBRANCH  32  35
ENDBRANCH  27  29
ENDBRANCH  24  25
ENDBRANCH  23  24
ENDBRANCH   7  23
TORSDOF 7
