REMARK  Name = ZINC06412714
REMARK  11 active torsions:
REMARK  status: ('A' for Active; 'I' for Inactive)
REMARK    1  A    between atoms: C_1  and  C_2
REMARK    2  A    between atoms: C_2  and  N_3
REMARK    3  A    between atoms: C_4  and  C_33
REMARK    4  A    between atoms: C_5  and  C_9
REMARK    5  A    between atoms: C_6  and  C_8
REMARK    6  A    between atoms: N_10  and  N_11
REMARK    7  A    between atoms: C_12  and  C_14
REMARK    8  A    between atoms: C_14  and  C_32
REMARK    9  A    between atoms: C_17  and  C_22
REMARK   10  A    between atoms: C_19  and  C_20
REMARK   11  A    between atoms: C_19  and  C_21
REMARK                            x       y       z     vdW  Elec       q    Type
REMARK                         _______ _______ _______ _____ _____    ______ ____
ROOT
ATOM      1  C   UNL     1       4.804   0.999  -0.067  0.00  0.00    +0.052 C 
ATOM      2  C   UNL     1       4.945   0.122  -1.336  0.00  0.00    +0.017 C 
ATOM      3  C   UNL     1       6.480  -0.029  -1.478  0.00  0.00    +0.013 C 
ATOM      4  C   UNL     1       7.036   1.350  -1.068  0.00  0.00    +0.062 C 
ATOM      5  C   UNL     1       5.970   2.003  -0.170  0.00  0.00    -0.012 C 
ATOM      6  C   UNL     1       5.483   3.309  -0.801  0.00  0.00    +0.012 C 
ATOM      7  C   UNL     1       6.551   2.277   1.219  0.00  0.00    +0.012 C 
ATOM      8  C   UNL     1       4.943   0.145   1.195  0.00  0.00    +0.021 C 
ENDROOT
BRANCH   4   9
ATOM      9  C   UNL     1       8.323   1.180  -0.302  0.00  0.00    +0.112 A 
ATOM     10  N   UNL     1       8.612   0.131   0.513  0.00  0.00    -0.342 N 
ATOM     11  H   UNL     1       8.018  -0.650   0.708  0.00  0.00    +0.167 HD
ATOM     12  C   UNL     1       9.877   0.343   1.022  0.00  0.00    +0.066 A 
ATOM     13  C   UNL     1      10.702  -0.362   1.889  0.00  0.00    +0.028 A 
ATOM     14  C   UNL     1      11.944   0.141   2.210  0.00  0.00    +0.002 A 
ATOM     15  C   UNL     1      12.376   1.345   1.673  0.00  0.00    +0.002 A 
ATOM     16  C   UNL     1      11.578   2.053   0.819  0.00  0.00    +0.030 A 
ATOM     17  C   UNL     1      10.315   1.563   0.479  0.00  0.00    +0.089 A 
ATOM     18  N   UNL     1       9.317   2.020  -0.320  0.00  0.00    -0.232 NA
ENDBRANCH   4   9
BRANCH   1  20
ATOM     19  N   UNL     1       3.153   2.528   0.960  0.00  0.00    -0.207 N 
ATOM     20  C   UNL     1       3.483   1.722  -0.070  0.00  0.00    +0.239 C 
ATOM     21  O   UNL     1       2.715   1.580  -0.998  0.00  0.00    -0.273 OA
ATOM     22  H   UNL     1       3.767   2.641   1.702  0.00  0.00    +0.177 HD
BRANCH  19  24
ATOM     23  C   UNL     1       1.607   3.976   1.948  0.00  0.00    +0.141 C 
ATOM     24  N   UNL     1       1.924   3.201   0.957  0.00  0.00    -0.188 NA
BRANCH  23  27
ATOM     25  N   UNL     1      -1.378   5.954   2.542  0.00  0.00    -0.268 N 
ATOM     26  C   UNL     1      -0.160   5.526   2.929  0.00  0.00    +0.045 A 
ATOM     27  C   UNL     1       0.310   4.680   1.948  0.00  0.00    +0.038 A 
ATOM     28  C   UNL     1      -0.676   4.617   0.941  0.00  0.00    +0.069 A 
ATOM     29  N   UNL     1      -1.677   5.373   1.304  0.00  0.00    -0.176 NA
ATOM     30  C   UNL     1      -0.591   3.814  -0.332  0.00  0.00    +0.068 C 
ATOM     31  C   UNL     1       0.555   5.902   4.201  0.00  0.00    +0.066 C 
BRANCH  25  33
ATOM     32  C   UNL     1      -1.932   8.313   2.874  0.00  0.00    +0.029 C 
ATOM     33  C   UNL     1      -2.241   6.873   3.288  0.00  0.00    +0.140 C 
ENDBRANCH  25  33
ENDBRANCH  23  27
ENDBRANCH  19  24
ENDBRANCH   1  20
TORSDOF 5
