REMARK  Name = ZINC16936195
REMARK  9 active torsions:
REMARK  status: ('A' for Active; 'I' for Inactive)
REMARK    1  A    between atoms: C_1  and  C_2
REMARK    2  A    between atoms: C_5  and  N_9
REMARK    3  A    between atoms: C_6  and  O_8
REMARK    4  A    between atoms: N_11  and  C_28
REMARK    5  A    between atoms: C_15  and  C_16
REMARK    6  A    between atoms: C_20  and  O_22
REMARK    7  A    between atoms: O_22  and  C_23
REMARK    8  A    between atoms: C_23  and  C_24
REMARK    9  A    between atoms: C_24  and  C_25
REMARK                            x       y       z     vdW  Elec       q    Type
REMARK                         _______ _______ _______ _____ _____    ______ ____
ROOT
ATOM      1  N   UNL     1      -1.643  -0.665  -1.082  0.00  0.00    -0.222 NA
ATOM      2  C   UNL     1      -1.355   0.580  -0.777  0.00  0.00    +0.168 C 
ATOM      3  N   UNL     1      -2.205   1.575  -0.345  0.00  0.00    -0.249 N 
ATOM      4  C   UNL     1      -1.745   2.785  -0.076  0.00  0.00    +0.259 C 
ATOM      5  O   UNL     1      -2.480   3.674   0.312  0.00  0.00    -0.269 OA
ATOM      6  C   UNL     1      -0.298   3.010  -0.274  0.00  0.00    +0.078 C 
ATOM      7  C   UNL     1       0.431   4.137  -0.083  0.00  0.00    +0.028 C 
ATOM      8  S   UNL     1       0.232   1.397  -0.831  0.00  0.00    -0.049 S 
ATOM      9  C   UNL     1      -3.632   1.288  -0.176  0.00  0.00    +0.140 C 
ENDROOT
BRANCH   1  14
ATOM     10  C   UNL     1       2.500  -4.290  -2.350  0.00  0.00    +0.044 C 
ATOM     11  C   UNL     1       1.394  -3.324  -2.014  0.00  0.00    -0.047 A 
ATOM     12  C   UNL     1       1.524  -2.480  -0.925  0.00  0.00    +0.005 A 
ATOM     13  C   UNL     1       0.516  -1.591  -0.609  0.00  0.00    +0.032 A 
ATOM     14  C   UNL     1      -0.639  -1.544  -1.390  0.00  0.00    +0.108 A 
ATOM     15  C   UNL     1      -0.769  -2.404  -2.488  0.00  0.00    +0.142 A 
ATOM     16  C   UNL     1       0.253  -3.285  -2.795  0.00  0.00    +0.051 A 
BRANCH  15  17
ATOM     17  O   UNL     1      -1.893  -2.369  -3.253  0.00  0.00    -0.505 OA
ATOM     18  H   UNL     1      -1.845  -1.751  -3.994  0.00  0.00    +0.292 HD
ENDBRANCH  15  17
ENDBRANCH   1  14
BRANCH   7  19
ATOM     19  C   UNL     1       1.835   4.186  -0.518  0.00  0.00    -0.020 A 
ATOM     20  C   UNL     1       2.643   5.273  -0.163  0.00  0.00    +0.008 A 
ATOM     21  C   UNL     1       3.960   5.311  -0.568  0.00  0.00    +0.004 A 
ATOM     22  C   UNL     1       4.484   4.286  -1.334  0.00  0.00    +0.045 A 
ATOM     23  C   UNL     1       3.690   3.206  -1.697  0.00  0.00    +0.121 A 
ATOM     24  C   UNL     1       2.367   3.151  -1.293  0.00  0.00    +0.053 A 
BRANCH  23  25
ATOM     25  O   UNL     1       4.211   2.202  -2.451  0.00  0.00    -0.491 OA
BRANCH  25  26
ATOM     26  C   UNL     1       5.583   2.324  -2.833  0.00  0.00    +0.240 C 
BRANCH  26  27
ATOM     27  C   UNL     1       5.988   1.109  -3.671  0.00  0.00    +0.166 C 
BRANCH  27  28
ATOM     28  C   UNL     1       7.434   1.237  -4.074  0.00  0.00    +0.359 C 
ATOM     29  O   UNL     1       8.075   2.200  -3.727  0.00  0.00    -0.246 OA
ATOM     30  O   UNL     1       8.011   0.280  -4.818  0.00  0.00    -0.246 OA
ENDBRANCH  27  28
ENDBRANCH  26  27
ENDBRANCH  25  26
ENDBRANCH  23  25
ENDBRANCH   7  19
TORSDOF 7
