REMARK  Name = ZINC35718864
REMARK  9 active torsions:
REMARK  status: ('A' for Active; 'I' for Inactive)
REMARK    1  A    between atoms: C_1  and  C_2
REMARK    2  A    between atoms: C_7  and  C_8
REMARK    3  A    between atoms: C_8  and  N_9
REMARK    4  A    between atoms: N_9  and  C_10
REMARK    5  A    between atoms: N_9  and  C_20
REMARK    6  A    between atoms: C_10  and  C_11
REMARK    7  A    between atoms: C_20  and  C_21
REMARK    8  A    between atoms: C_21  and  C_23
REMARK    9  A    between atoms: C_21  and  O_29
REMARK                            x       y       z     vdW  Elec       q    Type
REMARK                         _______ _______ _______ _____ _____    ______ ____
ROOT
ATOM      1  N   UNL     1      -1.804   0.710   3.006  0.00  0.00    -0.291 NA
ENDROOT
BRANCH   1   2
ATOM      2  C   UNL     1      -0.731  -0.242   2.692  0.00  0.00    +0.120 C 
BRANCH   2   9
ATOM      3  C   UNL     1      -2.939  -2.089   2.935  0.00  0.00    +0.044 C 
ATOM      4  C   UNL     1      -1.753  -2.208   3.856  0.00  0.00    -0.046 A 
ATOM      5  C   UNL     1      -1.718  -3.204   4.814  0.00  0.00    +0.003 A 
ATOM      6  C   UNL     1      -0.630  -3.313   5.660  0.00  0.00    +0.000 A 
ATOM      7  C   UNL     1       0.424  -2.426   5.547  0.00  0.00    +0.000 A 
ATOM      8  C   UNL     1       0.391  -1.431   4.588  0.00  0.00    +0.005 A 
ATOM      9  C   UNL     1      -0.696  -1.324   3.740  0.00  0.00    -0.030 A 
ENDBRANCH   2   9
ENDBRANCH   1   2
BRANCH   1  10
ATOM     10  C   UNL     1      -1.414   1.599   4.108  0.00  0.00    +0.120 C 
BRANCH  10  11
ATOM     11  C   UNL     1      -1.562   0.869   5.418  0.00  0.00    -0.030 A 
ATOM     12  C   UNL     1      -2.814   0.467   5.846  0.00  0.00    +0.009 A 
ATOM     13  C   UNL     1      -2.955  -0.203   7.047  0.00  0.00    +0.050 A 
ATOM     14  C   UNL     1      -1.842  -0.473   7.826  0.00  0.00    +0.166 A 
ATOM     15  C   UNL     1      -0.581  -0.068   7.395  0.00  0.00    +0.167 A 
ATOM     16  C   UNL     1      -0.446   0.598   6.187  0.00  0.00    +0.054 A 
ATOM     17  O   UNL     1       0.341  -0.447   8.327  0.00  0.00    -0.453 OA
ATOM     18  C   UNL     1      -0.412  -0.725   9.522  0.00  0.00    +0.466 C 
ATOM     19  O   UNL     1      -1.710  -1.105   9.028  0.00  0.00    -0.453 OA
ENDBRANCH  10  11
ENDBRANCH   1  10
BRANCH   1  20
ATOM     20  C   UNL     1      -2.187   1.482   1.817  0.00  0.00    +0.121 C 
BRANCH  20  21
ATOM     21  C   UNL     1      -3.081   0.626   0.918  0.00  0.00    +0.158 C 
BRANCH  21  22
ATOM     22  C   UNL     1      -3.622   1.472  -0.206  0.00  0.00    -0.018 A 
ATOM     23  C   UNL     1      -2.904   1.604  -1.379  0.00  0.00    +0.006 A 
ATOM     24  C   UNL     1      -3.401   2.381  -2.410  0.00  0.00    +0.000 A 
ATOM     25  C   UNL     1      -4.615   3.025  -2.267  0.00  0.00    +0.000 A 
ATOM     26  C   UNL     1      -5.334   2.892  -1.093  0.00  0.00    +0.000 A 
ATOM     27  C   UNL     1      -4.840   2.112  -0.064  0.00  0.00    +0.006 A 
ENDBRANCH  21  22
BRANCH  21  28
ATOM     28  O   UNL     1      -2.317  -0.453   0.375  0.00  0.00    -0.386 OA
ATOM     29  H   UNL     1      -1.538  -0.172  -0.124  0.00  0.00    +0.210 HD
ENDBRANCH  21  28
ENDBRANCH  20  21
ENDBRANCH   1  20
TORSDOF 8
