REMARK  Name = ZINC13130274
REMARK  7 active torsions:
REMARK  status: ('A' for Active; 'I' for Inactive)
REMARK    1  A    between atoms: C_1  and  O_2
REMARK    2  A    between atoms: O_2  and  C_3
REMARK    3  A    between atoms: C_6  and  C_11
REMARK    4  A    between atoms: C_8  and  O_9
REMARK    5  A    between atoms: O_9  and  C_10
REMARK    6  A    between atoms: C_13  and  C_17
REMARK    7  A    between atoms: C_22  and  O_23
REMARK                            x       y       z     vdW  Elec       q    Type
REMARK                         _______ _______ _______ _____ _____    ______ ____
ROOT
ATOM      1  C   UNL     1       2.495  -2.490  -4.369  0.00  0.00    +0.066 A 
ATOM      2  C   UNL     1       3.094  -1.859  -5.420  0.00  0.00    +0.058 A 
ATOM      3  C   UNL     1       3.589  -2.846  -6.288  0.00  0.00    +0.097 A 
ATOM      4  N   UNL     1       3.301  -4.026  -5.780  0.00  0.00    -0.173 NA
ATOM      5  N   UNL     1       2.619  -3.833  -4.572  0.00  0.00    -0.276 N 
ATOM      6  H   UNL     1       2.290  -4.532  -3.985  0.00  0.00    +0.189 HD
ENDROOT
BRANCH   1  10
ATOM      7  C   UNL     1       0.606  -0.607  -1.056  0.00  0.00    +0.162 A 
ATOM      8  C   UNL     1       1.172   0.163  -2.061  0.00  0.00    +0.050 A 
ATOM      9  C   UNL     1       1.786  -0.445  -3.137  0.00  0.00    +0.014 A 
ATOM     10  C   UNL     1       1.838  -1.837  -3.216  0.00  0.00    +0.003 A 
ATOM     11  C   UNL     1       1.269  -2.612  -2.205  0.00  0.00    +0.059 A 
ATOM     12  C   UNL     1       0.660  -1.997  -1.126  0.00  0.00    +0.162 A 
BRANCH   7  14
ATOM     13  C   UNL     1      -0.017   1.425   0.010  0.00  0.00    +0.277 C 
ATOM     14  O   UNL     1       0.002  -0.004   0.002  0.00  0.00    -0.491 OA
ENDBRANCH   7  14
BRANCH  12  15
ATOM     15  O   UNL     1       0.109  -2.750  -0.136  0.00  0.00    -0.491 OA
ATOM     16  C   UNL     1       0.201  -4.169  -0.273  0.00  0.00    +0.277 C 
ENDBRANCH  12  15
ENDBRANCH   1  10
BRANCH   3  17
ATOM     17  C   UNL     1       4.314  -2.601  -7.560  0.00  0.00    +0.044 A 
ATOM     18  C   UNL     1       4.561  -1.298  -7.984  0.00  0.00    +0.014 A 
ATOM     19  C   UNL     1       5.235  -1.075  -9.168  0.00  0.00    +0.001 A 
ATOM     20  C   UNL     1       5.666  -2.142  -9.936  0.00  0.00    +0.004 A 
ATOM     21  C   UNL     1       5.426  -3.439  -9.524  0.00  0.00    +0.046 A 
ATOM     22  C   UNL     1       4.756  -3.677  -8.335  0.00  0.00    +0.126 A 
BRANCH  22  23
ATOM     23  O   UNL     1       4.524  -4.952  -7.926  0.00  0.00    -0.506 OA
ATOM     24  H   UNL     1       3.690  -5.322  -8.245  0.00  0.00    +0.292 HD
ENDBRANCH  22  23
ENDBRANCH   3  17
TORSDOF 5
