REMARK  Name = ZINC14961380
REMARK  7 active torsions:
REMARK  status: ('A' for Active; 'I' for Inactive)
REMARK    1  A    between atoms: C_1  and  N_56
REMARK    2  A    between atoms: C_2  and  C_3
REMARK    3  A    between atoms: C_2  and  N_56
REMARK    4  A    between atoms: C_6  and  C_11
REMARK    5  A    between atoms: N_13  and  C_14
REMARK    6  A    between atoms: C_14  and  C_15
REMARK    7  A    between atoms: C_24  and  N_56
REMARK                            x       y       z     vdW  Elec       q    Type
REMARK                         _______ _______ _______ _____ _____    ______ ____
ROOT
ATOM      1  C   UNL     1      -8.207   4.276  -5.541  0.00  0.00    +0.003 A 
ATOM      2  C   UNL     1      -9.050   4.566  -4.517  0.00  0.00    +0.020 A 
ATOM      3  C   UNL     1      -8.646   4.357  -3.199  0.00  0.00    +0.020 A 
ATOM      4  C   UNL     1      -7.372   3.848  -2.955  0.00  0.00    +0.101 A 
ATOM      5  C   UNL     1      -6.526   3.565  -4.059  0.00  0.00    +0.261 A 
ATOM      6  O   UNL     1      -5.405   3.124  -3.872  0.00  0.00    -0.267 OA
ATOM      7  N   UNL     1      -6.967   3.781  -5.312  0.00  0.00    -0.327 N 
ATOM      8  H   UNL     1      -6.386   3.583  -6.063  0.00  0.00    +0.169 HD
ENDROOT
BRANCH   4   9
ATOM      9  C   UNL     1      -6.910   3.615  -1.578  0.00  0.00    +0.250 C 
ATOM     10  O   UNL     1      -7.677   3.764  -0.646  0.00  0.00    -0.270 OA
ATOM     11  N   UNL     1      -5.637   3.235  -1.350  0.00  0.00    -0.307 N 
ATOM     12  H   UNL     1      -5.046   3.046  -2.096  0.00  0.00    +0.149 HD
BRANCH  11  13
ATOM     13  C   UNL     1      -5.146   3.108   0.024  0.00  0.00    +0.147 C 
BRANCH  13  14
ATOM     14  C   UNL     1      -3.703   2.673   0.004  0.00  0.00    +0.008 A 
ATOM     15  C   UNL     1      -2.605   3.443  -0.009  0.00  0.00    +0.021 A 
ATOM     16  C   UNL     1      -1.293   2.812  -0.032  0.00  0.00    -0.011 A 
ATOM     17  C   UNL     1      -0.017   3.423  -0.066  0.00  0.00    +0.009 A 
ATOM     18  C   UNL     1       1.114   2.669  -0.084  0.00  0.00    +0.001 A 
ATOM     19  C   UNL     1       1.062   1.282  -0.069  0.00  0.00    +0.001 A 
ATOM     20  C   UNL     1      -0.164   0.647  -0.036  0.00  0.00    +0.015 A 
ATOM     21  C   UNL     1      -1.319   1.401  -0.024  0.00  0.00    +0.020 A 
ATOM     22  S   UNL     1      -3.050   1.015   0.009  0.00  0.00    -0.092 S 
ENDBRANCH  13  14
ENDBRANCH  11  13
ENDBRANCH   4   9
BRANCH   1  23
ATOM     23  C   UNL     1      -8.660   4.509  -6.960  0.00  0.00    -0.025 C 
BRANCH  23  25
ATOM     24  C   UNL     1      -7.983   5.555  -9.036  0.00  0.00    -0.095 C 
ATOM     25  N   UNL     1      -7.797   5.542  -7.570  0.00  0.00    +0.383 N 
ATOM     26  H   UNL     1      -6.816   5.324  -7.360  0.00  0.00    -0.081 HD
BRANCH  25  27
ATOM     27  C   UNL     1      -8.125   6.870  -7.008  0.00  0.00    -0.068 C 
ATOM     28  C   UNL     1      -9.559   7.264  -7.365  0.00  0.00    -0.015 C 
ATOM     29  C   UNL     1      -9.871   8.640  -6.774  0.00  0.00    -0.002 C 
ATOM     30  C   UNL     1      -8.900   9.674  -7.347  0.00  0.00    -0.000 C 
ATOM     31  C   UNL     1      -7.466   9.280  -6.990  0.00  0.00    -0.002 C 
ATOM     32  C   UNL     1      -7.153   7.904  -7.581  0.00  0.00    -0.015 C 
ENDBRANCH  25  27
ENDBRANCH  23  25
ENDBRANCH   1  23
TORSDOF 6
