REMARK  Name = ZINC03310158
REMARK  7 active torsions:
REMARK  status: ('A' for Active; 'I' for Inactive)
REMARK    1  A    between atoms: C_1  and  C_2
REMARK    2  A    between atoms: C_6  and  N_9
REMARK    3  A    between atoms: C_7  and  C_8
REMARK    4  A    between atoms: N_9  and  C_10
REMARK    5  A    between atoms: C_10  and  N_12
REMARK    6  A    between atoms: N_12  and  N_13
REMARK    7  A    between atoms: C_14  and  C_15
REMARK                            x       y       z     vdW  Elec       q    Type
REMARK                         _______ _______ _______ _____ _____    ______ ____
ROOT
ATOM      1  N   UNL     1       1.189   6.202  -0.166  0.00  0.00    -0.188 NA
ATOM      2  C   UNL     1       1.181   7.499  -0.272  0.00  0.00    +0.139 C 
ENDROOT
BRANCH   2   3
ATOM      3  C   UNL     1       2.444   8.242  -0.280  0.00  0.00    +0.010 A 
ATOM      4  C   UNL     1       2.442   9.652  -0.278  0.00  0.00    -0.007 A 
ATOM      5  C   UNL     1       1.237  10.376  -0.259  0.00  0.00    +0.009 A 
ATOM      6  C   UNL     1       1.271  11.736  -0.253  0.00  0.00    +0.001 A 
ATOM      7  C   UNL     1       2.474  12.438  -0.261  0.00  0.00    +0.001 A 
ATOM      8  C   UNL     1       3.673  11.798  -0.275  0.00  0.00    +0.010 A 
ATOM      9  C   UNL     1       3.708  10.387  -0.281  0.00  0.00    +0.002 A 
ATOM     10  C   UNL     1       4.924   9.699  -0.296  0.00  0.00    +0.056 A 
ATOM     11  C   UNL     1       4.934   8.303  -0.303  0.00  0.00    +0.002 A 
ATOM     12  C   UNL     1       3.675   7.554  -0.295  0.00  0.00    -0.007 A 
ATOM     13  C   UNL     1       3.722   6.149  -0.301  0.00  0.00    +0.009 A 
ATOM     14  C   UNL     1       4.926   5.517  -0.316  0.00  0.00    +0.001 A 
ATOM     15  C   UNL     1       6.125   6.227  -0.323  0.00  0.00    +0.001 A 
ATOM     16  C   UNL     1       6.149   7.585  -0.318  0.00  0.00    +0.010 A 
ATOM     17 CL   UNL     1       6.420  10.579  -0.305  0.00  0.00    -0.082 Cl
ENDBRANCH   2   3
BRANCH   1  18
ATOM     18  N   UNL     1      -0.019   5.492  -0.158  0.00  0.00    -0.218 N 
ATOM     19  H   UNL     1      -0.861   5.967  -0.232  0.00  0.00    +0.176 HD
BRANCH  18  20
ATOM     20  C   UNL     1      -0.010   4.148  -0.049  0.00  0.00    +0.154 C 
ATOM     21  S   UNL     1      -1.486   3.281  -0.040  0.00  0.00    -0.017 S 
BRANCH  20  22
ATOM     22  N   UNL     1       1.160   3.488   0.054  0.00  0.00    -0.295 N 
ATOM     23  H   UNL     1       1.994   3.982   0.097  0.00  0.00    +0.154 HD
BRANCH  22  29
ATOM     24  C   UNL     1       3.057  -0.671   1.862  0.00  0.00    +0.044 C 
ATOM     25  C   UNL     1       2.082   0.048   0.966  0.00  0.00    -0.046 A 
ATOM     26  C   UNL     1       1.198  -0.675   0.185  0.00  0.00    +0.004 A 
ATOM     27  C   UNL     1       0.303  -0.019  -0.639  0.00  0.00    +0.002 A 
ATOM     28  C   UNL     1       0.287   1.361  -0.685  0.00  0.00    +0.023 A 
ATOM     29  C   UNL     1       1.173   2.090   0.098  0.00  0.00    +0.036 A 
ATOM     30  C   UNL     1       2.072   1.428   0.925  0.00  0.00    -0.026 A 
ATOM     31  C   UNL     1       3.034   2.215   1.776  0.00  0.00    +0.046 C 
ENDBRANCH  22  29
ENDBRANCH  20  22
ENDBRANCH  18  20
ENDBRANCH   1  18
TORSDOF 5
