REMARK  Name = ZINC32824025
REMARK  6 active torsions:
REMARK  status: ('A' for Active; 'I' for Inactive)
REMARK    1  A    between atoms: C_4  and  N_7
REMARK    2  A    between atoms: C_10  and  C_30
REMARK    3  A    between atoms: C_11  and  N_12
REMARK    4  A    between atoms: C_13  and  C_15
REMARK    5  A    between atoms: C_15  and  N_16
REMARK    6  A    between atoms: C_25  and  C_27
REMARK                            x       y       z     vdW  Elec       q    Type
REMARK                         _______ _______ _______ _____ _____    ______ ____
ROOT
ATOM      1  N   UNL     1       2.369   1.048  -2.399  0.00  0.00    -0.272 N 
ATOM      2  C   UNL     1       1.134   1.328  -1.939  0.00  0.00    +0.202 C 
ATOM      3  O   UNL     1       0.337   1.901  -2.651  0.00  0.00    -0.278 OA
ATOM      4  H   UNL     1       3.070   0.470  -1.778  0.00  0.00    +0.156 HD
ENDROOT
BRANCH   1   9
ATOM      5  N   UNL     1       3.324   0.725  -4.632  0.00  0.00    -0.300 N 
ATOM      6  C   UNL     1       3.571   1.488  -5.741  0.00  0.00    +0.030 A 
ATOM      7  C   UNL     1       3.180   2.754  -5.498  0.00  0.00    -0.007 A 
ATOM      8  C   UNL     1       2.642   2.786  -4.140  0.00  0.00    +0.095 A 
ATOM      9  C   UNL     1       2.757   1.488  -3.656  0.00  0.00    +0.128 A 
ATOM     10  C   UNL     1       3.298   3.892  -6.477  0.00  0.00    +0.038 C 
ATOM     11  C   UNL     1       4.277   3.479  -7.583  0.00  0.00    +0.005 C 
ATOM     12  C   UNL     1       3.890   2.095  -8.113  0.00  0.00    +0.006 C 
ATOM     13  C   UNL     1       4.185   1.036  -7.045  0.00  0.00    +0.054 C 
BRANCH   5  17
ATOM     14  C   UNL     1       4.171  -3.342  -4.297  0.00  0.00    +0.000 A 
ATOM     15  C   UNL     1       2.889  -2.882  -4.056  0.00  0.00    +0.002 A 
ATOM     16  C   UNL     1       2.606  -1.535  -4.166  0.00  0.00    +0.026 A 
ATOM     17  C   UNL     1       3.609  -0.642  -4.519  0.00  0.00    +0.048 A 
ATOM     18  C   UNL     1       4.894  -1.108  -4.765  0.00  0.00    +0.026 A 
ATOM     19  C   UNL     1       5.173  -2.456  -4.648  0.00  0.00    +0.002 A 
ENDBRANCH   5  17
BRANCH   8  20
ATOM     20  C   UNL     1       2.107   3.920  -3.449  0.00  0.00    +0.103 C 
ATOM     21  N   UNL     1       1.682   4.820  -2.901  0.00  0.00    -0.191 NA
ENDBRANCH   8  20
ENDBRANCH   1   9
BRANCH   2  22
ATOM     22  C   UNL     1       0.743   0.929  -0.539  0.00  0.00    +0.020 C 
BRANCH  22  23
ATOM     23  N   UNL     1      -0.642   1.344  -0.281  0.00  0.00    +0.396 N 
ATOM     24  C   UNL     1      -0.741   2.802  -0.160  0.00  0.00    -0.041 C 
ATOM     25  C   UNL     1      -2.146   3.208   0.200  0.00  0.00    -0.061 A 
ATOM     26  C   UNL     1      -2.523   4.528   0.002  0.00  0.00    +0.002 A 
ATOM     27  C   UNL     1      -3.798   4.945   0.326  0.00  0.00    +0.000 A 
ATOM     28  C   UNL     1      -4.705   4.044   0.852  0.00  0.00    +0.000 A 
ATOM     29  C   UNL     1      -4.331   2.730   1.048  0.00  0.00    +0.004 A 
ATOM     30  C   UNL     1      -3.051   2.309   0.722  0.00  0.00    -0.047 A 
ATOM     31  C   UNL     1      -2.689   0.864   0.949  0.00  0.00    +0.029 C 
ATOM     32  C   UNL     1      -1.169   0.697   0.931  0.00  0.00    +0.024 C 
ATOM     33  H   UNL     1      -1.251   1.027  -1.141  0.00  0.00    -0.080 HD
BRANCH  32  34
ATOM     34  C   UNL     1      -0.821  -0.769   0.914  0.00  0.00    +0.197 C 
ATOM     35  O   UNL     1      -0.668  -1.344  -0.143  0.00  0.00    -0.278 OA
ATOM     36  N   UNL     1      -0.680  -1.442   2.073  0.00  0.00    -0.331 N 
ATOM     37  H   UNL     1      -0.426  -2.513   2.061  0.00  0.00    +0.145 HD
ATOM     38  H   UNL     1      -0.820  -0.921   3.032  0.00  0.00    +0.145 HD
ENDBRANCH  32  34
ENDBRANCH  22  23
ENDBRANCH   2  22
TORSDOF 6
