REMARK  Name = ZINC08790691
REMARK  6 active torsions:
REMARK  status: ('A' for Active; 'I' for Inactive)
REMARK    1  A    between atoms: C_1  and  C_2
REMARK    2  A    between atoms: C_7  and  C_8
REMARK    3  A    between atoms: C_17  and  C_19
REMARK    4  A    between atoms: C_19  and  C_20
REMARK    5  A    between atoms: N_25  and  C_28
REMARK    6  A    between atoms: C_28  and  C_29
REMARK                            x       y       z     vdW  Elec       q    Type
REMARK                         _______ _______ _______ _____ _____    ______ ____
ROOT
ATOM      1  C   UNL     1       2.822  -5.461  -2.305  0.00  0.00    +0.044 C 
ATOM      2  C   UNL     1       2.444  -4.098  -1.785  0.00  0.00    -0.046 A 
ATOM      3  C   UNL     1       1.867  -3.172  -2.635  0.00  0.00    +0.004 A 
ATOM      4  C   UNL     1       1.519  -1.921  -2.157  0.00  0.00    +0.005 A 
ATOM      5  C   UNL     1       1.745  -1.601  -0.838  0.00  0.00    -0.027 A 
ATOM      6  C   UNL     1       2.327  -2.523   0.027  0.00  0.00    +0.039 A 
ATOM      7  C   UNL     1       2.675  -3.780  -0.463  0.00  0.00    -0.026 A 
ATOM      8  C   UNL     1       3.305  -4.795   0.455  0.00  0.00    +0.046 C 
ATOM      9  N   UNL     1       2.456  -1.973   1.304  0.00  0.00    -0.286 N 
ATOM     10  C   UNL     1       1.989  -0.711   1.363  0.00  0.00    +0.211 C 
ATOM     11  O   UNL     1       1.973   0.011   2.338  0.00  0.00    -0.277 OA
ATOM     12  C   UNL     1       1.492  -0.369  -0.014  0.00  0.00    +0.050 C 
ATOM     13  C   UNL     1       0.002  -0.004   0.002  0.00  0.00    +0.088 C 
ATOM     14  C   UNL     1      -0.019   1.550   0.011  0.00  0.00    +0.073 C 
ATOM     15  C   UNL     1       1.467   1.967  -0.001  0.00  0.00    -0.049 C 
ATOM     16  C   UNL     1      -0.647   1.898  -1.320  0.00  0.00    +0.224 C 
ATOM     17  O   UNL     1      -0.845   3.022  -1.728  0.00  0.00    -0.275 OA
ATOM     18  N   UNL     1      -0.950   0.772  -1.976  0.00  0.00    -0.237 N 
ATOM     19  C   UNL     1      -0.633  -0.353  -1.325  0.00  0.00    +0.225 C 
ATOM     20  O   UNL     1      -0.825  -1.477  -1.736  0.00  0.00    -0.275 OA
ATOM     21  H   UNL     1       2.839  -2.445   2.061  0.00  0.00    +0.155 HD
ATOM     22  N   UNL     1       2.164   0.805  -0.545  0.00  0.00    +0.394 N 
ATOM     23  H   UNL     1       2.114   0.809  -1.570  0.00  0.00    -0.083 HD
ATOM     24  H   UNL     1       3.148   0.813  -0.251  0.00  0.00    -0.083 HD
ENDROOT
BRANCH  15  25
ATOM     25  C   UNL     1       1.663   3.211  -0.870  0.00  0.00    +0.080 C 
BRANCH  25  26
ATOM     26  C   UNL     1       3.095   3.672  -0.770  0.00  0.00    +0.209 C 
ATOM     27  O   UNL     1       3.880   3.066  -0.073  0.00  0.00    -0.276 OA
ATOM     28  N   UNL     1       3.502   4.758  -1.456  0.00  0.00    -0.329 N 
ATOM     29  H   UNL     1       2.874   5.243  -2.014  0.00  0.00    +0.145 HD
ATOM     30  H   UNL     1       4.423   5.056  -1.392  0.00  0.00    +0.145 HD
ENDBRANCH  25  26
ENDBRANCH  15  25
BRANCH  18  31
ATOM     31  C   UNL     1      -1.578   0.772  -3.300  0.00  0.00    +0.151 C 
BRANCH  31  32
ATOM     32  C   UNL     1      -3.077   0.762  -3.145  0.00  0.00    -0.026 A 
ATOM     33  C   UNL     1      -3.756  -0.440  -3.083  0.00  0.00    +0.009 A 
ATOM     34  C   UNL     1      -5.130  -0.454  -2.935  0.00  0.00    +0.050 A 
ATOM     35  C   UNL     1      -5.832   0.738  -2.860  0.00  0.00    +0.166 A 
ATOM     36  C   UNL     1      -5.148   1.950  -2.928  0.00  0.00    +0.167 A 
ATOM     37  C   UNL     1      -3.770   1.956  -3.071  0.00  0.00    +0.054 A 
ATOM     38  O   UNL     1      -6.053   2.967  -2.833  0.00  0.00    -0.453 OA
ATOM     39  C   UNL     1      -7.333   2.372  -3.117  0.00  0.00    +0.466 C 
ATOM     40  O   UNL     1      -7.165   0.997  -2.722  0.00  0.00    -0.453 OA
ENDBRANCH  31  32
ENDBRANCH  18  31
TORSDOF 4
