REMARK  Name = ZINC13499378
REMARK  14 active torsions:
REMARK  status: ('A' for Active; 'I' for Inactive)
REMARK    1  A    between atoms: C_1  and  C_2
REMARK    2  A    between atoms: C_2  and  C_3
REMARK    3  A    between atoms: C_3  and  C_4
REMARK    4  A    between atoms: C_4  and  C_6
REMARK    5  A    between atoms: C_4  and  N_77
REMARK    6  A    between atoms: N_10  and  C_11
REMARK    7  A    between atoms: C_11  and  C_12
REMARK    8  A    between atoms: C_15  and  O_18
REMARK    9  A    between atoms: O_18  and  C_19
REMARK   10  A    between atoms: C_20  and  C_21
REMARK   11  A    between atoms: C_20  and  N_77
REMARK   12  A    between atoms: C_26  and  O_33
REMARK   13  A    between atoms: O_33  and  C_34
REMARK   14  A    between atoms: C_35  and  N_77
REMARK                            x       y       z     vdW  Elec       q    Type
REMARK                         _______ _______ _______ _____ _____    ______ ____
ROOT
ATOM      1  N   UNL     1      -8.205  -1.425   3.846  0.00  0.00    +0.391 N 
ATOM      2  H   UNL     1      -7.603  -1.287   4.666  0.00  0.00    -0.080 HD
ENDROOT
BRANCH   1   3
ATOM      3  C   UNL     1      -7.712  -2.589   3.080  0.00  0.00    -0.067 C 
ATOM      4  C   UNL     1      -8.681  -2.934   1.947  0.00  0.00    -0.015 C 
ATOM      5  C   UNL     1      -8.150  -4.142   1.173  0.00  0.00    -0.002 C 
ATOM      6  C   UNL     1      -8.024  -5.339   2.118  0.00  0.00    -0.000 C 
ATOM      7  C   UNL     1      -7.054  -4.993   3.251  0.00  0.00    -0.002 C 
ATOM      8  C   UNL     1      -7.585  -3.785   4.025  0.00  0.00    -0.015 C 
ENDBRANCH   1   3
BRANCH   1   9
ATOM      9  C   UNL     1      -9.590  -1.670   4.302  0.00  0.00    +0.003 C 
BRANCH   9  10
ATOM     10  C   UNL     1     -10.563  -1.451   3.173  0.00  0.00    +0.138 A 
ATOM     11  N   UNL     1     -10.625  -0.406   2.384  0.00  0.00    -0.115 NA
ATOM     12  N   UNL     1     -11.587  -0.594   1.549  0.00  0.00    -0.023 NA
ATOM     13  N   UNL     1     -12.141  -1.732   1.784  0.00  0.00    -0.044 NA
ATOM     14  N   UNL     1     -11.534  -2.293   2.775  0.00  0.00    -0.226 N 
BRANCH  14  15
ATOM     15  C   UNL     1     -11.847  -3.600   3.359  0.00  0.00    +0.182 C 
BRANCH  15  16
ATOM     16  C   UNL     1     -12.860  -3.429   4.460  0.00  0.00    -0.026 A 
ATOM     17  C   UNL     1     -12.438  -3.213   5.759  0.00  0.00    +0.009 A 
ATOM     18  C   UNL     1     -13.366  -3.050   6.770  0.00  0.00    +0.046 A 
ATOM     19  C   UNL     1     -14.722  -3.114   6.483  0.00  0.00    +0.120 A 
ATOM     20  C   UNL     1     -15.142  -3.337   5.180  0.00  0.00    +0.046 A 
ATOM     21  C   UNL     1     -14.211  -3.493   4.172  0.00  0.00    +0.009 A 
BRANCH  19  22
ATOM     22  O   UNL     1     -15.636  -2.959   7.476  0.00  0.00    -0.495 OA
ATOM     23  C   UNL     1     -15.130  -2.733   8.794  0.00  0.00    +0.277 C 
ENDBRANCH  19  22
ENDBRANCH  15  16
ENDBRANCH  14  15
ENDBRANCH   9  10
BRANCH   9  24
ATOM     24  C   UNL     1      -9.908  -0.703   5.444  0.00  0.00    -0.008 C 
BRANCH  24  26
ATOM     25  C   UNL     1      -9.410  -0.132   7.825  0.00  0.00    +0.004 C 
ATOM     26  C   UNL     1      -9.011  -1.017   6.643  0.00  0.00    -0.005 C 
ENDBRANCH  24  26
ENDBRANCH   9  24
ENDBRANCH   1   9
BRANCH   1  27
ATOM     27  C   UNL     1      -8.158  -0.210   3.006  0.00  0.00    -0.036 C 
BRANCH  27  28
ATOM     28  C   UNL     1      -6.722   0.229   2.870  0.00  0.00    +0.001 A 
ATOM     29  C   UNL     1      -6.067   0.044   1.696  0.00  0.00    +0.017 A 
ATOM     30  C   UNL     1      -4.675   0.480   1.596  0.00  0.00    -0.001 A 
ATOM     31  C   UNL     1      -3.949   0.315   0.410  0.00  0.00    +0.013 A 
ATOM     32  C   UNL     1      -2.653   0.736   0.344  0.00  0.00    +0.046 A 
ATOM     33  C   UNL     1      -2.042   1.320   1.452  0.00  0.00    +0.122 A 
ATOM     34  C   UNL     1      -2.742   1.492   2.634  0.00  0.00    +0.072 A 
ATOM     35  C   UNL     1      -4.064   1.075   2.717  0.00  0.00    +0.053 A 
ATOM     36  N   UNL     1      -4.785   1.233   3.882  0.00  0.00    -0.322 N 
ATOM     37  H   UNL     1      -4.364   1.643   4.653  0.00  0.00    +0.169 HD
ATOM     38  C   UNL     1      -6.065   0.829   3.963  0.00  0.00    +0.251 A 
ATOM     39  O   UNL     1      -6.672   0.985   5.008  0.00  0.00    -0.268 OA
BRANCH  33  40
ATOM     40  O   UNL     1      -0.750   1.729   1.371  0.00  0.00    -0.495 OA
ATOM     41  C   UNL     1      -0.082   1.523   0.124  0.00  0.00    +0.277 C 
ENDBRANCH  33  40
ENDBRANCH  27  28
ENDBRANCH   1  27
TORSDOF 11
