REMARK  Name = ZINC09404152
REMARK  10 active torsions:
REMARK  status: ('A' for Active; 'I' for Inactive)
REMARK    1  A    between atoms: C_2  and  C_3
REMARK    2  A    between atoms: C_3  and  N_4
REMARK    3  A    between atoms: N_4  and  C_5
REMARK    4  A    between atoms: N_4  and  S_8
REMARK    5  A    between atoms: C_5  and  C_6
REMARK    6  A    between atoms: S_8  and  C_11
REMARK    7  A    between atoms: C_14  and  C_17
REMARK    8  A    between atoms: N_19  and  N_20
REMARK    9  A    between atoms: C_21  and  C_23
REMARK   10  A    between atoms: C_27  and  N_32
REMARK                            x       y       z     vdW  Elec       q    Type
REMARK                         _______ _______ _______ _____ _____    ______ ____
ROOT
ATOM      1  C   UNL     1      -1.187   1.624   0.017  0.00  0.00    +0.260 C 
ATOM      2  O   UNL     1      -1.204   2.839   0.023  0.00  0.00    -0.269 OA
ATOM      3  N   UNL     1      -0.011   0.966   0.007  0.00  0.00    -0.230 N 
ATOM      4  H   UNL     1       0.002  -0.004   0.002  0.00  0.00    +0.173 HD
ENDROOT
BRANCH   1   8
ATOM      5  C   UNL     1      -4.837  -0.550   0.021  0.00  0.00    +0.106 A 
ATOM      6  C   UNL     1      -4.859   0.834   0.029  0.00  0.00    +0.029 A 
ATOM      7  C   UNL     1      -3.677   1.546   0.028  0.00  0.00    +0.015 A 
ATOM      8  C   UNL     1      -2.458   0.867   0.018  0.00  0.00    +0.038 A 
ATOM      9  C   UNL     1      -2.442  -0.528   0.005  0.00  0.00    +0.015 A 
ATOM     10  C   UNL     1      -3.631  -1.228   0.012  0.00  0.00    +0.029 A 
BRANCH   5  11
ATOM     11  S   UNL     1      -6.351  -1.452   0.024  0.00  0.00    +0.061 S 
ATOM     12  O   UNL     1      -6.059  -2.732   0.567  0.00  0.00    -0.153 OA
ATOM     13  O   UNL     1      -7.334  -0.592   0.585  0.00  0.00    -0.153 OA
BRANCH  11  14
ATOM     14  N   UNL     1      -6.779  -1.693  -1.557  0.00  0.00    -0.169 NA
BRANCH  14  15
ATOM     15  C   UNL     1      -6.320  -2.890  -2.265  0.00  0.00    +0.136 C 
BRANCH  15  17
ATOM     16  C   UNL     1      -7.842  -4.502  -3.288  0.00  0.00    +0.005 C 
ATOM     17  C   UNL     1      -7.381  -3.958  -2.190  0.00  0.00    -0.018 C 
ENDBRANCH  15  17
ENDBRANCH  14  15
BRANCH  14  18
ATOM     18  C   UNL     1      -7.618  -0.710  -2.247  0.00  0.00    +0.136 C 
BRANCH  18  19
ATOM     19  C   UNL     1      -6.742   0.252  -3.007  0.00  0.00    -0.018 C 
ATOM     20  C   UNL     1      -6.928   0.432  -4.291  0.00  0.00    +0.005 C 
ENDBRANCH  18  19
ENDBRANCH  14  18
ENDBRANCH  11  14
ENDBRANCH   5  11
ENDBRANCH   1   8
BRANCH   3  21
ATOM     21  N   UNL     1       1.193   1.683  -0.000  0.00  0.00    -0.230 N 
ATOM     22  C   UNL     1       2.369   1.025  -0.015  0.00  0.00    +0.267 C 
ATOM     23  O   UNL     1       2.385  -0.192  -0.022  0.00  0.00    -0.268 OA
ATOM     24  H   UNL     1       1.179   2.653   0.005  0.00  0.00    +0.173 HD
BRANCH  22  25
ATOM     25  C   UNL     1       3.632   1.777  -0.023  0.00  0.00    +0.076 A 
ATOM     26  C   UNL     1       4.904   1.297  -0.038  0.00  0.00    +0.029 A 
ATOM     27  C   UNL     1       5.990   2.190  -0.043  0.00  0.00    -0.008 A 
ATOM     28  C   UNL     1       7.377   1.886  -0.058  0.00  0.00    +0.041 A 
ATOM     29  C   UNL     1       8.305   2.877  -0.062  0.00  0.00    +0.127 A 
ATOM     30  C   UNL     1       7.939   4.218  -0.051  0.00  0.00    +0.034 A 
ATOM     31  C   UNL     1       6.602   4.558  -0.036  0.00  0.00    +0.018 A 
ATOM     32  C   UNL     1       5.648   3.563  -0.033  0.00  0.00    +0.020 A 
ATOM     33  S   UNL     1       3.873   3.545  -0.024  0.00  0.00    -0.084 S 
BRANCH  29  34
ATOM     34  N   UNL     1       9.741   2.520  -0.078  0.00  0.00    +0.056 N 
ATOM     35  O   UNL     1      10.586   3.397  -0.082  0.00  0.00    -0.126 OA
ATOM     36  O   UNL     1      10.078   1.350  -0.087  0.00  0.00    -0.126 OA
ENDBRANCH  29  34
ENDBRANCH  22  25
ENDBRANCH   3  21
TORSDOF 10
