REMARK  Name = ZINC02959671
REMARK  7 active torsions:
REMARK  status: ('A' for Active; 'I' for Inactive)
REMARK    1  A    between atoms: C_1  and  C_2
REMARK    2  A    between atoms: C_2  and  C_3
REMARK    3  A    between atoms: C_3  and  C_5
REMARK    4  A    between atoms: C_3  and  S_14
REMARK    5  A    between atoms: N_7  and  C_8
REMARK    6  A    between atoms: C_8  and  C_9
REMARK    7  A    between atoms: S_14  and  C_15
REMARK                            x       y       z     vdW  Elec       q    Type
REMARK                         _______ _______ _______ _____ _____    ______ ____
ROOT
ATOM      1  C   UNL     1       2.119   1.882  -1.111  0.00  0.00    +0.176 A 
ATOM      2  N   UNL     1       0.911   2.385  -1.109  0.00  0.00    -0.223 NA
ATOM      3  C   UNL     1       0.688   3.718  -1.005  0.00  0.00    +0.077 A 
ATOM      4  C   UNL     1      -0.609   4.240  -1.005  0.00  0.00    +0.028 A 
ATOM      5  C   UNL     1      -0.798   5.599  -0.898  0.00  0.00    +0.002 A 
ATOM      6  C   UNL     1       0.285   6.461  -0.790  0.00  0.00    +0.001 A 
ATOM      7  C   UNL     1       1.573   5.971  -0.787  0.00  0.00    +0.013 A 
ATOM      8  C   UNL     1       1.786   4.599  -0.894  0.00  0.00    +0.043 A 
ATOM      9  C   UNL     1       3.140   4.022  -0.897  0.00  0.00    +0.150 A 
ATOM     10  N   UNL     1       3.247   2.653  -1.003  0.00  0.00    -0.271 N 
ATOM     11  C   UNL     1       4.596   2.349  -0.977  0.00  0.00    +0.076 A 
ATOM     12  C   UNL     1       5.317   1.166  -1.050  0.00  0.00    +0.028 A 
ATOM     13  C   UNL     1       6.694   1.199  -0.995  0.00  0.00    +0.002 A 
ATOM     14  C   UNL     1       7.364   2.408  -0.868  0.00  0.00    +0.002 A 
ATOM     15  C   UNL     1       6.672   3.583  -0.794  0.00  0.00    +0.030 A 
ATOM     16  C   UNL     1       5.274   3.574  -0.848  0.00  0.00    +0.090 A 
ATOM     17  N   UNL     1       4.337   4.553  -0.812  0.00  0.00    -0.227 NA
ENDROOT
BRANCH   1  18
ATOM     18  S   UNL     1       2.303   0.135  -1.250  0.00  0.00    -0.075 S 
BRANCH  18  19
ATOM     19  C   UNL     1       0.598  -0.482  -1.312  0.00  0.00    +0.140 C 
BRANCH  19  20
ATOM     20  C   UNL     1      -0.047  -0.050  -2.603  0.00  0.00    +0.227 C 
ATOM     21  O   UNL     1       0.640   0.191  -3.573  0.00  0.00    -0.275 OA
ATOM     22  N   UNL     1      -1.387   0.068  -2.681  0.00  0.00    -0.307 N 
ATOM     23  H   UNL     1      -1.937  -0.126  -1.905  0.00  0.00    +0.149 HD
BRANCH  22  24
ATOM     24  C   UNL     1      -2.014   0.488  -3.937  0.00  0.00    +0.178 C 
BRANCH  24  25
ATOM     25  C   UNL     1      -3.509   0.540  -3.759  0.00  0.00    +0.122 A 
ATOM     26  C   UNL     1      -4.217   1.612  -3.359  0.00  0.00    +0.046 A 
ATOM     27  C   UNL     1      -5.575   1.219  -3.330  0.00  0.00    +0.041 A 
ATOM     28  C   UNL     1      -5.616  -0.070  -3.714  0.00  0.00    +0.195 A 
ATOM     29  O   UNL     1      -4.362  -0.474  -3.978  0.00  0.00    -0.466 OA
ENDBRANCH  24  25
ENDBRANCH  22  24
ENDBRANCH  19  20
BRANCH  19  31
ATOM     30  C   UNL     1       1.131  -2.446   0.138  0.00  0.00    +0.005 C 
ATOM     31  C   UNL     1       0.606  -2.010  -1.231  0.00  0.00    +0.020 C 
ENDBRANCH  19  31
ENDBRANCH  18  19
ENDBRANCH   1  18
TORSDOF 6
