REMARK  Name = ZINC15783436
REMARK  8 active torsions:
REMARK  status: ('A' for Active; 'I' for Inactive)
REMARK    1  A    between atoms: C_1  and  C_2
REMARK    2  A    between atoms: C_2  and  C_3
REMARK    3  A    between atoms: C_2  and  C_4
REMARK    4  A    between atoms: C_4  and  C_5
REMARK    5  A    between atoms: C_19  and  S_20
REMARK    6  A    between atoms: S_20  and  C_21
REMARK    7  A    between atoms: C_21  and  C_22
REMARK    8  A    between atoms: N_24  and  C_25
REMARK                            x       y       z     vdW  Elec       q    Type
REMARK                         _______ _______ _______ _____ _____    ______ ____
ROOT
ATOM      1  C   UNL     1       4.455   5.808   0.068  0.00  0.00    +0.194 C 
ATOM      2  C   UNL     1       3.772   4.457   0.051  0.00  0.00    +0.251 C 
ATOM      3  O   UNL     1       4.302   3.367   0.032  0.00  0.00    -0.272 OA
ATOM      4  N   UNL     1       2.446   4.723   0.060  0.00  0.00    -0.200 N 
ATOM      5  C   UNL     1       2.230   6.091   0.075  0.00  0.00    +0.139 C 
ATOM      6  N   UNL     1       3.344   6.769   0.075  0.00  0.00    -0.255 NA
ATOM      7  C   UNL     1       0.826   6.555   0.093  0.00  0.00    +0.041 A 
ATOM      8  C   UNL     1       0.509   7.909   0.116  0.00  0.00    +0.013 A 
ATOM      9  C   UNL     1      -0.815   8.297   0.132  0.00  0.00    +0.001 A 
ATOM     10  C   UNL     1      -1.827   7.348   0.127  0.00  0.00    +0.002 A 
ATOM     11  C   UNL     1      -1.532   6.003   0.105  0.00  0.00    +0.028 A 
ATOM     12  C   UNL     1      -0.199   5.586   0.088  0.00  0.00    +0.077 A 
ATOM     13  N   UNL     1       0.129   4.270   0.067  0.00  0.00    -0.225 NA
ATOM     14  C   UNL     1       1.369   3.862   0.051  0.00  0.00    +0.169 C 
ENDROOT
BRANCH   1  15
ATOM     15  C   UNL     1       5.315   5.958   1.325  0.00  0.00    +0.039 C 
BRANCH  15  17
ATOM     16  C   UNL     1       5.108   8.448   1.297  0.00  0.00    +0.007 C 
ATOM     17  C   UNL     1       6.090   7.276   1.258  0.00  0.00    -0.015 C 
ATOM     18  C   UNL     1       7.042   7.368   2.452  0.00  0.00    +0.007 C 
ENDBRANCH  15  17
ENDBRANCH   1  15
BRANCH  14  19
ATOM     19  S   UNL     1       1.681   2.128   0.025  0.00  0.00    -0.080 S 
BRANCH  19  20
ATOM     20  C   UNL     1      -0.017   1.502   0.030  0.00  0.00    +0.173 C 
BRANCH  20  21
ATOM     21  C   UNL     1       0.003  -0.005   0.009  0.00  0.00    +0.228 C 
ATOM     22  O   UNL     1       1.061  -0.597  -0.007  0.00  0.00    -0.275 OA
ATOM     23  N   UNL     1      -1.156  -0.694   0.009  0.00  0.00    -0.283 N 
ATOM     24  H   UNL     1      -2.000  -0.223   0.088  0.00  0.00    +0.155 HD
BRANCH  23  25
ATOM     25  C   UNL     1      -1.140  -2.090  -0.104  0.00  0.00    +0.069 A 
ATOM     26  C   UNL     1      -0.113  -2.823   0.473  0.00  0.00    +0.026 A 
ATOM     27  C   UNL     1      -0.100  -4.200   0.360  0.00  0.00    +0.002 A 
ATOM     28  C   UNL     1      -1.110  -4.849  -0.327  0.00  0.00    +0.003 A 
ATOM     29  C   UNL     1      -2.135  -4.123  -0.903  0.00  0.00    +0.040 A 
ATOM     30  C   UNL     1      -2.157  -2.744  -0.790  0.00  0.00    +0.144 A 
ATOM     31  F   UNL     1      -3.162  -2.035  -1.349  0.00  0.00    -0.204 F 
ENDBRANCH  23  25
ENDBRANCH  20  21
ENDBRANCH  19  20
ENDBRANCH  14  19
TORSDOF 6
