REMARK  Name = ZINC67284761
REMARK  3 active torsions:
REMARK  status: ('A' for Active; 'I' for Inactive)
REMARK    1  A    between atoms: C_6  and  C_7
REMARK    2  A    between atoms: C_19  and  C_22
REMARK    3  A    between atoms: C_19  and  N_25
REMARK                            x       y       z     vdW  Elec       q    Type
REMARK                         _______ _______ _______ _____ _____    ______ ____
ROOT
ATOM      1  C   UNL     1      -6.108  -2.906  -1.417  0.00  0.00    +0.094 A 
ATOM      2  C   UNL     1      -5.066  -3.779  -1.094  0.00  0.00    +0.061 A 
ATOM      3  C   UNL     1      -3.998  -3.013  -0.664  0.00  0.00    +0.107 A 
ATOM      4  C   UNL     1      -2.693  -3.322  -0.212  0.00  0.00    +0.147 A 
ATOM      5  N   UNL     1      -1.880  -2.345   0.139  0.00  0.00    -0.237 NA
ATOM      6  C   UNL     1      -2.267  -1.067   0.075  0.00  0.00    +0.132 A 
ATOM      7  C   UNL     1      -3.499  -0.725  -0.349  0.00  0.00    +0.133 A 
ATOM      8  N   UNL     1      -4.388  -1.698  -0.727  0.00  0.00    -0.234 N 
ATOM      9  N   UNL     1      -5.702  -1.665  -1.203  0.00  0.00    -0.166 NA
ATOM     10  N   UNL     1      -2.273  -4.640  -0.139  0.00  0.00    -0.314 N 
ATOM     11  C   UNL     1      -0.855  -4.985  -0.307  0.00  0.00    +0.106 C 
ATOM     12  C   UNL     1      -0.733  -6.050  -1.401  0.00  0.00    +0.016 C 
ATOM     13  C   UNL     1      -1.631  -7.239  -1.053  0.00  0.00    +0.015 C 
ATOM     14  C   UNL     1      -3.089  -6.777  -0.989  0.00  0.00    +0.016 C 
ATOM     15  C   UNL     1      -3.237  -5.720   0.116  0.00  0.00    +0.106 C 
ENDROOT
BRANCH   1  21
ATOM     16  C   UNL     1      -8.399  -2.332  -2.215  0.00  0.00    +0.011 A 
ATOM     17  C   UNL     1      -9.641  -2.707  -2.686  0.00  0.00    +0.020 A 
ATOM     18  C   UNL     1      -9.940  -4.047  -2.867  0.00  0.00    +0.041 A 
ATOM     19  C   UNL     1      -8.995  -5.016  -2.578  0.00  0.00    +0.020 A 
ATOM     20  C   UNL     1      -7.750  -4.651  -2.107  0.00  0.00    +0.011 A 
ATOM     21  C   UNL     1      -7.445  -3.304  -1.923  0.00  0.00    +0.002 A 
ATOM     22 CL   UNL     1     -11.504  -4.512  -3.458  0.00  0.00    -0.084 Cl
ENDBRANCH   1  21
BRANCH  13  23
ATOM     23  N   UNL     1      -1.491  -8.276  -2.084  0.00  0.00    +0.389 N 
ATOM     24  C   UNL     1      -0.104  -8.754  -2.110  0.00  0.00    -0.077 C 
ATOM     25  C   UNL     1       0.067  -9.776  -3.236  0.00  0.00    -0.019 C 
ATOM     26  C   UNL     1      -0.877 -10.957  -2.993  0.00  0.00    -0.004 C 
ATOM     27  C   UNL     1      -2.314 -10.438  -2.893  0.00  0.00    -0.019 C 
ATOM     28  C   UNL     1      -2.396  -9.391  -1.780  0.00  0.00    -0.077 C 
ATOM     29  H   UNL     1      -1.728  -7.888  -2.985  0.00  0.00    -0.080 HD
ENDBRANCH  13  23
BRANCH  13  30
ATOM     30  C   UNL     1      -1.224  -7.802   0.284  0.00  0.00    +0.200 C 
ATOM     31  O   UNL     1      -0.153  -7.500   0.768  0.00  0.00    -0.278 OA
ATOM     32  N   UNL     1      -2.048  -8.640   0.941  0.00  0.00    -0.330 N 
ATOM     33  H   UNL     1      -2.934  -8.824   0.590  0.00  0.00    +0.145 HD
ATOM     34  H   UNL     1      -1.757  -9.060   1.766  0.00  0.00    +0.145 HD
ENDBRANCH  13  30
TORSDOF 3
