REMARK  Name = ZINC04593911
REMARK  9 active torsions:
REMARK  status: ('A' for Active; 'I' for Inactive)
REMARK    1  A    between atoms: C_1  and  C_2
REMARK    2  A    between atoms: C_6  and  C_31
REMARK    3  A    between atoms: C_7  and  N_8
REMARK    4  A    between atoms: C_9  and  C_13
REMARK    5  A    between atoms: C_13  and  N_60
REMARK    6  A    between atoms: C_18  and  C_19
REMARK    7  A    between atoms: C_18  and  N_60
REMARK    8  A    between atoms: C_19  and  C_20
REMARK    9  A    between atoms: C_21  and  C_30
REMARK                            x       y       z     vdW  Elec       q    Type
REMARK                         _______ _______ _______ _____ _____    ______ ____
ROOT
ATOM      1  C   UNL     1       1.979   2.296  -1.902  0.00  0.00    -0.005 C 
ATOM      2  C   UNL     1       1.217   2.113  -3.231  0.00  0.00    -0.005 C 
ATOM      3  C   UNL     1       2.320   2.200  -4.315  0.00  0.00    -0.001 C 
ATOM      4  C   UNL     1       3.510   1.463  -3.652  0.00  0.00    -0.001 C 
ATOM      5  C   UNL     1       3.437   1.882  -2.170  0.00  0.00    -0.005 C 
ENDROOT
BRANCH   1   7
ATOM      6  N   UNL     1       2.028   0.884   0.223  0.00  0.00    -0.198 N 
ATOM      7  C   UNL     1       1.379   1.413  -0.837  0.00  0.00    +0.146 A 
ATOM      8  N   UNL     1       0.135   1.018  -0.768  0.00  0.00    -0.114 NA
ATOM      9  N   UNL     1      -0.047   0.275   0.263  0.00  0.00    -0.023 NA
ATOM     10  N   UNL     1       1.055   0.145   0.919  0.00  0.00    -0.039 NA
BRANCH   6  17
ATOM     11  C   UNL     1       3.868  -1.125  -0.601  0.00  0.00    +0.046 C 
ATOM     12  C   UNL     1       4.310   0.087   0.178  0.00  0.00    -0.025 A 
ATOM     13  C   UNL     1       5.641   0.250   0.508  0.00  0.00    +0.005 A 
ATOM     14  C   UNL     1       6.046   1.359   1.228  0.00  0.00    +0.001 A 
ATOM     15  C   UNL     1       5.121   2.310   1.615  0.00  0.00    +0.005 A 
ATOM     16  C   UNL     1       3.789   2.156   1.284  0.00  0.00    -0.025 A 
ATOM     17  C   UNL     1       3.380   1.044   0.561  0.00  0.00    +0.075 A 
ATOM     18  C   UNL     1       2.782   3.194   1.707  0.00  0.00    +0.046 C 
ENDBRANCH   6  17
ENDBRANCH   1   7
BRANCH   1  19
ATOM     19  N   UNL     1       1.933   3.708  -1.478  0.00  0.00    +0.388 N 
ATOM     20  H   UNL     1       2.288   4.301  -2.237  0.00  0.00    -0.084 HD
ATOM     21  H   UNL     1       2.520   3.831  -0.645  0.00  0.00    -0.084 HD
BRANCH  19  22
ATOM     22  C   UNL     1       0.547   4.102  -1.160  0.00  0.00    -0.076 C 
BRANCH  22  23
ATOM     23  C   UNL     1       0.543   5.540  -0.635  0.00  0.00    +0.018 C 
BRANCH  23  24
ATOM     24  C   UNL     1      -0.850   5.910  -0.196  0.00  0.00    -0.021 A 
ATOM     25  C   UNL     1      -1.831   6.394  -0.974  0.00  0.00    +0.017 A 
ATOM     26  N   UNL     1      -2.957   6.609  -0.227  0.00  0.00    -0.358 N 
ATOM     27  H   UNL     1      -3.796   6.953  -0.570  0.00  0.00    +0.166 HD
ATOM     28  C   UNL     1      -2.719   6.268   1.086  0.00  0.00    +0.047 A 
ATOM     29  C   UNL     1      -1.389   5.815   1.163  0.00  0.00    +0.003 A 
ATOM     30  C   UNL     1      -0.865   5.398   2.388  0.00  0.00    +0.010 A 
ATOM     31  C   UNL     1      -1.648   5.433   3.508  0.00  0.00    +0.001 A 
ATOM     32  C   UNL     1      -2.960   5.879   3.437  0.00  0.00    +0.002 A 
ATOM     33  C   UNL     1      -3.497   6.295   2.238  0.00  0.00    +0.026 A 
ATOM     34  C   UNL     1      -1.711   6.657  -2.453  0.00  0.00    +0.063 C 
ENDBRANCH  23  24
ENDBRANCH  22  23
ENDBRANCH  19  22
ENDBRANCH   1  19
TORSDOF 6
