REMARK  Name = ZINC10933131
REMARK  9 active torsions:
REMARK  status: ('A' for Active; 'I' for Inactive)
REMARK    1  A    between atoms: C_1  and  C_2
REMARK    2  A    between atoms: C_2  and  N_3
REMARK    3  A    between atoms: C_7  and  C_9
REMARK    4  A    between atoms: C_9  and  C_11
REMARK    5  A    between atoms: C_9  and  O_12
REMARK    6  A    between atoms: O_12  and  C_13
REMARK    7  A    between atoms: C_13  and  C_15
REMARK    8  A    between atoms: C_19  and  N_20
REMARK    9  A    between atoms: C_21  and  C_23
REMARK                            x       y       z     vdW  Elec       q    Type
REMARK                         _______ _______ _______ _____ _____    ______ ____
ROOT
ATOM      1  C   UNL     1      -2.502   1.116   0.014  0.00  0.00    +0.091 A 
ATOM      2  C   UNL     1      -3.621   2.058   0.029  0.00  0.00    -0.021 A 
ATOM      3  C   UNL     1      -3.274   3.357   0.035  0.00  0.00    -0.004 A 
ATOM      4  S   UNL     1      -1.498   3.351   0.027  0.00  0.00    -0.077 S 
ATOM      5  C   UNL     1      -1.221   1.643   0.017  0.00  0.00    +0.086 A 
ATOM      6  C   UNL     1      -4.476   4.262   0.048  0.00  0.00    +0.043 C 
ATOM      7  C   UNL     1      -5.644   3.352   0.487  0.00  0.00    +0.010 C 
ATOM      8  C   UNL     1      -5.147   1.964   0.034  0.00  0.00    +0.037 C 
ENDROOT
BRANCH   5   9
ATOM      9  N   UNL     1      -0.011   0.966   0.007  0.00  0.00    -0.279 N 
ATOM     10  C   UNL     1       1.147   1.655   0.000  0.00  0.00    +0.221 C 
ATOM     11  O   UNL     1       1.130   2.868   0.007  0.00  0.00    -0.275 OA
ATOM     12  H   UNL     1       0.002  -0.004   0.002  0.00  0.00    +0.155 HD
BRANCH  10  13
ATOM     13  C   UNL     1       2.462   0.920  -0.017  0.00  0.00    +0.075 C 
ATOM     14  C   UNL     1       2.567   0.035   1.227  0.00  0.00    +0.013 C 
ATOM     15  C   UNL     1       3.902  -0.712   1.210  0.00  0.00    +0.001 C 
ATOM     16  C   UNL     1       5.051   0.298   1.205  0.00  0.00    +0.000 C 
ATOM     17  C   UNL     1       4.946   1.183  -0.039  0.00  0.00    +0.001 C 
ATOM     18  C   UNL     1       3.611   1.930  -0.022  0.00  0.00    +0.013 C 
ENDBRANCH  10  13
ENDBRANCH   5   9
BRANCH   1  19
ATOM     19  C   UNL     1      -2.728  -0.331   0.001  0.00  0.00    +0.343 C 
ATOM     20  O   UNL     1      -2.820  -0.942   1.049  0.00  0.00    -0.245 OA
BRANCH  19  21
ATOM     21  O   UNL     1      -2.834  -0.986  -1.173  0.00  0.00    -0.449 OA
BRANCH  21  22
ATOM     22  C   UNL     1      -3.057  -2.420  -1.111  0.00  0.00    +0.259 C 
ATOM     23  C   UNL     1      -1.711  -3.146  -1.093  0.00  0.00    +0.062 C 
BRANCH  22  28
ATOM     24  N   UNL     1      -5.385  -5.806  -3.606  0.00  0.00    -0.299 N 
ATOM     25  C   UNL     1      -4.971  -4.528  -3.500  0.00  0.00    +0.306 C 
ATOM     26  O   UNL     1      -5.235  -3.729  -4.377  0.00  0.00    -0.252 OA
ATOM     27  N   UNL     1      -4.263  -4.136  -2.422  0.00  0.00    -0.237 N 
ATOM     28  C   UNL     1      -3.849  -2.858  -2.316  0.00  0.00    +0.261 C 
ATOM     29  O   UNL     1      -4.112  -2.061  -3.191  0.00  0.00    -0.271 OA
ATOM     30  H   UNL     1      -5.174  -6.444  -2.906  0.00  0.00    +0.150 HD
ATOM     31  H   UNL     1      -4.052  -4.774  -1.722  0.00  0.00    +0.159 HD
BRANCH  24  33
ATOM     32  C   UNL     1      -6.497  -7.718  -4.650  0.00  0.00    +0.024 C 
ATOM     33  C   UNL     1      -6.154  -6.232  -4.778  0.00  0.00    +0.102 C 
ENDBRANCH  24  33
ENDBRANCH  22  28
ENDBRANCH  21  22
ENDBRANCH  19  21
ENDBRANCH   1  19
TORSDOF 7
