REMARK  Name = ZINC08852420
REMARK  6 active torsions:
REMARK  status: ('A' for Active; 'I' for Inactive)
REMARK    1  A    between atoms: C_10  and  C_12
REMARK    2  A    between atoms: C_12  and  C_13
REMARK    3  A    between atoms: C_16  and  S_18
REMARK    4  A    between atoms: S_18  and  C_19
REMARK    5  A    between atoms: C_19  and  C_20
REMARK    6  A    between atoms: N_22  and  C_23
REMARK                            x       y       z     vdW  Elec       q    Type
REMARK                         _______ _______ _______ _____ _____    ______ ____
ROOT
ATOM      1  C   UNL     1       2.449  -2.411  -0.022  0.00  0.00    +0.058 A 
ATOM      2  C   UNL     1       2.160  -3.326   0.934  0.00  0.00    +0.071 A 
ATOM      3  S   UNL     1       3.189  -4.690   0.410  0.00  0.00    -0.069 S 
ATOM      4  C   UNL     1       3.882  -3.928  -0.988  0.00  0.00    +0.135 A 
ATOM      5  N   UNL     1       3.307  -2.740  -0.970  0.00  0.00    -0.237 NA
ENDROOT
BRANCH   1   6
ATOM      6  C   UNL     1       1.802  -1.050  -0.006  0.00  0.00    +0.152 C 
BRANCH   6  16
ATOM      7  C   UNL     1      -1.223   3.139   0.058  0.00  0.00    +0.000 A 
ATOM      8  C   UNL     1      -1.196   1.756   0.046  0.00  0.00    +0.002 A 
ATOM      9  C   UNL     1       0.008   1.085   0.030  0.00  0.00    +0.024 A 
ATOM     10  C   UNL     1       1.210   1.796   0.012  0.00  0.00    +0.039 A 
ATOM     11  C   UNL     1       1.172   3.181   0.017  0.00  0.00    -0.024 A 
ATOM     12  C   UNL     1      -0.037   3.849   0.040  0.00  0.00    +0.005 A 
ATOM     13  C   UNL     1       2.592   3.701  -0.005  0.00  0.00    +0.056 C 
ATOM     14  C   UNL     1       3.467   2.437  -0.023  0.00  0.00    +0.118 C 
ATOM     15  N   UNL     1       2.523   1.316  -0.011  0.00  0.00    -0.271 N 
ATOM     16  C   UNL     1       2.869   0.014  -0.021  0.00  0.00    +0.226 C 
ATOM     17  O   UNL     1       4.040  -0.302  -0.042  0.00  0.00    -0.275 OA
ENDBRANCH   6  16
ENDBRANCH   1   6
BRANCH   4  18
ATOM     18  S   UNL     1       5.047  -4.577  -2.139  0.00  0.00    -0.089 S 
BRANCH  18  19
ATOM     19  C   UNL     1       5.293  -6.228  -1.440  0.00  0.00    +0.172 C 
BRANCH  19  20
ATOM     20  C   UNL     1       6.282  -6.989  -2.286  0.00  0.00    +0.227 C 
ATOM     21  O   UNL     1       6.771  -6.466  -3.265  0.00  0.00    -0.275 OA
ATOM     22  N   UNL     1       6.622  -8.251  -1.954  0.00  0.00    -0.285 N 
ATOM     23  H   UNL     1       6.282  -8.645  -1.136  0.00  0.00    +0.155 HD
BRANCH  22  24
ATOM     24  C   UNL     1       7.464  -8.991  -2.792  0.00  0.00    +0.033 A 
ATOM     25  C   UNL     1       7.280 -10.361  -2.927  0.00  0.00    +0.025 A 
ATOM     26  C   UNL     1       8.110 -11.089  -3.757  0.00  0.00    +0.022 A 
ATOM     27  C   UNL     1       9.130 -10.456  -4.446  0.00  0.00    +0.041 A 
ATOM     28  C   UNL     1       9.318  -9.092  -4.309  0.00  0.00    +0.022 A 
ATOM     29  C   UNL     1       8.488  -8.359  -3.483  0.00  0.00    +0.025 A 
ATOM     30 CL   UNL     1      10.175 -11.375  -5.484  0.00  0.00    -0.084 Cl
ENDBRANCH  22  24
ENDBRANCH  19  20
ENDBRANCH  18  19
ENDBRANCH   4  18
TORSDOF 6
