REMARK  Name = ZINC43461002
REMARK  3 active torsions:
REMARK  status: ('A' for Active; 'I' for Inactive)
REMARK    1  A    between atoms: C_1  and  C_2
REMARK    2  A    between atoms: C_5  and  C_9
REMARK    3  A    between atoms: C_7  and  O_8
REMARK                            x       y       z     vdW  Elec       q    Type
REMARK                         _______ _______ _______ _____ _____    ______ ____
ROOT
ATOM      1  C   UNL     1       0.059  -4.255  -0.027  0.00  0.00    +0.141 A 
ATOM      2  N   UNL     1       0.069  -5.019   1.039  0.00  0.00    -0.208 NA
ATOM      3  H   UNL     1       0.056  -4.719  -2.070  0.00  0.00    +0.167 HD
ATOM      4  C   UNL     1       0.086  -6.317   0.672  0.00  0.00    +0.178 A 
ATOM      5  C   UNL     1       0.087  -6.348  -0.735  0.00  0.00    +0.087 A 
ATOM      6  N   UNL     1       0.064  -5.033  -1.153  0.00  0.00    -0.337 N 
ATOM      7  C   UNL     1       0.104  -7.572  -1.391  0.00  0.00    +0.046 A 
ATOM      8  C   UNL     1       0.118  -8.726  -0.624  0.00  0.00    +0.038 A 
ATOM      9  C   UNL     1       0.117  -8.625   0.759  0.00  0.00    +0.128 A 
ATOM     10  N   UNL     1       0.101  -7.457   1.362  0.00  0.00    -0.233 NA
ATOM     11 BR   UNL     1       0.141 -10.423  -1.457  0.00  0.00    -0.049 Br
ENDROOT
BRANCH   1  16
ATOM     12  C   UNL     1      -0.018   1.503   0.010  0.00  0.00    +0.047 C 
ATOM     13  C   UNL     1       0.002  -0.004   0.002  0.00  0.00    -0.009 A 
ATOM     14  C   UNL     1       0.006  -0.686  -1.201  0.00  0.00    +0.007 A 
ATOM     15  C   UNL     1       0.024  -2.066  -1.216  0.00  0.00    +0.012 A 
ATOM     16  C   UNL     1       0.040  -2.776  -0.015  0.00  0.00    +0.021 A 
ATOM     17  C   UNL     1       0.036  -2.087   1.198  0.00  0.00    +0.057 A 
ATOM     18  C   UNL     1       0.023  -0.702   1.202  0.00  0.00    +0.120 A 
BRANCH  18  19
ATOM     19  O   UNL     1       0.025  -0.026   2.381  0.00  0.00    -0.506 OA
ATOM     20  H   UNL     1      -0.857   0.158   2.731  0.00  0.00    +0.292 HD
ENDBRANCH  18  19
ENDBRANCH   1  16
TORSDOF 2
