REMARK  Name = ZINC11336667
REMARK  10 active torsions:
REMARK  status: ('A' for Active; 'I' for Inactive)
REMARK    1  A    between atoms: C_1  and  C_2
REMARK    2  A    between atoms: C_5  and  C_17
REMARK    3  A    between atoms: C_7  and  S_8
REMARK    4  A    between atoms: S_8  and  N_11
REMARK    5  A    between atoms: C_17  and  O_19
REMARK    6  A    between atoms: O_19  and  C_20
REMARK    7  A    between atoms: C_20  and  C_22
REMARK    8  A    between atoms: C_20  and  C_23
REMARK    9  A    between atoms: N_25  and  C_26
REMARK   10  A    between atoms: C_32  and  C_34
REMARK                            x       y       z     vdW  Elec       q    Type
REMARK                         _______ _______ _______ _____ _____    ______ ____
ROOT
ATOM      1  C   UNL     1      -0.425   1.490   0.078  0.00  0.00    +0.046 C 
ATOM      2  C   UNL     1      -0.201   0.000   0.029  0.00  0.00    -0.024 A 
ATOM      3  C   UNL     1      -0.310  -0.674  -1.175  0.00  0.00    +0.006 A 
ATOM      4  C   UNL     1      -0.106  -2.037  -1.227  0.00  0.00    +0.015 A 
ATOM      5  C   UNL     1       0.211  -2.737  -0.061  0.00  0.00    +0.061 A 
ATOM      6  C   UNL     1       0.320  -2.050   1.150  0.00  0.00    +0.043 A 
ATOM      7  C   UNL     1       0.119  -0.686   1.187  0.00  0.00    +0.109 A 
ENDROOT
BRANCH   7   8
ATOM      8  S   UNL     1       0.263   0.183   2.713  0.00  0.00    +0.061 S 
ATOM      9  O   UNL     1      -0.844   1.071   2.780  0.00  0.00    -0.153 OA
ATOM     10  O   UNL     1       0.520  -0.793   3.713  0.00  0.00    -0.153 OA
BRANCH   8  11
ATOM     11  N   UNL     1       1.621   1.126   2.613  0.00  0.00    -0.177 NA
ATOM     12  C   UNL     1       2.942   0.574   2.942  0.00  0.00    +0.109 C 
ATOM     13  C   UNL     1       3.889   0.827   1.765  0.00  0.00    +0.017 C 
ATOM     14  C   UNL     1       3.897   2.321   1.433  0.00  0.00    +0.003 C 
ATOM     15  C   UNL     1       2.490   2.762   1.024  0.00  0.00    +0.017 C 
ATOM     16  C   UNL     1       1.527   2.529   2.187  0.00  0.00    +0.109 C 
ENDBRANCH   8  11
ENDBRANCH   7   8
BRANCH   5  17
ATOM     17  C   UNL     1       0.431  -4.197  -0.108  0.00  0.00    +0.340 C 
ATOM     18  O   UNL     1       0.707  -4.803   0.907  0.00  0.00    -0.245 OA
BRANCH  17  19
ATOM     19  O   UNL     1       0.324  -4.856  -1.278  0.00  0.00    -0.449 OA
BRANCH  19  20
ATOM     20  C   UNL     1       0.549  -6.267  -1.251  0.00  0.00    +0.259 C 
ATOM     21  C   UNL     1       2.033  -6.551  -1.492  0.00  0.00    +0.062 C 
BRANCH  20  22
ATOM     22  C   UNL     1      -0.271  -6.927  -2.329  0.00  0.00    +0.254 C 
ATOM     23  O   UNL     1      -0.907  -6.250  -3.108  0.00  0.00    -0.272 OA
ATOM     24  N   UNL     1      -0.296  -8.271  -2.428  0.00  0.00    -0.309 N 
ATOM     25  H   UNL     1       0.213  -8.813  -1.805  0.00  0.00    +0.149 HD
BRANCH  24  26
ATOM     26  C   UNL     1      -1.093  -8.914  -3.476  0.00  0.00    +0.076 C 
ATOM     27  C   UNL     1      -2.538  -9.068  -2.996  0.00  0.00    +0.022 C 
ATOM     28  C   UNL     1      -2.567  -9.930  -1.733  0.00  0.00    +0.002 C 
ATOM     29  C   UNL     1      -1.983 -11.310  -2.045  0.00  0.00    +0.000 C 
ATOM     30  C   UNL     1      -0.538 -11.156  -2.525  0.00  0.00    +0.005 C 
ATOM     31  C   UNL     1      -0.510 -10.293  -3.788  0.00  0.00    +0.006 C 
ATOM     32  C   UNL     1       0.935 -10.139  -4.268  0.00  0.00    +0.009 C 
ENDBRANCH  24  26
ENDBRANCH  20  22
ENDBRANCH  19  20
ENDBRANCH  17  19
ENDBRANCH   5  17
TORSDOF 7
