REMARK  Name = ZINC31165228
REMARK  13 active torsions:
REMARK  status: ('A' for Active; 'I' for Inactive)
REMARK    1  A    between atoms: CD1_1  and  CG1_2
REMARK    2  A    between atoms: CG1_2  and  CB_3
REMARK    3  A    between atoms: CB_3  and  CG2_5
REMARK    4  A    between atoms: CB_3  and  CA_6
REMARK    5  A    between atoms: N_10  and  C_44
REMARK    6  A    between atoms: CA_11  and  CB_37
REMARK    7  A    between atoms: CA_16  and  CB_34
REMARK    8  A    between atoms: N_20  and  C_33
REMARK    9  A    between atoms: CA_21  and  CB_26
REMARK   10  A    between atoms: CB_26  and  CG_27
REMARK   11  A    between atoms: CB_34  and  CG1_35
REMARK   12  A    between atoms: CB_34  and  CG2_36
REMARK   13  A    between atoms: CB_37  and  CG_38
REMARK                            x       y       z     vdW  Elec       q    Type
REMARK                         _______ _______ _______ _____ _____    ______ ____
ROOT
ATOM      1  CA  ILE A   4      -2.367   3.209   2.496  0.00  0.00    +0.162 C 
ATOM      2  C   ILE A   4      -1.701   3.545   1.185  0.00  0.00    +0.237 C 
ATOM      3  O   ILE A   4      -0.771   4.337   1.174  0.00  0.00    -0.274 OA
ATOM      4  N   PHE A   1      -2.128   2.984   0.013  0.00  0.00    -0.291 N 
ATOM      5  CA  PHE A   1      -1.098   3.054  -1.067  0.00  0.00    +0.166 C 
ATOM      6  C   PHE A   1       0.128   2.334  -0.541  0.00  0.00    +0.234 C 
ATOM      7  O   PHE A   1       0.094   1.135  -0.376  0.00  0.00    -0.274 OA
ATOM      8  N   VAL A   2       1.233   3.085  -0.265  0.00  0.00    -0.302 N 
ATOM      9  CA  VAL A   2       2.283   2.457   0.581  0.00  0.00    +0.162 C 
ATOM     10  C   VAL A   2       1.669   1.956   1.843  0.00  0.00    +0.237 C 
ATOM     11  O   VAL A   2       1.423   2.818   2.705  0.00  0.00    -0.274 OA
ATOM     12  N   PHE A   3       1.346   0.679   2.186  0.00  0.00    -0.291 N 
ATOM     13  CA  PHE A   3       0.356   0.691   3.330  0.00  0.00    +0.166 C 
ATOM     14  C   PHE A   3      -0.889   1.343   2.791  0.00  0.00    +0.234 C 
ATOM     15  O   PHE A   3      -1.510   0.807   1.895  0.00  0.00    -0.274 OA
ATOM     16  N   ILE A   4      -1.326   2.524   3.312  0.00  0.00    -0.302 N 
ATOM     17  C   ACE A   0       1.803  -0.592   1.624  0.00  0.00    +0.133 C 
ATOM     18  C   ACE A   0      -3.451   2.393  -0.204  0.00  0.00    +0.133 C 
ATOM     19  H   VAL A   2       1.369   4.111  -0.638  0.00  0.00    +0.150 HD
ATOM     20  H   ILE A   4      -0.976   2.978   4.251  0.00  0.00    +0.150 HD
ENDROOT
BRANCH   9  21
ATOM     21  CB  VAL A   2       3.101   1.455  -0.212  0.00  0.00    +0.012 C 
ATOM     22  CG1 VAL A   2       3.682   2.138  -1.452  0.00  0.00    +0.009 C 
ATOM     23  CG2 VAL A   2       4.241   0.924   0.659  0.00  0.00    +0.009 C 
ENDBRANCH   9  21
BRANCH   1  24
ATOM     24  CB  ILE A   4      -2.804   4.495   3.202  0.00  0.00    +0.015 C 
ATOM     25  CG2 ILE A   4      -3.873   5.199   2.364  0.00  0.00    +0.010 C 
BRANCH  24  27
ATOM     26  CD1 ILE A   4      -3.701   5.442   5.333  0.00  0.00    +0.004 C 
ATOM     27  CG1 ILE A   4      -3.380   4.151   4.577  0.00  0.00    +0.002 C 
ENDBRANCH  24  27
ENDBRANCH   1  24
BRANCH  13  28
ATOM     28  CB  PHE A   3       0.059  -0.747   3.755  0.00  0.00    +0.067 C 
BRANCH  28  29
ATOM     29  CG  PHE A   3      -0.813  -0.737   4.984  0.00  0.00    -0.045 A 
ATOM     30  CD2 PHE A   3      -0.239  -0.806   6.240  0.00  0.00    +0.004 A 
ATOM     31  CE2 PHE A   3      -1.040  -0.793   7.367  0.00  0.00    +0.000 A 
ATOM     32  CZ  PHE A   3      -2.414  -0.720   7.238  0.00  0.00    +0.000 A 
ATOM     33  CE1 PHE A   3      -2.988  -0.657   5.982  0.00  0.00    +0.000 A 
ATOM     34  CD1 PHE A   3      -2.188  -0.665   4.855  0.00  0.00    +0.004 A 
ENDBRANCH  28  29
ENDBRANCH  13  28
BRANCH   5  35
ATOM     35  CB  PHE A   1      -1.612   2.349  -2.322  0.00  0.00    +0.067 C 
BRANCH  35  36
ATOM     36  CG  PHE A   1      -0.594   2.481  -3.425  0.00  0.00    -0.045 A 
ATOM     37  CD2 PHE A   1      -0.577   3.613  -4.218  0.00  0.00    +0.004 A 
ATOM     38  CE2 PHE A   1       0.360   3.736  -5.226  0.00  0.00    +0.000 A 
ATOM     39  CZ  PHE A   1       1.273   2.723  -5.449  0.00  0.00    +0.000 A 
ATOM     40  CE1 PHE A   1       1.252   1.588  -4.661  0.00  0.00    +0.000 A 
ATOM     41  CD1 PHE A   1       0.319   1.467  -3.648  0.00  0.00    +0.004 A 
ENDBRANCH  35  36
ENDBRANCH   5  35
TORSDOF 7
