REMARK  Name = ZINC35383238
REMARK  4 active torsions:
REMARK  status: ('A' for Active; 'I' for Inactive)
REMARK    1  A    between atoms: C_1  and  C_2
REMARK    2  A    between atoms: C_2  and  C_3
REMARK    3  A    between atoms: N_9  and  C_10
REMARK    4  A    between atoms: C_15  and  N_16
REMARK                            x       y       z     vdW  Elec       q    Type
REMARK                         _______ _______ _______ _____ _____    ______ ____
ROOT
ATOM      1  C   UNL     1       2.654   0.531  -0.095  0.00  0.00    +0.053 A 
ATOM      2  C   UNL     1       3.136  -0.010   1.084  0.00  0.00    +0.053 A 
ATOM      3  C   UNL     1       3.619   0.833   2.085  0.00  0.00    +0.080 A 
ATOM      4  C   UNL     1       3.611   2.232   1.882  0.00  0.00    +0.067 A 
ATOM      5  C   UNL     1       3.122   2.766   0.688  0.00  0.00    +0.040 A 
ATOM      6  C   UNL     1       2.652   1.919  -0.295  0.00  0.00    +0.047 A 
ATOM      7  C   UNL     1       4.126   3.087   2.958  0.00  0.00    +0.259 A 
ATOM      8  O   UNL     1       4.147   4.300   2.846  0.00  0.00    -0.267 OA
ATOM      9  N   UNL     1       4.578   2.477   4.078  0.00  0.00    -0.313 N 
ATOM     10  H   UNL     1       4.926   3.011   4.809  0.00  0.00    +0.170 HD
ATOM     11  C   UNL     1       4.548   1.123   4.189  0.00  0.00    +0.199 A 
ATOM     12  N   UNL     1       4.099   0.340   3.255  0.00  0.00    -0.237 NA
ENDROOT
BRANCH   1  18
ATOM     13  C   UNL     1       0.757  -0.708  -1.122  0.00  0.00    +0.073 C 
ATOM     14  C   UNL     1       0.671  -2.236  -1.178  0.00  0.00    +0.022 C 
ATOM     15  C   UNL     1       1.490  -2.747  -2.366  0.00  0.00    +0.003 C 
ATOM     16  C   UNL     1       2.957  -2.352  -2.183  0.00  0.00    +0.019 C 
ATOM     17  C   UNL     1       3.069  -0.825  -2.139  0.00  0.00    +0.105 C 
ATOM     18  N   UNL     1       2.172  -0.312  -1.095  0.00  0.00    -0.325 N 
BRANCH  13  20
ATOM     19  C   UNL     1      -1.440  -0.499   0.049  0.00  0.00    +0.006 C 
ATOM     20  C   UNL     1       0.058  -0.200   0.140  0.00  0.00    +0.019 C 
ENDBRANCH  13  20
ENDBRANCH   1  18
BRANCH   6  21
ATOM     21  N   UNL     1       2.167   2.448  -1.497  0.00  0.00    -0.357 N 
ATOM     22  H   UNL     1       1.833   1.855  -2.188  0.00  0.00    +0.142 HD
ATOM     23  H   UNL     1       2.164   3.408  -1.638  0.00  0.00    +0.142 HD
ENDBRANCH   6  21
TORSDOF 3
