REMARK  Name = ZINC34793152
REMARK  5 active torsions:
REMARK  status: ('A' for Active; 'I' for Inactive)
REMARK    1  A    between atoms: C_1  and  C_2
REMARK    2  A    between atoms: C_4  and  C_37
REMARK    3  A    between atoms: N_21  and  C_24
REMARK    4  A    between atoms: C_27  and  N_31
REMARK    5  A    between atoms: C_29  and  C_30
REMARK                            x       y       z     vdW  Elec       q    Type
REMARK                         _______ _______ _______ _____ _____    ______ ____
ROOT
ATOM      1  C   UNL     1      -0.018   1.503   0.010  0.00  0.00    +0.044 C 
ATOM      2  C   UNL     1       0.002  -0.004   0.002  0.00  0.00    -0.050 A 
ATOM      3  C   UNL     1       0.006  -0.691  -1.199  0.00  0.00    +0.008 A 
ATOM      4  C   UNL     1       0.022  -2.070  -1.212  0.00  0.00    -0.029 A 
ATOM      5  C   UNL     1       0.036  -2.782  -0.015  0.00  0.00    +0.042 A 
ATOM      6  C   UNL     1       0.035  -2.081   1.186  0.00  0.00    +0.004 A 
ATOM      7  C   UNL     1       0.023  -0.704   1.196  0.00  0.00    +0.011 A 
ATOM      8  C   UNL     1       0.056  -3.121   2.271  0.00  0.00    +0.138 C 
ATOM      9  C   UNL     1       1.294  -2.973   3.163  0.00  0.00    +0.123 C 
ATOM     10  C   UNL     1       0.799  -3.339   4.589  0.00  0.00    +0.107 C 
ATOM     11  C   UNL     1      -0.697  -3.664   4.424  0.00  0.00    +0.071 C 
ATOM     12  N   UNL     1      -1.112  -2.999   3.159  0.00  0.00    -0.281 NA
ATOM     13  C   UNL     1      -1.304  -1.580   3.543  0.00  0.00    +0.086 C 
ATOM     14  C   UNL     1      -1.918  -1.623   4.957  0.00  0.00    +0.017 C 
ATOM     15  C   UNL     1      -1.492  -2.991   5.558  0.00  0.00    +0.021 C 
ATOM     16  C   UNL     1       1.568  -4.600   4.912  0.00  0.00    +0.232 C 
ATOM     17  O   UNL     1       1.480  -5.228   5.945  0.00  0.00    -0.274 OA
ATOM     18  N   UNL     1       2.359  -4.915   3.880  0.00  0.00    -0.210 N 
ATOM     19  C   UNL     1       2.293  -4.060   2.834  0.00  0.00    +0.233 C 
ATOM     20  O   UNL     1       2.922  -4.145   1.802  0.00  0.00    -0.274 OA
ATOM     21  C   UNL     1       0.061  -4.440   1.545  0.00  0.00    +0.243 C 
ATOM     22  O   UNL     1       0.071  -5.543   2.049  0.00  0.00    -0.273 OA
ATOM     23  N   UNL     1       0.051  -4.157   0.228  0.00  0.00    -0.283 N 
ATOM     24  C   UNL     1       0.026  -2.808  -2.526  0.00  0.00    +0.045 C 
ATOM     25  H   UNL     1       0.055  -4.831  -0.470  0.00  0.00    +0.155 HD
ENDROOT
BRANCH  18  26
ATOM     26  C   UNL     1       3.197  -6.039   3.883  0.00  0.00    +0.047 A 
ATOM     27  C   UNL     1       2.731  -7.255   3.402  0.00  0.00    +0.026 A 
ATOM     28  C   UNL     1       3.559  -8.361   3.406  0.00  0.00    +0.034 A 
ATOM     29  C   UNL     1       4.851  -8.257   3.889  0.00  0.00    +0.127 A 
ATOM     30  C   UNL     1       5.318  -7.047   4.368  0.00  0.00    +0.038 A 
ATOM     31  C   UNL     1       4.496  -5.936   4.361  0.00  0.00    -0.026 A 
ATOM     32  C   UNL     1       5.008  -4.617   4.878  0.00  0.00    +0.046 C 
BRANCH  29  33
ATOM     33  N   UNL     1       5.736  -9.444   3.892  0.00  0.00    +0.056 N 
ATOM     34  O   UNL     1       5.329 -10.502   3.473  0.00  0.00    -0.126 OA
ATOM     35  O   UNL     1       6.866  -9.354   4.313  0.00  0.00    -0.126 OA
ENDBRANCH  29  33
ENDBRANCH  18  26
TORSDOF 2
