REMARK  Name = ZINC57608695
REMARK  13 active torsions:
REMARK  status: ('A' for Active; 'I' for Inactive)
REMARK    1  A    between atoms: C_1  and  C_2
REMARK    2  A    between atoms: C_2  and  N_3
REMARK    3  A    between atoms: N_3  and  C_4
REMARK    4  A    between atoms: N_3  and  C_11
REMARK    5  A    between atoms: C_4  and  C_5
REMARK    6  A    between atoms: C_11  and  C_13
REMARK    7  A    between atoms: C_11  and  C_27
REMARK    8  A    between atoms: C_17  and  C_26
REMARK    9  A    between atoms: C_18  and  C_25
REMARK   10  A    between atoms: N_31  and  C_32
REMARK   11  A    between atoms: C_32  and  C_33
REMARK   12  A    between atoms: C_32  and  C_34
REMARK   13  A    between atoms: C_32  and  C_35
REMARK                            x       y       z     vdW  Elec       q    Type
REMARK                         _______ _______ _______ _____ _____    ______ ____
ROOT
ATOM      1  C   UNL     1      -1.912  -0.363   1.370  0.00  0.00    +0.163 C 
ENDROOT
BRANCH   1   2
ATOM      2  C   UNL     1      -1.988   1.140   1.446  0.00  0.00    +0.042 A 
ATOM      3  C   UNL     1      -3.114   1.736   1.910  0.00  0.00    +0.021 A 
ATOM      4  C   UNL     1      -3.157   3.199   1.972  0.00  0.00    -0.001 A 
ATOM      5  C   UNL     1      -4.290   3.870   2.441  0.00  0.00    +0.013 A 
ATOM      6  C   UNL     1      -4.298   5.236   2.487  0.00  0.00    -0.047 A 
ATOM      7  C   UNL     1      -3.190   5.963   2.071  0.00  0.00    -0.046 A 
ATOM      8  C   UNL     1      -2.063   5.322   1.605  0.00  0.00    +0.030 A 
ATOM      9  C   UNL     1      -2.032   3.932   1.550  0.00  0.00    +0.049 A 
ATOM     10  N   UNL     1      -0.917   3.265   1.089  0.00  0.00    -0.322 N 
ATOM     11  H   UNL     1      -0.142   3.772   0.798  0.00  0.00    +0.169 HD
ATOM     12  C   UNL     1      -0.885   1.922   1.041  0.00  0.00    +0.254 A 
ATOM     13  O   UNL     1       0.119   1.365   0.632  0.00  0.00    -0.268 OA
ATOM     14  C   UNL     1      -3.221   7.468   2.130  0.00  0.00    +0.044 C 
ATOM     15  C   UNL     1      -5.519   5.959   2.992  0.00  0.00    +0.044 C 
ENDBRANCH   1   2
BRANCH   1  16
ATOM     16  C   UNL     1      -0.841  -0.860   2.307  0.00  0.00    +0.174 A 
ATOM     17  N   UNL     1       0.454  -0.711   2.164  0.00  0.00    -0.111 NA
ATOM     18  N   UNL     1       1.032  -1.272   3.170  0.00  0.00    -0.023 NA
ATOM     19  N   UNL     1       0.140  -1.775   3.950  0.00  0.00    -0.043 NA
ATOM     20  N   UNL     1      -1.028  -1.537   3.454  0.00  0.00    -0.222 N 
BRANCH  20  21
ATOM     21  C   UNL     1      -2.315  -1.933   4.031  0.00  0.00    +0.059 C 
ATOM     22  C   UNL     1      -3.023  -2.901   3.082  0.00  0.00    +0.036 C 
ATOM     23  C   UNL     1      -2.080  -2.620   5.378  0.00  0.00    +0.036 C 
ATOM     24  C   UNL     1      -3.185  -0.692   4.237  0.00  0.00    +0.036 C 
ENDBRANCH  20  21
ENDBRANCH   1  16
BRANCH   1  25
ATOM     25  N   UNL     1      -1.587  -0.768  -0.004  0.00  0.00    -0.285 NA
BRANCH  25  27
ATOM     26  C   UNL     1      -0.642  -2.967   0.514  0.00  0.00    +0.020 C 
ATOM     27  C   UNL     1      -1.775  -2.213  -0.186  0.00  0.00    +0.082 C 
ENDBRANCH  25  27
BRANCH  25  28
ATOM     28  C   UNL     1      -2.380  -0.007  -0.979  0.00  0.00    +0.120 C 
BRANCH  28  29
ATOM     29  C   UNL     1      -1.776  -0.164  -2.350  0.00  0.00    -0.033 A 
ATOM     30  C   UNL     1      -0.809   0.723  -2.785  0.00  0.00    +0.005 A 
ATOM     31  C   UNL     1      -0.255   0.579  -4.043  0.00  0.00    +0.000 A 
ATOM     32  C   UNL     1      -0.668  -0.452  -4.867  0.00  0.00    +0.000 A 
ATOM     33  C   UNL     1      -1.635  -1.339  -4.431  0.00  0.00    +0.000 A 
ATOM     34  C   UNL     1      -2.186  -1.198  -3.171  0.00  0.00    +0.005 A 
ENDBRANCH  28  29
ENDBRANCH  25  28
ENDBRANCH   1  25
TORSDOF 7
