REMARK  Name = ZINC21348923
REMARK  6 active torsions:
REMARK  status: ('A' for Active; 'I' for Inactive)
REMARK    1  A    between atoms: C_1  and  C_2
REMARK    2  A    between atoms: C_5  and  N_9
REMARK    3  A    between atoms: C_11  and  C_16
REMARK    4  A    between atoms: N_18  and  C_19
REMARK    5  A    between atoms: C_22  and  S_25
REMARK    6  A    between atoms: S_25  and  N_28
REMARK                            x       y       z     vdW  Elec       q    Type
REMARK                         _______ _______ _______ _____ _____    ______ ____
ROOT
ATOM      1  C   UNL     1       0.051   2.607  -2.304  0.00  0.00    +0.222 C 
ATOM      2  O   UNL     1       1.247   2.809  -2.300  0.00  0.00    -0.275 OA
ATOM      3  N   UNL     1      -0.793   3.564  -2.736  0.00  0.00    -0.285 N 
ATOM      4  H   UNL     1      -1.869   3.352  -2.822  0.00  0.00    +0.155 HD
ENDROOT
BRANCH   1   7
ATOM      5  N   UNL     1       0.808   0.572   0.060  0.00  0.00    -0.271 N 
ATOM      6  C   UNL     1       0.652   0.346  -1.381  0.00  0.00    +0.127 C 
ATOM      7  C   UNL     1      -0.492   1.284  -1.827  0.00  0.00    +0.102 C 
ATOM      8  C   UNL     1      -1.289   1.455  -0.513  0.00  0.00    +0.110 C 
ATOM      9  C   UNL     1      -0.272   1.189   0.576  0.00  0.00    +0.221 C 
ATOM     10  O   UNL     1      -0.410   1.489   1.743  0.00  0.00    -0.275 OA
BRANCH   5  15
ATOM     11  C   UNL     1       5.373  -0.956   3.064  0.00  0.00    +0.045 C 
ATOM     12  C   UNL     1       4.160  -0.550   2.267  0.00  0.00    -0.032 A 
ATOM     13  C   UNL     1       4.109  -0.807   0.909  0.00  0.00    +0.006 A 
ATOM     14  C   UNL     1       2.997  -0.442   0.176  0.00  0.00    +0.024 A 
ATOM     15  C   UNL     1       1.933   0.196   0.802  0.00  0.00    +0.038 A 
ATOM     16  C   UNL     1       1.987   0.454   2.165  0.00  0.00    +0.043 A 
ATOM     17  C   UNL     1       3.100   0.081   2.894  0.00  0.00    +0.046 A 
ATOM     18 CL   UNL     1       3.168   0.403   4.599  0.00  0.00    -0.083 Cl
ENDBRANCH   5  15
ENDBRANCH   1   7
BRANCH   3  19
ATOM     19  C   UNL     1      -0.301   4.830  -3.075  0.00  0.00    +0.034 A 
ATOM     20  C   UNL     1       0.782   5.362  -2.388  0.00  0.00    +0.025 A 
ATOM     21  C   UNL     1       1.269   6.609  -2.728  0.00  0.00    +0.030 A 
ATOM     22  C   UNL     1       0.672   7.332  -3.744  0.00  0.00    +0.106 A 
ATOM     23  C   UNL     1      -0.410   6.807  -4.427  0.00  0.00    +0.030 A 
ATOM     24  C   UNL     1      -0.898   5.559  -4.095  0.00  0.00    +0.025 A 
BRANCH  22  25
ATOM     25  S   UNL     1       1.291   8.925  -4.170  0.00  0.00    +0.061 S 
ATOM     26  O   UNL     1       2.649   8.959  -3.751  0.00  0.00    -0.153 OA
ATOM     27  O   UNL     1       0.904   9.165  -5.516  0.00  0.00    -0.153 OA
BRANCH  25  28
ATOM     28  N   UNL     1       0.481  10.031  -3.241  0.00  0.00    -0.177 NA
ATOM     29  C   UNL     1      -0.768  10.639  -3.720  0.00  0.00    +0.109 C 
ATOM     30  C   UNL     1      -1.853  10.432  -2.652  0.00  0.00    +0.017 C 
ATOM     31  C   UNL     1      -1.357  10.986  -1.315  0.00  0.00    +0.003 C 
ATOM     32  C   UNL     1      -0.102  10.225  -0.880  0.00  0.00    +0.017 C 
ATOM     33  C   UNL     1       1.000  10.426  -1.925  0.00  0.00    +0.109 C 
ENDBRANCH  25  28
ENDBRANCH  22  25
ENDBRANCH   3  19
TORSDOF 5
