REMARK  Name = ZINC03058824
REMARK  13 active torsions:
REMARK  status: ('A' for Active; 'I' for Inactive)
REMARK    1  A    between atoms: C_1  and  C_2
REMARK    2  A    between atoms: C_2  and  C_3
REMARK    3  A    between atoms: C_2  and  C_4
REMARK    4  A    between atoms: C_2  and  N_5
REMARK    5  A    between atoms: N_5  and  C_6
REMARK    6  A    between atoms: N_12  and  C_13
REMARK    7  A    between atoms: C_13  and  C_14
REMARK    8  A    between atoms: C_14  and  N_15
REMARK    9  A    between atoms: N_18  and  C_19
REMARK   10  A    between atoms: N_18  and  C_23
REMARK   11  A    between atoms: C_23  and  C_24
REMARK   12  A    between atoms: C_23  and  C_25
REMARK   13  A    between atoms: C_23  and  C_26
REMARK                            x       y       z     vdW  Elec       q    Type
REMARK                         _______ _______ _______ _____ _____    ______ ____
ROOT
ATOM      1  C   UNL     1      -6.239   4.938  -1.458  0.00  0.00    +0.124 C 
ENDROOT
BRANCH   1   5
ATOM      2  N   UNL     1      -5.788   8.379  -2.652  0.00  0.00    -0.255 N 
ATOM      3  C   UNL     1      -5.509   7.141  -2.199  0.00  0.00    +0.307 C 
ATOM      4  O   UNL     1      -4.381   6.865  -1.839  0.00  0.00    -0.252 OA
ATOM      5  N   UNL     1      -6.480   6.208  -2.146  0.00  0.00    -0.297 N 
ATOM      6  H   UNL     1      -7.340   6.378  -2.563  0.00  0.00    +0.150 HD
BRANCH   2   8
ATOM      7  C   UNL     1      -7.362   9.323  -4.269  0.00  0.00    +0.031 C 
ATOM      8  C   UNL     1      -7.181   8.792  -2.846  0.00  0.00    +0.035 C 
ATOM      9  C   UNL     1      -8.103   7.591  -2.628  0.00  0.00    +0.031 C 
ATOM     10  C   UNL     1      -7.531   9.892  -1.842  0.00  0.00    +0.031 C 
ENDBRANCH   2   8
BRANCH   2  11
ATOM     11  C   UNL     1      -4.751   9.269  -2.936  0.00  0.00    +0.112 C 
ATOM     12  C   UNL     1      -5.020  10.534  -3.205  0.00  0.00    +0.121 C 
ATOM     13 CL   UNL     1      -3.726  11.664  -3.452  0.00  0.00    -0.069 Cl
ATOM     14 CL   UNL     1      -6.669  11.066  -3.311  0.00  0.00    -0.069 Cl
ENDBRANCH   2  11
ENDBRANCH   1   5
BRANCH   1  15
ATOM     15  C   UNL     1      -7.492   4.064  -1.543  0.00  0.00    +0.124 C 
BRANCH  15  16
ATOM     16  N   UNL     1      -7.250   2.794  -0.855  0.00  0.00    -0.297 N 
ATOM     17  C   UNL     1      -8.222   1.861  -0.801  0.00  0.00    +0.307 C 
ATOM     18  O   UNL     1      -9.248   2.015  -1.435  0.00  0.00    -0.252 OA
ATOM     19  N   UNL     1      -8.055   0.758  -0.046  0.00  0.00    -0.255 N 
ATOM     20  H   UNL     1      -6.391   2.624  -0.438  0.00  0.00    +0.150 HD
BRANCH  19  21
ATOM     21  C   UNL     1      -9.002  -0.268  -0.089  0.00  0.00    +0.112 C 
ATOM     22  C   UNL     1      -8.880  -1.314   0.708  0.00  0.00    +0.121 C 
ATOM     23 CL   UNL     1      -7.655  -1.329   1.938  0.00  0.00    -0.069 Cl
ATOM     24 CL   UNL     1      -9.944  -2.673   0.525  0.00  0.00    -0.069 Cl
ENDBRANCH  19  21
BRANCH  19  25
ATOM     25  C   UNL     1      -6.881   0.634   0.822  0.00  0.00    +0.035 C 
ATOM     26  C   UNL     1      -5.962   1.839   0.611  0.00  0.00    +0.031 C 
ATOM     27  C   UNL     1      -7.330   0.585   2.284  0.00  0.00    +0.031 C 
ATOM     28  C   UNL     1      -6.125  -0.650   0.477  0.00  0.00    +0.031 C 
ENDBRANCH  19  25
ENDBRANCH  15  16
ENDBRANCH   1  15
TORSDOF 7
