REMARK  Name = ZINC36283294
REMARK  8 active torsions:
REMARK  status: ('A' for Active; 'I' for Inactive)
REMARK    1  A    between atoms: C_1  and  C_2
REMARK    2  A    between atoms: C_3  and  C_8
REMARK    3  A    between atoms: C_4  and  C_7
REMARK    4  A    between atoms: C_8  and  N_9
REMARK    5  A    between atoms: C_14  and  N_21
REMARK    6  A    between atoms: C_17  and  C_18
REMARK    7  A    between atoms: C_18  and  C_19
REMARK    8  A    between atoms: C_18  and  C_20
REMARK                            x       y       z     vdW  Elec       q    Type
REMARK                         _______ _______ _______ _____ _____    ______ ____
ROOT
ATOM      1  N   UNL     1       1.206   0.177  -2.980  0.00  0.00    -0.323 N 
ATOM      2  C   UNL     1       1.694   1.450  -2.767  0.00  0.00    +0.071 A 
ATOM      3  C   UNL     1       1.160   2.610  -2.218  0.00  0.00    +0.028 A 
ATOM      4  C   UNL     1       1.926   3.753  -2.144  0.00  0.00    +0.004 A 
ATOM      5  C   UNL     1       3.231   3.759  -2.614  0.00  0.00    +0.025 A 
ATOM      6  C   UNL     1       3.782   2.616  -3.164  0.00  0.00    +0.052 A 
ATOM      7  C   UNL     1       3.014   1.444  -3.245  0.00  0.00    +0.110 A 
ATOM      8  N   UNL     1       3.259   0.195  -3.716  0.00  0.00    -0.230 NA
ATOM      9  C   UNL     1       2.204  -0.548  -3.557  0.00  0.00    +0.114 A 
ENDROOT
BRANCH   9  10
ATOM     10  C   UNL     1       2.099  -1.997  -3.955  0.00  0.00    +0.049 C 
ATOM     11  C   UNL     1       2.443  -2.145  -5.439  0.00  0.00    +0.015 C 
ATOM     12  C   UNL     1       3.076  -2.828  -3.120  0.00  0.00    +0.015 C 
ENDBRANCH   9  10
BRANCH   6  13
ATOM     13  N   UNL     1       5.096   2.627  -3.636  0.00  0.00    -0.356 N 
ATOM     14  H   UNL     1       5.625   3.438  -3.579  0.00  0.00    +0.142 HD
ATOM     15  H   UNL     1       5.480   1.824  -4.021  0.00  0.00    +0.142 HD
ENDBRANCH   6  13
BRANCH   1  16
ATOM     16  C   UNL     1      -0.136  -0.306  -2.643  0.00  0.00    +0.164 C 
BRANCH  16  19
ATOM     17  C   UNL     1      -0.882  -2.409  -4.903  0.00  0.00    +0.069 C 
ATOM     18  C   UNL     1      -1.394  -0.995  -4.806  0.00  0.00    +0.086 A 
ATOM     19  C   UNL     1      -1.063  -0.064  -3.805  0.00  0.00    +0.037 A 
ATOM     20  C   UNL     1      -1.721   1.083  -4.066  0.00  0.00    +0.139 A 
ATOM     21  O   UNL     1      -2.443   0.902  -5.183  0.00  0.00    -0.359 OA
ATOM     22  N   UNL     1      -2.216  -0.420  -5.638  0.00  0.00    -0.083 NA
ATOM     23  C   UNL     1      -1.657   2.346  -3.248  0.00  0.00    +0.089 C 
ENDBRANCH  16  19
ENDBRANCH   1  16
TORSDOF 4
