REMARK  Name = ZINC59947909
REMARK  11 active torsions:
REMARK  status: ('A' for Active; 'I' for Inactive)
REMARK    1  A    between atoms: C_1  and  C_2
REMARK    2  A    between atoms: C_3  and  C_14
REMARK    3  A    between atoms: C_4  and  O_13
REMARK    4  A    between atoms: N_5  and  C_7
REMARK    5  A    between atoms: C_14  and  C_15
REMARK    6  A    between atoms: C_14  and  C_26
REMARK    7  A    between atoms: C_17  and  N_23
REMARK    8  A    between atoms: C_20  and  O_21
REMARK    9  A    between atoms: O_21  and  C_22
REMARK   10  A    between atoms: C_27  and  C_38
REMARK   11  A    between atoms: N_29  and  C_32
REMARK                            x       y       z     vdW  Elec       q    Type
REMARK                         _______ _______ _______ _____ _____    ______ ____
ROOT
ATOM      1  C   UNL     1      -0.031  -0.359  -2.444  0.00  0.00    +0.097 C 
ENDROOT
BRANCH   1   2
ATOM      2  C   UNL     1       1.283  -0.685  -3.107  0.00  0.00    +0.051 A 
ATOM      3  C   UNL     1       2.093   0.193  -3.733  0.00  0.00    +0.039 A 
ATOM      4  N   UNL     1       3.183  -0.484  -4.202  0.00  0.00    -0.294 N 
ATOM      5  N   UNL     1       3.043  -1.834  -3.852  0.00  0.00    -0.219 N 
ATOM      6  C   UNL     1       1.884  -1.964  -3.176  0.00  0.00    +0.276 A 
ATOM      7  O   UNL     1       1.434  -2.996  -2.711  0.00  0.00    -0.266 OA
ATOM      8  C   UNL     1       1.838   1.669  -3.890  0.00  0.00    +0.065 C 
ATOM      9  H   UNL     1       3.925  -0.097  -4.692  0.00  0.00    +0.187 HD
BRANCH   5  10
ATOM     10  C   UNL     1       3.947  -2.860  -4.147  0.00  0.00    +0.067 A 
ATOM     11  C   UNL     1       3.677  -4.161  -3.742  0.00  0.00    +0.028 A 
ATOM     12  C   UNL     1       4.571  -5.173  -4.034  0.00  0.00    +0.002 A 
ATOM     13  C   UNL     1       5.734  -4.891  -4.728  0.00  0.00    +0.000 A 
ATOM     14  C   UNL     1       6.005  -3.596  -5.132  0.00  0.00    +0.002 A 
ATOM     15  C   UNL     1       5.112  -2.582  -4.849  0.00  0.00    +0.028 A 
ENDBRANCH   5  10
ENDBRANCH   1   2
BRANCH   1  18
ATOM     16  C   UNL     1       2.473  -0.484  -0.509  0.00  0.00    +0.068 C 
ATOM     17  C   UNL     1       1.077  -0.947  -0.178  0.00  0.00    +0.068 A 
ATOM     18  C   UNL     1      -0.027  -0.891  -1.034  0.00  0.00    +0.049 A 
ATOM     19  C   UNL     1      -1.097  -1.402  -0.369  0.00  0.00    +0.220 A 
ATOM     20  N   UNL     1      -0.672  -1.766   0.870  0.00  0.00    -0.200 N 
ATOM     21  N   UNL     1       0.695  -1.474   0.957  0.00  0.00    -0.168 NA
BRANCH  20  22
ATOM     22  C   UNL     1      -1.460  -2.338   1.879  0.00  0.00    +0.069 A 
ATOM     23  C   UNL     1      -2.790  -1.962   2.019  0.00  0.00    +0.028 A 
ATOM     24  C   UNL     1      -3.564  -2.527   3.014  0.00  0.00    +0.002 A 
ATOM     25  C   UNL     1      -3.016  -3.465   3.870  0.00  0.00    +0.000 A 
ATOM     26  C   UNL     1      -1.693  -3.841   3.732  0.00  0.00    +0.002 A 
ATOM     27  C   UNL     1      -0.915  -3.284   2.736  0.00  0.00    +0.028 A 
ENDBRANCH  20  22
BRANCH  19  28
ATOM     28  O   UNL     1      -2.360  -1.525  -0.853  0.00  0.00    -0.492 OA
ATOM     29  H   UNL     1      -2.556  -2.397  -1.222  0.00  0.00    +0.294 HD
ENDBRANCH  19  28
ENDBRANCH   1  18
BRANCH   1  30
ATOM     30  C   UNL     1      -1.156  -0.996  -3.219  0.00  0.00    +0.009 A 
ATOM     31  C   UNL     1      -1.269  -2.372  -3.268  0.00  0.00    +0.041 A 
ATOM     32  C   UNL     1      -2.301  -2.957  -3.979  0.00  0.00    +0.127 A 
ATOM     33  C   UNL     1      -3.222  -2.167  -4.641  0.00  0.00    +0.036 A 
ATOM     34  C   UNL     1      -3.114  -0.791  -4.594  0.00  0.00    +0.048 A 
ATOM     35  C   UNL     1      -2.082  -0.201  -3.877  0.00  0.00    +0.124 A 
BRANCH  32  36
ATOM     36  N   UNL     1      -2.419  -4.431  -4.031  0.00  0.00    +0.056 N 
ATOM     37  O   UNL     1      -1.613  -5.123  -3.453  0.00  0.00    -0.126 OA
ATOM     38  O   UNL     1      -3.321  -4.944  -4.652  0.00  0.00    -0.126 OA
ENDBRANCH  32  36
BRANCH  35  39
ATOM     39  O   UNL     1      -1.976   1.153  -3.825  0.00  0.00    -0.495 OA
ATOM     40  C   UNL     1      -2.966   1.908  -4.527  0.00  0.00    +0.277 C 
ENDBRANCH  35  39
ENDBRANCH   1  30
TORSDOF 8
