REMARK  Name = ZINC34791499
REMARK  11 active torsions:
REMARK  status: ('A' for Active; 'I' for Inactive)
REMARK    1  A    between atoms: C_1  and  C_2
REMARK    2  A    between atoms: C_2  and  N_3
REMARK    3  A    between atoms: C_6  and  C_11
REMARK    4  A    between atoms: C_16  and  C_17
REMARK    5  A    between atoms: N_23  and  C_25
REMARK    6  A    between atoms: C_25  and  C_27
REMARK    7  A    between atoms: C_25  and  C_31
REMARK    8  A    between atoms: C_27  and  C_28
REMARK    9  A    between atoms: C_28  and  C_29
REMARK   10  A    between atoms: C_28  and  C_30
REMARK   11  A    between atoms: N_37  and  C_40
REMARK                            x       y       z     vdW  Elec       q    Type
REMARK                         _______ _______ _______ _____ _____    ______ ____
ROOT
ATOM      1  N   UNL     1      -1.383  -0.503   0.076  0.00  0.00    -0.257 N 
ATOM      2  C   UNL     1      -2.067  -0.668   1.246  0.00  0.00    +0.042 C 
ATOM      3  C   UNL     1      -3.333  -1.134   1.256  0.00  0.00    +0.058 C 
ATOM      4  C   UNL     1      -3.971  -1.467  -0.078  0.00  0.00    +0.142 C 
ATOM      5  N   UNL     1      -3.150  -1.254  -1.282  0.00  0.00    -0.288 N 
ATOM      6  C   UNL     1      -1.898  -0.777  -1.129  0.00  0.00    +0.307 C 
ATOM      7  O   UNL     1      -1.214  -0.593  -2.117  0.00  0.00    -0.252 OA
ATOM      8  C   UNL     1      -3.816  -1.214   2.578  0.00  0.00    +0.247 C 
ATOM      9  O   UNL     1      -4.930  -1.603   2.881  0.00  0.00    -0.270 OA
ATOM     10  N   UNL     1      -2.886  -0.807   3.461  0.00  0.00    -0.281 N 
ATOM     11  C   UNL     1      -1.693  -0.424   2.691  0.00  0.00    +0.160 C 
ATOM     12  H   UNL     1      -3.502  -1.449  -2.164  0.00  0.00    +0.151 HD
ENDROOT
BRANCH   4  13
ATOM     13  C   UNL     1      -4.381  -2.917  -0.047  0.00  0.00    -0.011 A 
ATOM     14  C   UNL     1      -3.418  -3.909  -0.077  0.00  0.00    +0.006 A 
ATOM     15  C   UNL     1      -3.794  -5.239  -0.049  0.00  0.00    +0.000 A 
ATOM     16  C   UNL     1      -5.134  -5.577   0.010  0.00  0.00    +0.001 A 
ATOM     17  C   UNL     1      -6.096  -4.585   0.041  0.00  0.00    +0.013 A 
ATOM     18  C   UNL     1      -5.720  -3.255   0.017  0.00  0.00    +0.060 A 
BRANCH  18  19
ATOM     19  C   UNL     1      -6.769  -2.174   0.056  0.00  0.00    +0.418 C 
ATOM     20  F   UNL     1      -8.034  -2.757   0.191  0.00  0.00    -0.166 F 
ATOM     21  F   UNL     1      -6.527  -1.328   1.143  0.00  0.00    -0.166 F 
ATOM     22  F   UNL     1      -6.720  -1.434  -1.130  0.00  0.00    -0.166 F 
ENDBRANCH  18  19
ENDBRANCH   4  13
BRANCH   1  24
ATOM     23  C   UNL     1      -0.032   1.536   0.073  0.00  0.00    +0.025 C 
ATOM     24  C   UNL     1      -0.011   0.008   0.143  0.00  0.00    +0.111 C 
ENDBRANCH   1  24
BRANCH  10  25
ATOM     25  C   UNL     1      -3.035  -0.754   4.917  0.00  0.00    +0.163 C 
BRANCH  25  26
ATOM     26  C   UNL     1      -4.173   0.167   5.273  0.00  0.00    +0.236 C 
ATOM     27  O   UNL     1      -4.799   0.725   4.396  0.00  0.00    -0.274 OA
ATOM     28  N   UNL     1      -4.497   0.372   6.565  0.00  0.00    -0.302 N 
ATOM     29  C   UNL     1      -3.714  -0.316   7.612  0.00  0.00    +0.106 C 
ATOM     30  C   UNL     1      -3.427   0.625   8.796  0.00  0.00    +0.000 C 
ATOM     31  C   UNL     1      -3.103   2.007   8.275  0.00  0.00    -0.078 C 
ATOM     32  N   UNL     1      -4.323   2.810   8.243  0.00  0.00    +0.379 N 
ATOM     33  C   UNL     1      -5.076   2.703   7.053  0.00  0.00    -0.060 C 
ATOM     34  C   UNL     1      -5.595   1.263   6.878  0.00  0.00    +0.089 C 
ATOM     35  C   UNL     1      -3.956   4.219   8.435  0.00  0.00    -0.096 C 
ATOM     36  H   UNL     1      -4.909   2.529   9.016  0.00  0.00    -0.082 HD
ENDBRANCH  25  26
BRANCH  25  37
ATOM     37  C   UNL     1      -3.329  -2.157   5.451  0.00  0.00    +0.035 C 
BRANCH  37  38
ATOM     38  C   UNL     1      -2.121  -3.062   5.200  0.00  0.00    -0.015 C 
ATOM     39  C   UNL     1      -0.929  -2.559   6.018  0.00  0.00    +0.007 C 
ATOM     40  C   UNL     1      -2.460  -4.494   5.620  0.00  0.00    +0.007 C 
ENDBRANCH  37  38
ENDBRANCH  25  37
ENDBRANCH  10  25
TORSDOF 7
