REMARK  Name = ZINC36218003
REMARK  9 active torsions:
REMARK  status: ('A' for Active; 'I' for Inactive)
REMARK    1  A    between atoms: C_1  and  C_2
REMARK    2  A    between atoms: C_2  and  C_3
REMARK    3  A    between atoms: C_3  and  N_4
REMARK    4  A    between atoms: C_5  and  C_7
REMARK    5  A    between atoms: C_9  and  C_23
REMARK    6  A    between atoms: N_14  and  C_15
REMARK    7  A    between atoms: C_15  and  C_16
REMARK    8  A    between atoms: C_27  and  N_29
REMARK    9  A    between atoms: C_30  and  C_32
REMARK                            x       y       z     vdW  Elec       q    Type
REMARK                         _______ _______ _______ _____ _____    ______ ____
ROOT
ATOM      1  C   UNL     1       1.167  -4.527  -2.451  0.00  0.00    +0.210 C 
ATOM      2  C   UNL     1      -0.221  -4.883  -3.035  0.00  0.00    +0.238 C 
ATOM      3  O   UNL     1       0.062  -4.976  -4.445  0.00  0.00    -0.440 OA
ATOM      4  C   UNL     1       1.357  -5.301  -4.588  0.00  0.00    +0.405 C 
ATOM      5  O   UNL     1       1.825  -5.769  -5.608  0.00  0.00    -0.226 OA
ATOM      6  N   UNL     1       2.087  -5.053  -3.478  0.00  0.00    -0.248 N 
ENDROOT
BRANCH   2   7
ATOM      7  C   UNL     1      -1.219  -3.788  -2.757  0.00  0.00    -0.003 A 
ATOM      8  C   UNL     1      -1.310  -2.703  -3.611  0.00  0.00    +0.007 A 
ATOM      9  C   UNL     1      -2.224  -1.697  -3.359  0.00  0.00    +0.002 A 
ATOM     10  C   UNL     1      -3.050  -1.772  -2.255  0.00  0.00    +0.023 A 
ATOM     11  C   UNL     1      -2.961  -2.859  -1.396  0.00  0.00    +0.034 A 
ATOM     12  C   UNL     1      -2.045  -3.871  -1.654  0.00  0.00    +0.030 A 
BRANCH  11  13
ATOM     13  N   UNL     1      -3.795  -2.938  -0.276  0.00  0.00    -0.281 N 
ATOM     14  C   UNL     1      -5.045  -2.437  -0.330  0.00  0.00    +0.255 C 
ATOM     15  O   UNL     1      -5.481  -2.002  -1.380  0.00  0.00    -0.269 OA
ATOM     16  H   UNL     1      -3.474  -3.354   0.540  0.00  0.00    +0.155 HD
BRANCH  14  17
ATOM     17  C   UNL     1      -5.878  -2.414   0.875  0.00  0.00    +0.074 A 
ATOM     18  C   UNL     1      -7.177  -1.953   1.031  0.00  0.00    +0.021 A 
ATOM     19  C   UNL     1      -7.701  -2.064   2.297  0.00  0.00    +0.008 A 
ATOM     20  C   UNL     1      -6.939  -2.602   3.281  0.00  0.00    +0.046 A 
ATOM     21  S   UNL     1      -5.490  -2.980   2.520  0.00  0.00    -0.092 S 
ENDBRANCH  14  17
ENDBRANCH  11  13
ENDBRANCH   2   7
BRANCH   1  23
ATOM     22  N   UNL     1       0.820  -2.407  -1.224  0.00  0.00    -0.314 N 
ATOM     23  C   UNL     1       1.321  -3.035  -2.306  0.00  0.00    +0.238 C 
ATOM     24  O   UNL     1       1.897  -2.399  -3.163  0.00  0.00    -0.274 OA
ATOM     25  H   UNL     1       0.359  -2.916  -0.538  0.00  0.00    +0.149 HD
BRANCH  22  26
ATOM     26  C   UNL     1       0.970  -0.957  -1.083  0.00  0.00    +0.104 C 
BRANCH  26  28
ATOM     27  C   UNL     1       0.475   1.014   0.370  0.00  0.00    +0.005 C 
ATOM     28  C   UNL     1       0.318  -0.500   0.223  0.00  0.00    +0.015 C 
ENDBRANCH  26  28
ENDBRANCH  22  26
ENDBRANCH   1  23
BRANCH   6  29
ATOM     29  C   UNL     1       3.528  -5.268  -3.319  0.00  0.00    +0.147 C 
BRANCH  29  30
ATOM     30  C   UNL     1       3.775  -6.663  -2.807  0.00  0.00    -0.030 A 
ATOM     31  C   UNL     1       3.817  -6.903  -1.446  0.00  0.00    +0.008 A 
ATOM     32  C   UNL     1       4.043  -8.182  -0.976  0.00  0.00    +0.038 A 
ATOM     33  C   UNL     1       4.227  -9.225  -1.868  0.00  0.00    +0.123 A 
ATOM     34  C   UNL     1       4.184  -8.984  -3.231  0.00  0.00    +0.038 A 
ATOM     35  C   UNL     1       3.953  -7.704  -3.699  0.00  0.00    +0.008 A 
ATOM     36  F   UNL     1       4.448 -10.476  -1.410  0.00  0.00    -0.205 F 
ENDBRANCH  29  30
ENDBRANCH   6  29
TORSDOF 8
