REMARK  Name = ZINC08589054
REMARK  11 active torsions:
REMARK  status: ('A' for Active; 'I' for Inactive)
REMARK    1  A    between atoms: C_1  and  C_2
REMARK    2  A    between atoms: C_5  and  C_8
REMARK    3  A    between atoms: C_12  and  S_14
REMARK    4  A    between atoms: S_14  and  C_15
REMARK    5  A    between atoms: C_15  and  C_16
REMARK    6  A    between atoms: N_18  and  C_19
REMARK    7  A    between atoms: C_24  and  O_25
REMARK    8  A    between atoms: O_25  and  C_26
REMARK    9  A    between atoms: C_29  and  C_36
REMARK   10  A    between atoms: C_32  and  C_35
REMARK   11  A    between atoms: C_36  and  O_37
REMARK                            x       y       z     vdW  Elec       q    Type
REMARK                         _______ _______ _______ _____ _____    ______ ____
ROOT
ATOM      1  C   UNL     1       0.116  -4.258  -0.022  0.00  0.00    +0.165 A 
ATOM      2  N   UNL     1       0.132  -4.896  -1.183  0.00  0.00    -0.193 NA
ATOM      3  C   UNL     1       0.148  -6.227  -1.230  0.00  0.00    +0.229 A 
ATOM      4  C   UNL     1       0.147  -6.940  -0.042  0.00  0.00    +0.051 A 
ATOM      5  C   UNL     1       0.130  -6.239   1.162  0.00  0.00    +0.108 A 
ATOM      6  N   UNL     1       0.120  -4.908   1.133  0.00  0.00    -0.221 NA
ATOM      7  C   UNL     1       0.163  -8.443  -0.039  0.00  0.00    +0.082 C 
ATOM      8  C   UNL     1       0.580  -8.964  -1.385  0.00  0.00    +0.008 A 
ATOM      9  C   UNL     1       0.993 -10.278  -1.526  0.00  0.00    +0.003 A 
ATOM     10  C   UNL     1       1.371 -10.733  -2.776  0.00  0.00    +0.117 A 
ATOM     11  N   UNL     1       1.341  -9.933  -3.824  0.00  0.00    -0.256 NA
ATOM     12  C   UNL     1       0.954  -8.676  -3.729  0.00  0.00    +0.081 A 
ATOM     13  C   UNL     1       0.560  -8.148  -2.506  0.00  0.00    +0.155 A 
ATOM     14  O   UNL     1       0.165  -6.856  -2.425  0.00  0.00    -0.436 OA
ATOM     15  C   UNL     1       0.940  -7.805  -4.958  0.00  0.00    +0.069 C 
ENDROOT
BRANCH   1  20
ATOM     16  C   UNL     1       0.047   1.501   0.007  0.00  0.00    +0.044 C 
ATOM     17  C   UNL     1       0.065  -0.006  -0.000  0.00  0.00    -0.050 A 
ATOM     18  C   UNL     1       0.077  -0.689  -1.203  0.00  0.00    +0.004 A 
ATOM     19  C   UNL     1       0.094  -2.069  -1.216  0.00  0.00    +0.012 A 
ATOM     20  C   UNL     1       0.098  -2.775  -0.014  0.00  0.00    +0.019 A 
ATOM     21  C   UNL     1       0.086  -2.081   1.195  0.00  0.00    +0.012 A 
ATOM     22  C   UNL     1       0.075  -0.701   1.196  0.00  0.00    +0.004 A 
ENDBRANCH   1  20
BRANCH   5  23
ATOM     23  S   UNL     1       0.129  -7.100   2.699  0.00  0.00    -0.096 S 
BRANCH  23  24
ATOM     24  C   UNL     1       0.104  -5.779   3.942  0.00  0.00    +0.171 C 
BRANCH  24  25
ATOM     25  C   UNL     1       0.101  -6.387   5.321  0.00  0.00    +0.228 C 
ATOM     26  O   UNL     1       0.114  -7.593   5.452  0.00  0.00    -0.275 OA
ATOM     27  N   UNL     1       0.084  -5.591   6.409  0.00  0.00    -0.282 N 
ATOM     28  H   UNL     1       0.138  -4.628   6.306  0.00  0.00    +0.155 HD
BRANCH  27  29
ATOM     29  C   UNL     1      -0.013  -6.154   7.688  0.00  0.00    +0.076 A 
ATOM     30  C   UNL     1       0.594  -7.371   7.960  0.00  0.00    +0.027 A 
ATOM     31  C   UNL     1       0.497  -7.925   9.222  0.00  0.00    +0.002 A 
ATOM     32  C   UNL     1      -0.205  -7.268  10.217  0.00  0.00    +0.004 A 
ATOM     33  C   UNL     1      -0.812  -6.055   9.953  0.00  0.00    +0.047 A 
ATOM     34  C   UNL     1      -0.715  -5.491   8.692  0.00  0.00    +0.141 A 
BRANCH  34  35
ATOM     35  O   UNL     1      -1.308  -4.295   8.433  0.00  0.00    -0.493 OA
ATOM     36  C   UNL     1      -2.011  -3.672   9.510  0.00  0.00    +0.277 C 
ENDBRANCH  34  35
ENDBRANCH  27  29
ENDBRANCH  24  25
ENDBRANCH  23  24
ENDBRANCH   5  23
BRANCH   9  37
ATOM     37  C   UNL     1       1.031 -11.200  -0.334  0.00  0.00    +0.193 C 
BRANCH  37  38
ATOM     38  O   UNL     1       1.490 -12.490  -0.744  0.00  0.00    -0.390 OA
ATOM     39  H   UNL     1       1.539 -13.136  -0.026  0.00  0.00    +0.210 HD
ENDBRANCH  37  38
ENDBRANCH   9  37
TORSDOF 8
