REMARK  Name = ZINC48417422
REMARK  4 active torsions:
REMARK  status: ('A' for Active; 'I' for Inactive)
REMARK    1  A    between atoms: C_1  and  C_2
REMARK    2  A    between atoms: C_4  and  C_8
REMARK    3  A    between atoms: C_5  and  C_7
REMARK    4  A    between atoms: C_14  and  C_16
REMARK                            x       y       z     vdW  Elec       q    Type
REMARK                         _______ _______ _______ _____ _____    ______ ____
ROOT
ATOM      1  C   UNL     1      -1.746  -3.301  -0.009  0.00  0.00    +0.251 C 
ATOM      2  O   UNL     1      -1.430  -4.476  -0.017  0.00  0.00    -0.270 OA
ATOM      3  N   UNL     1      -3.048  -2.953  -0.001  0.00  0.00    -0.259 N 
ATOM      4  C   UNL     1      -4.029  -3.936  -0.001  0.00  0.00    +0.188 A 
ATOM      5  N   UNL     1      -3.911  -5.258  -0.003  0.00  0.00    -0.125 NA
ATOM      6  N   UNL     1      -4.918  -6.017  -0.003  0.00  0.00    -0.136 NA
ATOM      7  C   UNL     1      -6.158  -5.537  -0.001  0.00  0.00    +0.169 A 
ATOM      8  S   UNL     1      -5.812  -3.780   0.008  0.00  0.00    -0.027 S 
ATOM      9  H   UNL     1      -3.300  -2.017   0.006  0.00  0.00    +0.157 HD
ENDROOT
BRANCH   1  13
ATOM     10  C   UNL     1      -0.018   1.503   0.010  0.00  0.00    +0.051 C 
ATOM     11  C   UNL     1       0.002  -0.004   0.002  0.00  0.00    -0.012 A 
ATOM     12  C   UNL     1      -1.042  -0.857   0.002  0.00  0.00    +0.024 A 
ATOM     13  C   UNL     1      -0.706  -2.260  -0.008  0.00  0.00    +0.047 A 
ATOM     14  C   UNL     1       0.634  -2.579  -0.016  0.00  0.00    -0.001 A 
ATOM     15  S   UNL     1       1.411  -1.091  -0.018  0.00  0.00    -0.098 S 
ATOM     16  C   UNL     1       1.259  -3.950  -0.027  0.00  0.00    +0.052 C 
ENDBRANCH   1  13
BRANCH   7  17
ATOM     17  C   UNL     1      -7.447  -6.247  -0.000  0.00  0.00    +0.162 A 
ATOM     18  C   UNL     1      -7.615  -7.599   0.004  0.00  0.00    +0.052 A 
ATOM     19  C   UNL     1      -9.004  -7.834   0.004  0.00  0.00    +0.042 A 
ATOM     20  C   UNL     1      -9.609  -6.630  -0.001  0.00  0.00    +0.196 A 
ATOM     21  O   UNL     1      -8.666  -5.673   0.002  0.00  0.00    -0.461 OA
ENDBRANCH   7  17
TORSDOF 2
