REMARK  Name = ZINC38905489
REMARK  8 active torsions:
REMARK  status: ('A' for Active; 'I' for Inactive)
REMARK    1  A    between atoms: C_6  and  C_7
REMARK    2  A    between atoms: C_7  and  C_8
REMARK    3  A    between atoms: C_8  and  C_9
REMARK    4  A    between atoms: C_9  and  N_10
REMARK    5  A    between atoms: C_11  and  C_13
REMARK    6  A    between atoms: N_18  and  C_20
REMARK    7  A    between atoms: C_20  and  C_21
REMARK    8  A    between atoms: C_23  and  C_26
REMARK                            x       y       z     vdW  Elec       q    Type
REMARK                         _______ _______ _______ _____ _____    ______ ____
ROOT
ATOM      1  C   UNL     1      -5.079  -2.978  -4.456  0.00  0.00    +0.058 C 
ATOM      2  C   UNL     1      -4.010  -3.789  -5.193  0.00  0.00    +0.009 C 
ATOM      3  C   UNL     1      -4.505  -4.104  -6.607  0.00  0.00    -0.018 C 
ATOM      4  C   UNL     1      -5.840  -4.848  -6.520  0.00  0.00    -0.078 C 
ATOM      5  N   UNL     1      -6.827  -4.010  -5.829  0.00  0.00    +0.386 N 
ATOM      6  C   UNL     1      -6.393  -3.762  -4.449  0.00  0.00    -0.065 C 
ATOM      7  H   UNL     1      -6.918  -3.129  -6.314  0.00  0.00    -0.081 HD
ENDROOT
BRANCH   1   9
ATOM      8  N   UNL     1      -3.493  -2.052  -2.799  0.00  0.00    -0.315 N 
ATOM      9  C   UNL     1      -4.634  -2.729  -3.038  0.00  0.00    +0.214 C 
ATOM     10  O   UNL     1      -5.302  -3.137  -2.112  0.00  0.00    -0.276 OA
ATOM     11  H   UNL     1      -2.958  -1.726  -3.540  0.00  0.00    +0.149 HD
BRANCH   8  12
ATOM     12  C   UNL     1      -3.060  -1.810  -1.421  0.00  0.00    +0.104 C 
BRANCH  12  13
ATOM     13  C   UNL     1      -1.745  -1.028  -1.429  0.00  0.00    +0.023 C 
BRANCH  13  14
ATOM     14  C   UNL     1      -1.293  -0.775   0.010  0.00  0.00    +0.036 C 
BRANCH  14  20
ATOM     15  C   UNL     1      -0.017   1.378   0.010  0.00  0.00    +0.006 A 
ATOM     16  C   UNL     1       1.170   2.086   0.002  0.00  0.00    +0.038 A 
ATOM     17  C   UNL     1       2.379   1.410  -0.013  0.00  0.00    +0.123 A 
ATOM     18  C   UNL     1       2.396   0.026  -0.021  0.00  0.00    +0.038 A 
ATOM     19  C   UNL     1       1.208  -0.680  -0.013  0.00  0.00    +0.006 A 
ATOM     20  C   UNL     1       0.002  -0.004   0.002  0.00  0.00    -0.047 A 
ATOM     21  F   UNL     1       3.540   2.101  -0.021  0.00  0.00    -0.205 F 
ENDBRANCH  14  20
ENDBRANCH  13  14
ENDBRANCH  12  13
ENDBRANCH   8  12
ENDBRANCH   1   9
BRANCH   5  22
ATOM     22  C   UNL     1      -8.126  -4.695  -5.817  0.00  0.00    +0.022 C 
BRANCH  22  23
ATOM     23  C   UNL     1      -8.636  -4.831  -7.228  0.00  0.00    +0.211 A 
ATOM     24  N   UNL     1      -8.407  -5.834  -8.027  0.00  0.00    -0.193 NA
ATOM     25  C   UNL     1      -9.013  -5.628  -9.210  0.00  0.00    +0.202 A 
ATOM     26  N   UNL     1      -9.638  -4.477  -9.166  0.00  0.00    -0.056 NA
ATOM     27  O   UNL     1      -9.406  -3.943  -7.871  0.00  0.00    -0.340 OA
BRANCH  25  28
ATOM     28  C   UNL     1      -8.980  -6.551 -10.372  0.00  0.00    +0.023 A 
ATOM     29  C   UNL     1      -8.280  -7.753 -10.290  0.00  0.00    +0.013 A 
ATOM     30  C   UNL     1      -8.251  -8.607 -11.373  0.00  0.00    +0.016 A 
ATOM     31  C   UNL     1      -8.916  -8.272 -12.540  0.00  0.00    +0.018 A 
ATOM     32  C   UNL     1      -9.612  -7.079 -12.627  0.00  0.00    +0.016 A 
ATOM     33  C   UNL     1      -9.652  -6.220 -11.547  0.00  0.00    +0.013 A 
ATOM     34 BR   UNL     1      -8.872  -9.447 -14.021  0.00  0.00    -0.050 Br
ENDBRANCH  25  28
ENDBRANCH  22  23
ENDBRANCH   5  22
TORSDOF 8
