REMARK  Name = ZINC27694520
REMARK  9 active torsions:
REMARK  status: ('A' for Active; 'I' for Inactive)
REMARK    1  A    between atoms: C_8  and  C_28
REMARK    2  A    between atoms: N_9  and  C_10
REMARK    3  A    between atoms: C_10  and  C_11
REMARK    4  A    between atoms: C_11  and  C_13
REMARK    5  A    between atoms: C_11  and  O_27
REMARK    6  A    between atoms: C_13  and  N_14
REMARK    7  A    between atoms: N_14  and  C_15
REMARK    8  A    between atoms: N_14  and  C_21
REMARK    9  A    between atoms: C_28  and  C_29
REMARK                            x       y       z     vdW  Elec       q    Type
REMARK                         _______ _______ _______ _____ _____    ______ ____
ROOT
ATOM      1  C   UNL     1       1.225   2.511  -0.244  0.00  0.00    +0.153 C 
ENDROOT
BRANCH   1  10
ATOM      2  C   UNL     1       1.996   5.410   4.092  0.00  0.00    +0.002 A 
ATOM      3  C   UNL     1       1.207   5.745   3.001  0.00  0.00    +0.002 A 
ATOM      4  C   UNL     1       1.096   4.885   1.929  0.00  0.00    +0.028 A 
ATOM      5  C   UNL     1       1.779   3.676   1.943  0.00  0.00    +0.069 A 
ATOM      6  C   UNL     1       2.575   3.336   3.050  0.00  0.00    +0.089 A 
ATOM      7  C   UNL     1       2.668   4.221   4.128  0.00  0.00    +0.030 A 
ATOM      8  N   UNL     1       3.118   2.120   2.788  0.00  0.00    -0.232 NA
ATOM      9  C   UNL     1       2.713   1.702   1.624  0.00  0.00    +0.115 A 
ATOM     10  N   UNL     1       1.883   2.620   1.060  0.00  0.00    -0.325 N 
BRANCH   9  11
ATOM     11  C   UNL     1       3.107   0.392   0.992  0.00  0.00    +0.109 C 
BRANCH  11  12
ATOM     12  C   UNL     1       4.353   0.587   0.167  0.00  0.00    -0.040 A 
ATOM     13  C   UNL     1       4.252   0.929  -1.168  0.00  0.00    +0.005 A 
ATOM     14  C   UNL     1       5.394   1.113  -1.924  0.00  0.00    +0.020 A 
ATOM     15  C   UNL     1       6.640   0.944  -1.346  0.00  0.00    +0.041 A 
ATOM     16  C   UNL     1       6.741   0.596  -0.011  0.00  0.00    +0.020 A 
ATOM     17  C   UNL     1       5.598   0.417   0.745  0.00  0.00    +0.005 A 
ATOM     18 CL   UNL     1       8.075   1.169  -2.296  0.00  0.00    -0.084 Cl
ENDBRANCH  11  12
ENDBRANCH   9  11
ENDBRANCH   1  10
BRANCH   1  19
ATOM     19  C   UNL     1      -0.136   1.832  -0.074  0.00  0.00    +0.118 C 
BRANCH  19  20
ATOM     20  O   UNL     1      -0.990   2.667   0.711  0.00  0.00    -0.392 OA
ATOM     21  H   UNL     1      -2.015   2.343   0.940  0.00  0.00    +0.210 HD
ENDBRANCH  19  20
BRANCH  19  22
ATOM     22  C   UNL     1      -0.768   1.606  -1.449  0.00  0.00    -0.045 C 
BRANCH  22  23
ATOM     23  N   UNL     1      -2.091   0.989  -1.284  0.00  0.00    +0.385 N 
ATOM     24  H   UNL     1      -2.459   1.242  -0.279  0.00  0.00    -0.081 HD
BRANCH  23  25
ATOM     25  C   UNL     1      -3.047   1.524  -2.263  0.00  0.00    -0.068 C 
ATOM     26  C   UNL     1      -2.531   1.257  -3.678  0.00  0.00    -0.015 C 
ATOM     27  C   UNL     1      -3.527   1.814  -4.697  0.00  0.00    -0.002 C 
ATOM     28  C   UNL     1      -3.682   3.322  -4.487  0.00  0.00    -0.000 C 
ATOM     29  C   UNL     1      -4.198   3.589  -3.072  0.00  0.00    -0.002 C 
ATOM     30  C   UNL     1      -3.202   3.031  -2.052  0.00  0.00    -0.015 C 
ENDBRANCH  23  25
BRANCH  23  31
ATOM     31  C   UNL     1      -2.005  -0.474  -1.378  0.00  0.00    -0.068 C 
ATOM     32  C   UNL     1      -3.415  -1.064  -1.456  0.00  0.00    -0.015 C 
ATOM     33  C   UNL     1      -3.325  -2.588  -1.554  0.00  0.00    -0.002 C 
ATOM     34  C   UNL     1      -2.611  -3.138  -0.317  0.00  0.00    -0.000 C 
ATOM     35  C   UNL     1      -1.201  -2.548  -0.239  0.00  0.00    -0.002 C 
ATOM     36  C   UNL     1      -1.291  -1.024  -0.141  0.00  0.00    -0.015 C 
ENDBRANCH  23  31
ENDBRANCH  22  23
ENDBRANCH  19  22
ENDBRANCH   1  19
TORSDOF 9
