REMARK  Name = ZINC61682680
REMARK  8 active torsions:
REMARK  status: ('A' for Active; 'I' for Inactive)
REMARK    1  A    between atoms: C_1  and  C_2
REMARK    2  A    between atoms: C_5  and  O_23
REMARK    3  A    between atoms: C_8  and  C_22
REMARK    4  A    between atoms: C_11  and  N_13
REMARK    5  A    between atoms: N_13  and  C_14
REMARK    6  A    between atoms: N_17  and  C_19
REMARK    7  A    between atoms: C_19  and  C_20
REMARK    8  A    between atoms: C_19  and  C_21
REMARK                            x       y       z     vdW  Elec       q    Type
REMARK                         _______ _______ _______ _____ _____    ______ ____
ROOT
ATOM      1  C   UNL     1      -0.889   0.775  -0.120  0.00  0.00    +0.044 C 
ATOM      2  C   UNL     1      -0.724  -0.683   0.223  0.00  0.00    -0.046 A 
ATOM      3  C   UNL     1      -1.083  -1.651  -0.696  0.00  0.00    +0.007 A 
ATOM      4  C   UNL     1      -0.933  -2.988  -0.385  0.00  0.00    +0.046 A 
ATOM      5  C   UNL     1      -0.422  -3.357   0.850  0.00  0.00    +0.122 A 
ATOM      6  C   UNL     1      -0.061  -2.383   1.774  0.00  0.00    +0.018 A 
ATOM      7  C   UNL     1      -0.208  -1.047   1.456  0.00  0.00    -0.033 A 
ATOM      8  C   UNL     1       0.257  -0.191   2.615  0.00  0.00    +0.019 C 
ATOM      9  C   UNL     1       0.298  -1.143   3.829  0.00  0.00    +0.035 C 
ATOM     10  C   UNL     1       0.511  -2.518   3.168  0.00  0.00    +0.105 C 
ATOM     11  C   UNL     1      -0.733   0.948   2.864  0.00  0.00    +0.012 C 
ENDROOT
BRANCH  10  12
ATOM     12  N   UNL     1      -0.197  -3.565   3.909  0.00  0.00    -0.334 N 
ATOM     13  H   UNL     1      -0.949  -3.334   4.476  0.00  0.00    +0.147 HD
BRANCH  12  14
ATOM     14  C   UNL     1       0.215  -4.907   3.799  0.00  0.00    +0.066 A 
ATOM     15  C   UNL     1       1.284  -5.382   3.025  0.00  0.00    +0.157 A 
ATOM     16  N   UNL     1       1.358  -6.679   3.177  0.00  0.00    -0.178 NA
ATOM     17  N   UNL     1       0.340  -7.080   4.052  0.00  0.00    -0.267 N 
ATOM     18  C   UNL     1      -0.349  -5.970   4.427  0.00  0.00    +0.131 A 
BRANCH  17  19
ATOM     19  C   UNL     1       0.070  -8.452   4.489  0.00  0.00    +0.101 C 
ATOM     20  C   UNL     1       0.767  -8.708   5.827  0.00  0.00    +0.032 C 
ATOM     21  C   UNL     1      -1.439  -8.646   4.655  0.00  0.00    +0.032 C 
ENDBRANCH  17  19
ENDBRANCH  12  14
ENDBRANCH  10  12
BRANCH   5  22
ATOM     22  O   UNL     1      -0.274  -4.672   1.158  0.00  0.00    -0.506 OA
ATOM     23  H   UNL     1       0.587  -5.039   0.913  0.00  0.00    +0.292 HD
ENDBRANCH   5  22
TORSDOF 4
