REMARK  Name = ZINC00168898
REMARK  5 active torsions:
REMARK  status: ('A' for Active; 'I' for Inactive)
REMARK    1  A    between atoms: C_1  and  C_2
REMARK    2  A    between atoms: C_5  and  N_8
REMARK    3  A    between atoms: C_12  and  C_25
REMARK    4  A    between atoms: C_13  and  N_17
REMARK    5  A    between atoms: C_18  and  C_20
REMARK                            x       y       z     vdW  Elec       q    Type
REMARK                         _______ _______ _______ _____ _____    ______ ____
ROOT
ATOM      1  N   UNL     1      -2.415   1.025  -0.034  0.00  0.00    -0.149 N 
ATOM      2  N   UNL     1      -3.572   1.588  -0.016  0.00  0.00    -0.147 NA
ATOM      3  C   UNL     1      -4.505   0.649  -0.005  0.00  0.00    +0.114 A 
ATOM      4  C   UNL     1      -5.911   0.610   0.014  0.00  0.00    +0.037 A 
ATOM      5  C   UNL     1      -6.548  -0.588   0.019  0.00  0.00    -0.027 A 
ATOM      6  C   UNL     1      -5.841  -1.798   0.006  0.00  0.00    +0.039 A 
ATOM      7  C   UNL     1      -4.476  -1.827  -0.012  0.00  0.00    +0.055 A 
ATOM      8  C   UNL     1      -3.760  -0.619  -0.019  0.00  0.00    +0.115 A 
ATOM      9  N   UNL     1      -2.485  -0.260  -0.041  0.00  0.00    -0.147 NA
ATOM     10  C   UNL     1      -8.055  -0.618   0.039  0.00  0.00    +0.046 C 
ENDROOT
BRANCH   1  15
ATOM     11  C   UNL     1       2.475   3.903  -0.110  0.00  0.00    +0.044 C 
ATOM     12  C   UNL     1       1.177   3.139  -0.086  0.00  0.00    -0.050 A 
ATOM     13  C   UNL     1       1.190   1.756  -0.089  0.00  0.00    +0.005 A 
ATOM     14  C   UNL     1       0.001   1.053  -0.068  0.00  0.00    +0.030 A 
ATOM     15  C   UNL     1      -1.208   1.736  -0.049  0.00  0.00    +0.086 A 
ATOM     16  C   UNL     1      -1.217   3.124  -0.041  0.00  0.00    +0.030 A 
ATOM     17  C   UNL     1      -0.025   3.822  -0.062  0.00  0.00    +0.005 A 
ENDBRANCH   1  15
BRANCH   6  18
ATOM     18  N   UNL     1      -6.550  -3.003   0.013  0.00  0.00    -0.279 N 
ATOM     19  C   UNL     1      -5.973  -4.121   0.496  0.00  0.00    +0.284 C 
ATOM     20  O   UNL     1      -4.876  -4.063   1.020  0.00  0.00    -0.266 OA
ATOM     21  H   UNL     1      -7.456  -3.034  -0.331  0.00  0.00    +0.155 HD
BRANCH  19  22
ATOM     22  C   UNL     1      -6.668  -5.408   0.392  0.00  0.00    +0.189 A 
ATOM     23  C   UNL     1      -6.200  -6.611   0.838  0.00  0.00    +0.054 A 
ATOM     24  C   UNL     1      -7.184  -7.565   0.532  0.00  0.00    +0.042 A 
ATOM     25  C   UNL     1      -8.196  -6.911  -0.079  0.00  0.00    +0.196 A 
ATOM     26  O   UNL     1      -7.884  -5.611  -0.157  0.00  0.00    -0.458 OA
ENDBRANCH  19  22
ENDBRANCH   6  18
TORSDOF 3
