REMARK  Name = ZINC33789873
REMARK  8 active torsions:
REMARK  status: ('A' for Active; 'I' for Inactive)
REMARK    1  A    between atoms: C_4  and  C_7
REMARK    2  A    between atoms: C_10  and  C_36
REMARK    3  A    between atoms: C_11  and  S_13
REMARK    4  A    between atoms: S_13  and  C_14
REMARK    5  A    between atoms: C_14  and  C_15
REMARK    6  A    between atoms: C_22  and  N_35
REMARK    7  A    between atoms: C_23  and  C_33
REMARK    8  A    between atoms: C_24  and  C_26
REMARK                            x       y       z     vdW  Elec       q    Type
REMARK                         _______ _______ _______ _____ _____    ______ ____
ROOT
ATOM      1  C   UNL     1      -1.513   9.387   0.062  0.00  0.00    +0.054 A 
ATOM      2  C   UNL     1      -1.347  10.158   1.147  0.00  0.00    +0.050 A 
ATOM      3  C   UNL     1      -1.087  11.476   0.713  0.00  0.00    +0.245 A 
ATOM      4  N   UNL     1      -1.100  11.482  -0.589  0.00  0.00    -0.135 NA
ATOM      5  N   UNL     1      -1.361  10.174  -1.028  0.00  0.00    -0.277 N 
ATOM      6  H   UNL     1      -1.451   9.742  -2.035  0.00  0.00    +0.189 HD
ATOM      7  O   UNL     1      -0.871  12.495   1.588  0.00  0.00    -0.421 OA
ATOM      8  C   UNL     1      -0.643  12.168   2.876  0.00  0.00    +0.201 C 
ATOM      9  C   UNL     1      -0.866  10.948   3.407  0.00  0.00    +0.098 C 
ATOM     10  C   UNL     1      -1.409   9.790   2.607  0.00  0.00    +0.101 C 
ENDROOT
BRANCH  10  11
ATOM     11  C   UNL     1      -2.837   9.523   3.005  0.00  0.00    -0.034 A 
ATOM     12  C   UNL     1      -3.787  10.520   2.880  0.00  0.00    +0.007 A 
ATOM     13  C   UNL     1      -5.099  10.274   3.239  0.00  0.00    +0.038 A 
ATOM     14  C   UNL     1      -5.459   9.032   3.736  0.00  0.00    +0.123 A 
ATOM     15  C   UNL     1      -4.506   8.037   3.865  0.00  0.00    +0.038 A 
ATOM     16  C   UNL     1      -3.196   8.283   3.500  0.00  0.00    +0.007 A 
ATOM     17  F   UNL     1      -6.740   8.793   4.093  0.00  0.00    -0.205 F 
ENDBRANCH  10  11
BRANCH   8  18
ATOM     18  N   UNL     1      -0.150  13.145   3.705  0.00  0.00    -0.328 N 
ATOM     19  H   UNL     1       0.049  12.919   4.763  0.00  0.00    +0.145 HD
ATOM     20  H   UNL     1       0.045  14.154   3.311  0.00  0.00    +0.145 HD
ENDBRANCH   8  18
BRANCH   9  21
ATOM     21  C   UNL     1      -0.573  10.743   4.793  0.00  0.00    +0.101 C 
ATOM     22  N   UNL     1      -0.341  10.580   5.894  0.00  0.00    -0.191 NA
ENDBRANCH   9  21
BRANCH   1  23
ATOM     23  C   UNL     1      -1.808   7.909   0.058  0.00  0.00    +0.131 C 
BRANCH  23  24
ATOM     24  S   UNL     1      -3.599   7.651   0.074  0.00  0.00    -0.098 S 
BRANCH  24  29
ATOM     25  C   UNL     1      -2.526   3.870   0.045  0.00  0.00    +0.072 A 
ATOM     26  C   UNL     1      -3.721   3.150   0.047  0.00  0.00    +0.030 A 
ATOM     27  C   UNL     1      -4.923   3.829   0.067  0.00  0.00    +0.023 A 
ATOM     28  C   UNL     1      -4.898   5.230   0.074  0.00  0.00    +0.084 A 
ATOM     29  C   UNL     1      -3.655   5.890   0.066  0.00  0.00    +0.115 A 
ATOM     30  N   UNL     1      -2.528   5.197   0.052  0.00  0.00    -0.239 NA
BRANCH  25  34
ATOM     31  C   UNL     1       1.177   1.782   0.000  0.00  0.00    +0.000 A 
ATOM     32  C   UNL     1      -0.013   1.076   0.008  0.00  0.00    +0.001 A 
ATOM     33  C   UNL     1      -1.218   1.748   0.017  0.00  0.00    +0.010 A 
ATOM     34  C   UNL     1      -1.235   3.142   0.029  0.00  0.00    +0.000 A 
ATOM     35  C   UNL     1      -0.033   3.849   0.022  0.00  0.00    +0.010 A 
ATOM     36  C   UNL     1       1.166   3.166   0.007  0.00  0.00    +0.001 A 
ENDBRANCH  25  34
BRANCH  28  37
ATOM     37  C   UNL     1      -6.118   5.979   0.089  0.00  0.00    +0.102 C 
ATOM     38  N   UNL     1      -7.086   6.573   0.101  0.00  0.00    -0.191 NA
ENDBRANCH  28  37
ENDBRANCH  24  29
ENDBRANCH  23  24
ENDBRANCH   1  23
TORSDOF 8
