REMARK  Name = ZINC04119358
REMARK  6 active torsions:
REMARK  status: ('A' for Active; 'I' for Inactive)
REMARK    1  A    between atoms: C_1  and  C_2
REMARK    2  A    between atoms: C_2  and  O_3
REMARK    3  A    between atoms: O_3  and  C_4
REMARK    4  A    between atoms: C_6  and  C_12
REMARK    5  A    between atoms: C_9  and  O_10
REMARK    6  A    between atoms: N_13  and  N_14
REMARK                            x       y       z     vdW  Elec       q    Type
REMARK                         _______ _______ _______ _____ _____    ______ ____
ROOT
ATOM      1  N   UNL     1       2.444  -1.178  -3.289  0.00  0.00    -0.205 N 
ATOM      2  C   UNL     1       1.373  -0.310  -3.368  0.00  0.00    +0.241 A 
ATOM      3  N   UNL     1       0.864   0.012  -4.553  0.00  0.00    -0.180 NA
ATOM      4  C   UNL     1      -0.167   0.848  -4.628  0.00  0.00    +0.224 A 
ATOM      5  N   UNL     1      -0.692   1.357  -3.519  0.00  0.00    -0.181 NA
ATOM      6  C   UNL     1      -0.180   1.039  -2.334  0.00  0.00    +0.224 A 
ATOM      7  N   UNL     1       0.851   0.203  -2.258  0.00  0.00    -0.180 NA
ATOM      8  N   UNL     1      -0.723   1.572  -1.182  0.00  0.00    -0.299 N 
ATOM      9  C   UNL     1      -0.013   1.086   0.008  0.00  0.00    +0.108 C 
ATOM     10  C   UNL     1      -0.729   1.579   1.267  0.00  0.00    +0.019 C 
ATOM     11  C   UNL     1      -0.764   3.110   1.262  0.00  0.00    +0.003 C 
ATOM     12  C   UNL     1      -1.466   3.591  -0.011  0.00  0.00    +0.019 C 
ATOM     13  C   UNL     1      -0.729   3.040  -1.234  0.00  0.00    +0.108 C 
ATOM     14  N   UNL     1      -0.695   1.183  -5.859  0.00  0.00    -0.299 N 
ATOM     15  C   UNL     1      -2.132   0.885  -5.913  0.00  0.00    +0.108 C 
ATOM     16  C   UNL     1      -2.711   1.401  -7.232  0.00  0.00    +0.019 C 
ATOM     17  C   UNL     1      -1.987   0.726  -8.401  0.00  0.00    +0.003 C 
ATOM     18  C   UNL     1      -0.486   1.011  -8.294  0.00  0.00    +0.019 C 
ATOM     19  C   UNL     1       0.029   0.507  -6.944  0.00  0.00    +0.108 C 
ATOM     20  H   UNL     1       2.816  -1.413  -2.424  0.00  0.00    +0.177 HD
ENDROOT
BRANCH   1  22
ATOM     21  C   UNL     1       4.002  -2.535  -4.384  0.00  0.00    +0.138 C 
ATOM     22  N   UNL     1       2.995  -1.720  -4.458  0.00  0.00    -0.188 NA
BRANCH  21  25
ATOM     23  C   UNL     1       6.204  -4.515  -6.694  0.00  0.00    +0.163 A 
ATOM     24  C   UNL     1       5.665  -3.983  -5.537  0.00  0.00    +0.059 A 
ATOM     25  C   UNL     1       4.581  -3.105  -5.614  0.00  0.00    -0.001 A 
ATOM     26  C   UNL     1       4.044  -2.772  -6.861  0.00  0.00    +0.028 A 
ATOM     27  C   UNL     1       4.591  -3.302  -8.011  0.00  0.00    +0.063 A 
ATOM     28  C   UNL     1       5.667  -4.175  -7.933  0.00  0.00    +0.173 A 
ATOM     29 BR   UNL     1       3.867  -2.845  -9.697  0.00  0.00    -0.046 Br
BRANCH  28  30
ATOM     30  O   UNL     1       6.199  -4.699  -9.069  0.00  0.00    -0.503 OA
ATOM     31  H   UNL     1       5.795  -5.534  -9.344  0.00  0.00    +0.292 HD
ENDBRANCH  28  30
BRANCH  23  32
ATOM     32  O   UNL     1       7.259  -5.370  -6.621  0.00  0.00    -0.489 OA
BRANCH  32  34
ATOM     33  C   UNL     1       8.935  -6.646  -5.436  0.00  0.00    +0.048 C 
ATOM     34  C   UNL     1       7.758  -5.675  -5.318  0.00  0.00    +0.226 C 
ENDBRANCH  32  34
ENDBRANCH  23  32
ENDBRANCH  21  25
ENDBRANCH   1  22
TORSDOF 5
