REMARK  Name = ZINC39753155
REMARK  8 active torsions:
REMARK  status: ('A' for Active; 'I' for Inactive)
REMARK    1  A    between atoms: C_4  and  N_7
REMARK    2  A    between atoms: C_8  and  C_26
REMARK    3  A    between atoms: C_11  and  S_12
REMARK    4  A    between atoms: S_12  and  C_13
REMARK    5  A    between atoms: C_13  and  C_14
REMARK    6  A    between atoms: C_14  and  C_16
REMARK    7  A    between atoms: C_26  and  N_27
REMARK    8  A    between atoms: C_28  and  C_30
REMARK                            x       y       z     vdW  Elec       q    Type
REMARK                         _______ _______ _______ _____ _____    ______ ____
ROOT
ATOM      1  N   UNL     1       3.624  -0.653  -0.036  0.00  0.00    -0.273 N 
ATOM      2  C   UNL     1       4.115  -1.449  -1.037  0.00  0.00    +0.156 A 
ATOM      3  N   UNL     1       5.279  -1.886  -0.648  0.00  0.00    -0.132 NA
ATOM      4  N   UNL     1       5.558  -1.426   0.519  0.00  0.00    -0.122 NA
ATOM      5  C   UNL     1       4.580  -0.658   0.942  0.00  0.00    +0.197 A 
ENDROOT
BRANCH   1   9
ATOM      6  C   UNL     1      -0.017   1.379   0.010  0.00  0.00    +0.000 A 
ATOM      7  C   UNL     1       1.170   2.089   0.002  0.00  0.00    +0.002 A 
ATOM      8  C   UNL     1       2.377   1.419  -0.013  0.00  0.00    +0.026 A 
ATOM      9  C   UNL     1       2.399   0.031  -0.021  0.00  0.00    +0.050 A 
ATOM     10  C   UNL     1       1.207  -0.680  -0.013  0.00  0.00    +0.026 A 
ATOM     11  C   UNL     1       0.002  -0.004   0.002  0.00  0.00    +0.002 A 
ENDBRANCH   1   9
BRANCH   5  12
ATOM     12  S   UNL     1       4.512   0.200   2.479  0.00  0.00    -0.078 S 
BRANCH  12  13
ATOM     13  C   UNL     1       6.076  -0.229   3.291  0.00  0.00    +0.157 C 
BRANCH  13  14
ATOM     14  C   UNL     1       6.147   0.449   4.635  0.00  0.00    +0.173 C 
ATOM     15  O   UNL     1       5.232   1.153   5.008  0.00  0.00    -0.291 OA
BRANCH  14  16
ATOM     16  C   UNL     1       7.325   0.258   5.494  0.00  0.00    +0.019 A 
ATOM     17  C   UNL     1       8.388  -0.556   5.054  0.00  0.00    +0.012 A 
ATOM     18  C   UNL     1       9.484  -0.747   5.829  0.00  0.00    +0.009 A 
ATOM     19  C   UNL     1       9.572  -0.130   7.091  0.00  0.00    -0.018 A 
ATOM     20  C   UNL     1      10.698  -0.314   7.910  0.00  0.00    +0.008 A 
ATOM     21  C   UNL     1      10.756   0.296   9.126  0.00  0.00    +0.001 A 
ATOM     22  C   UNL     1       9.713   1.104   9.574  0.00  0.00    +0.001 A 
ATOM     23  C   UNL     1       8.605   1.305   8.810  0.00  0.00    +0.008 A 
ATOM     24  C   UNL     1       8.510   0.692   7.547  0.00  0.00    -0.017 A 
ATOM     25  C   UNL     1       7.386   0.884   6.731  0.00  0.00    +0.020 A 
ENDBRANCH  14  16
ENDBRANCH  13  14
ENDBRANCH  12  13
ENDBRANCH   5  12
BRANCH   2  26
ATOM     26  C   UNL     1       3.434  -1.762  -2.345  0.00  0.00    +0.181 C 
BRANCH  26  27
ATOM     27  N   UNL     1       3.818  -0.764  -3.346  0.00  0.00    -0.304 N 
ATOM     28  C   UNL     1       3.328  -0.844  -4.599  0.00  0.00    +0.244 C 
ATOM     29  O   UNL     1       2.566  -1.743  -4.898  0.00  0.00    -0.270 OA
ATOM     30  H   UNL     1       4.426  -0.047  -3.108  0.00  0.00    +0.149 HD
BRANCH  28  31
ATOM     31  C   UNL     1       3.715   0.163  -5.609  0.00  0.00    +0.037 A 
ATOM     32  C   UNL     1       4.594   1.193  -5.271  0.00  0.00    +0.014 A 
ATOM     33  C   UNL     1       4.953   2.129  -6.218  0.00  0.00    +0.021 A 
ATOM     34  C   UNL     1       4.442   2.048  -7.503  0.00  0.00    +0.041 A 
ATOM     35  C   UNL     1       3.570   1.028  -7.845  0.00  0.00    +0.021 A 
ATOM     36  C   UNL     1       3.209   0.083  -6.908  0.00  0.00    +0.014 A 
ATOM     37 CL   UNL     1       4.897   3.231  -8.690  0.00  0.00    -0.084 Cl
ENDBRANCH  28  31
ENDBRANCH  26  27
ENDBRANCH   2  26
TORSDOF 8
