REMARK  Name = ZINC63480288
REMARK  4 active torsions:
REMARK  status: ('A' for Active; 'I' for Inactive)
REMARK    1  A    between atoms: C_1  and  C_2
REMARK    2  A    between atoms: C_16  and  C_19
REMARK    3  A    between atoms: C_19  and  C_20
REMARK    4  A    between atoms: N_31  and  C_34
REMARK                            x       y       z     vdW  Elec       q    Type
REMARK                         _______ _______ _______ _____ _____    ______ ____
ROOT
ATOM      1  C   UNL     1       1.054   1.685   0.836  0.00  0.00    +0.045 C 
ATOM      2  C   UNL     1       0.859   0.205   0.628  0.00  0.00    -0.029 A 
ATOM      3  C   UNL     1       0.870  -0.318  -0.649  0.00  0.00    +0.005 A 
ATOM      4  C   UNL     1       0.692  -1.674  -0.850  0.00  0.00    +0.001 A 
ATOM      5  C   UNL     1       0.502  -2.512   0.235  0.00  0.00    +0.008 A 
ATOM      6  C   UNL     1       0.491  -1.995   1.511  0.00  0.00    +0.004 A 
ATOM      7  C   UNL     1       0.673  -0.632   1.726  0.00  0.00    +0.042 A 
ATOM      8  N   UNL     1       0.624  -0.347   3.092  0.00  0.00    -0.283 N 
ATOM      9  C   UNL     1       0.420  -1.453   3.834  0.00  0.00    +0.243 C 
ATOM     10  O   UNL     1       0.329  -1.507   5.043  0.00  0.00    -0.273 OA
ATOM     11  C   UNL     1       0.315  -2.605   2.873  0.00  0.00    +0.136 C 
ATOM     12  C   UNL     1      -1.027  -3.336   2.996  0.00  0.00    +0.123 C 
ATOM     13  C   UNL     1      -0.723  -4.561   3.903  0.00  0.00    +0.107 C 
ATOM     14  C   UNL     1       0.779  -4.443   4.237  0.00  0.00    +0.072 C 
ATOM     15  N   UNL     1       1.353  -3.615   3.152  0.00  0.00    -0.295 NA
ATOM     16  C   UNL     1      -1.545  -4.288   5.143  0.00  0.00    +0.232 C 
ATOM     17  O   UNL     1      -1.601  -5.005   6.119  0.00  0.00    -0.274 OA
ATOM     18  N   UNL     1      -2.202  -3.131   4.995  0.00  0.00    -0.210 N 
ATOM     19  C   UNL     1      -1.989  -2.506   3.815  0.00  0.00    +0.233 C 
ATOM     20  O   UNL     1      -2.481  -1.455   3.465  0.00  0.00    -0.274 OA
ATOM     21  H   UNL     1       0.726   0.543   3.464  0.00  0.00    +0.155 HD
ATOM     22  H   UNL     1       1.536  -4.181   2.337  0.00  0.00    +0.124 HD
ENDROOT
BRANCH  18  23
ATOM     23  C   UNL     1      -3.051  -2.610   5.981  0.00  0.00    +0.044 A 
ATOM     24  C   UNL     1      -2.525  -2.170   7.189  0.00  0.00    +0.024 A 
ATOM     25  C   UNL     1      -3.364  -1.657   8.159  0.00  0.00    +0.002 A 
ATOM     26  C   UNL     1      -4.725  -1.581   7.929  0.00  0.00    +0.000 A 
ATOM     27  C   UNL     1      -5.251  -2.018   6.727  0.00  0.00    +0.002 A 
ATOM     28  C   UNL     1      -4.417  -2.527   5.751  0.00  0.00    +0.024 A 
ENDBRANCH  18  23
BRANCH  14  29
ATOM     29  C   UNL     1       1.427  -5.829   4.274  0.00  0.00    +0.052 C 
BRANCH  29  30
ATOM     30  C   UNL     1       2.860  -5.702   4.721  0.00  0.00    -0.040 C 
ATOM     31  C   UNL     1       3.336  -5.849   5.978  0.00  0.00    -0.001 A 
ATOM     32  C   UNL     1       2.686  -6.159   7.257  0.00  0.00    +0.010 A 
ATOM     33  C   UNL     1       3.443  -6.242   8.375  0.00  0.00    +0.001 A 
ATOM     34  C   UNL     1       4.830  -6.040   8.342  0.00  0.00    +0.002 A 
ATOM     35  C   UNL     1       5.498  -5.752   7.205  0.00  0.00    +0.026 A 
ATOM     36  C   UNL     1       4.802  -5.641   5.970  0.00  0.00    +0.043 A 
ATOM     37  N   UNL     1       5.216  -5.374   4.755  0.00  0.00    -0.380 N 
ATOM     38  C   UNL     1       4.059  -5.390   3.853  0.00  0.00    +0.144 C 
ATOM     39  H   UNL     1       6.134  -5.200   4.496  0.00  0.00    +0.160 HD
ENDBRANCH  29  30
ENDBRANCH  14  29
TORSDOF 3
