REMARK  Name = ZINC65387060
REMARK  3 active torsions:
REMARK  status: ('A' for Active; 'I' for Inactive)
REMARK    1  A    between atoms: C_3  and  C_12
REMARK    2  A    between atoms: N_16  and  C_17
REMARK    3  A    between atoms: C_17  and  C_18
REMARK                            x       y       z     vdW  Elec       q    Type
REMARK                         _______ _______ _______ _____ _____    ______ ____
ROOT
ATOM      1  C   UNL     1      -0.017   1.405   0.010  0.00  0.00    +0.012 A 
ATOM      2  C   UNL     1       1.174   2.068   0.002  0.00  0.00    +0.032 A 
ATOM      3  C   UNL     1       2.377   1.342  -0.013  0.00  0.00    +0.107 A 
ATOM      4  N   UNL     1       2.386   0.022  -0.021  0.00  0.00    -0.244 NA
ATOM      5  C   UNL     1       1.249  -0.678  -0.013  0.00  0.00    +0.072 A 
ATOM      6  C   UNL     1       0.002  -0.004   0.002  0.00  0.00    +0.002 A 
ATOM      7  C   UNL     1      -1.188  -0.748   0.009  0.00  0.00    +0.030 A 
ATOM      8  C   UNL     1      -1.132  -2.110   0.001  0.00  0.00    +0.042 A 
ATOM      9  C   UNL     1       0.094  -2.775  -0.014  0.00  0.00    +0.022 A 
ATOM     10  C   UNL     1       1.266  -2.086  -0.022  0.00  0.00    +0.030 A 
ATOM     11 CL   UNL     1      -2.605  -3.028   0.009  0.00  0.00    -0.084 Cl
ENDROOT
BRANCH   3  12
ATOM     12  C   UNL     1       3.662   2.074  -0.022  0.00  0.00    +0.160 A 
ATOM     13  N   UNL     1       3.804   3.381  -0.011  0.00  0.00    -0.234 NA
ATOM     14  C   UNL     1       5.105   3.683  -0.024  0.00  0.00    +0.131 A 
ATOM     15  C   UNL     1       5.809   2.530  -0.044  0.00  0.00    +0.108 A 
ATOM     16  N   UNL     1       4.904   1.507  -0.037  0.00  0.00    -0.323 N 
BRANCH  16  17
ATOM     17  C   UNL     1       5.207   0.074  -0.048  0.00  0.00    +0.182 C 
BRANCH  17  18
ATOM     18  C   UNL     1       5.177  -0.435  -1.466  0.00  0.00    +0.103 A 
ATOM     19  C   UNL     1       6.215  -1.125  -2.118  0.00  0.00    +0.069 A 
ATOM     20  C   UNL     1       5.806  -1.410  -3.369  0.00  0.00    +0.230 A 
ATOM     21  O   UNL     1       4.564  -0.927  -3.520  0.00  0.00    -0.363 OA
ATOM     22  N   UNL     1       4.183  -0.318  -2.300  0.00  0.00    -0.082 NA
ENDBRANCH  17  18
ENDBRANCH  16  17
ENDBRANCH   3  12
TORSDOF 3
