REMARK  Name = ZINC00906627
REMARK  11 active torsions:
REMARK  status: ('A' for Active; 'I' for Inactive)
REMARK    1  A    between atoms: C_1  and  C_2
REMARK    2  A    between atoms: C_2  and  C_3
REMARK    3  A    between atoms: C_3  and  C_4
REMARK    4  A    between atoms: C_4  and  C_6
REMARK    5  A    between atoms: C_4  and  N_14
REMARK    6  A    between atoms: N_8  and  C_9
REMARK    7  A    between atoms: N_14  and  C_15
REMARK    8  A    between atoms: C_22  and  C_24
REMARK    9  A    between atoms: C_25  and  N_38
REMARK   10  A    between atoms: C_26  and  C_29
REMARK   11  A    between atoms: N_31  and  C_32
REMARK                            x       y       z     vdW  Elec       q    Type
REMARK                         _______ _______ _______ _____ _____    ______ ____
ROOT
ATOM      1  N   UNL     1      -3.540  -1.428   0.031  0.00  0.00    -0.255 N 
ATOM      2  C   UNL     1      -2.526  -0.541   0.027  0.00  0.00    +0.261 C 
ATOM      3  O   UNL     1      -2.755   0.647   0.166  0.00  0.00    -0.269 OA
ENDROOT
BRANCH   1   4
ATOM      4  C   UNL     1      -3.271  -2.799  -0.048  0.00  0.00    +0.038 A 
ATOM      5  C   UNL     1      -3.469  -3.479  -1.242  0.00  0.00    +0.026 A 
ATOM      6  C   UNL     1      -3.197  -4.831  -1.319  0.00  0.00    +0.040 A 
ATOM      7  C   UNL     1      -2.739  -5.511  -0.203  0.00  0.00    +0.124 A 
ATOM      8  C   UNL     1      -2.546  -4.835   0.991  0.00  0.00    +0.040 A 
ATOM      9  C   UNL     1      -2.811  -3.482   1.070  0.00  0.00    +0.026 A 
ATOM     10  F   UNL     1      -2.479  -6.834  -0.279  0.00  0.00    -0.205 F 
ENDBRANCH   1   4
BRANCH   2  11
ATOM     11  C   UNL     1      -1.148  -1.005  -0.143  0.00  0.00    +0.116 A 
ATOM     12  C   UNL     1       0.045  -0.284  -0.066  0.00  0.00    +0.076 A 
ATOM     13  C   UNL     1       1.167  -1.083  -0.283  0.00  0.00    +0.156 A 
ATOM     14  N   UNL     1       1.007  -2.364  -0.531  0.00  0.00    -0.203 NA
ATOM     15  S   UNL     1      -0.545  -2.641  -0.507  0.00  0.00    +0.019 S 
BRANCH  13  16
ATOM     16  C   UNL     1       2.520  -0.497  -0.235  0.00  0.00    +0.265 C 
ATOM     17  O   UNL     1       2.661   0.688  -0.006  0.00  0.00    -0.268 OA
ATOM     18  N   UNL     1       3.599  -1.276  -0.446  0.00  0.00    -0.307 N 
ATOM     19  H   UNL     1       3.487  -2.222  -0.629  0.00  0.00    +0.149 HD
BRANCH  18  20
ATOM     20  C   UNL     1       4.943  -0.694  -0.399  0.00  0.00    +0.073 C 
ATOM     21  C   UNL     1       5.289  -0.098  -1.765  0.00  0.00    +0.022 C 
ATOM     22  C   UNL     1       6.692   0.510  -1.716  0.00  0.00    +0.002 C 
ATOM     23  C   UNL     1       7.707  -0.579  -1.363  0.00  0.00    +0.000 C 
ATOM     24  C   UNL     1       7.361  -1.175   0.003  0.00  0.00    +0.002 C 
ATOM     25  C   UNL     1       5.958  -1.783  -0.046  0.00  0.00    +0.022 C 
ENDBRANCH  18  20
ENDBRANCH  13  16
BRANCH  12  26
ATOM     26  N   UNL     1       0.108   1.077   0.204  0.00  0.00    -0.355 N 
ATOM     27  H   UNL     1       0.968   1.523   0.249  0.00  0.00    +0.142 HD
ATOM     28  H   UNL     1      -0.709   1.582   0.343  0.00  0.00    +0.142 HD
ENDBRANCH  12  26
ENDBRANCH   2  11
BRANCH   1  29
ATOM     29  C   UNL     1      -4.925  -0.957   0.116  0.00  0.00    +0.167 C 
BRANCH  29  30
ATOM     30  C   UNL     1      -5.547  -1.457   1.394  0.00  0.00    +0.234 C 
ATOM     31  O   UNL     1      -4.898  -2.140   2.158  0.00  0.00    -0.274 OA
ATOM     32  N   UNL     1      -6.825  -1.146   1.688  0.00  0.00    -0.311 N 
ATOM     33  H   UNL     1      -7.344  -0.600   1.077  0.00  0.00    +0.149 HD
BRANCH  32  34
ATOM     34  C   UNL     1      -7.431  -1.633   2.931  0.00  0.00    +0.073 C 
ATOM     35  C   UNL     1      -8.050  -3.027   2.706  0.00  0.00    +0.022 C 
ATOM     36  C   UNL     1      -9.340  -3.012   3.563  0.00  0.00    +0.002 C 
ATOM     37  C   UNL     1      -9.860  -1.566   3.374  0.00  0.00    +0.002 C 
ATOM     38  C   UNL     1      -8.581  -0.703   3.356  0.00  0.00    +0.022 C 
ENDBRANCH  32  34
ENDBRANCH  29  30
BRANCH  29  39
ATOM     39  C   UNL     1      -5.719  -1.487  -1.079  0.00  0.00    +0.032 C 
BRANCH  39  41
ATOM     40  C   UNL     1      -5.968  -1.397  -3.564  0.00  0.00    +0.004 C 
ATOM     41  C   UNL     1      -5.175  -0.867  -2.368  0.00  0.00    -0.001 C 
ENDBRANCH  39  41
ENDBRANCH  29  39
ENDBRANCH   1  29
TORSDOF 10
