REMARK  Name = ZINC15477073
REMARK  7 active torsions:
REMARK  status: ('A' for Active; 'I' for Inactive)
REMARK    1  A    between atoms: C_3  and  C_6
REMARK    2  A    between atoms: C_6  and  C_8
REMARK    3  A    between atoms: C_6  and  N_62
REMARK    4  A    between atoms: C_8  and  N_9
REMARK    5  A    between atoms: C_10  and  C_12
REMARK    6  A    between atoms: C_14  and  S_19
REMARK    7  A    between atoms: S_19  and  N_22
REMARK                            x       y       z     vdW  Elec       q    Type
REMARK                         _______ _______ _______ _____ _____    ______ ____
ROOT
ATOM      1  N   UNL     1       7.678   1.011  -2.049  0.00  0.00    -0.312 N 
ATOM      2  C   UNL     1       7.799  -0.213  -2.599  0.00  0.00    +0.246 C 
ATOM      3  O   UNL     1       8.423  -0.357  -3.632  0.00  0.00    -0.270 OA
ATOM      4  H   UNL     1       7.180   1.126  -1.224  0.00  0.00    +0.149 HD
ENDROOT
BRANCH   2   5
ATOM      5  C   UNL     1       7.173  -1.382  -1.945  0.00  0.00    +0.057 A 
ATOM      6  C   UNL     1       6.455  -1.221  -0.759  0.00  0.00    +0.043 A 
ATOM      7  C   UNL     1       5.873  -2.315  -0.154  0.00  0.00    +0.106 A 
ATOM      8  C   UNL     1       6.003  -3.572  -0.718  0.00  0.00    +0.030 A 
ATOM      9  C   UNL     1       6.707  -3.740  -1.896  0.00  0.00    +0.022 A 
ATOM     10  C   UNL     1       7.295  -2.652  -2.513  0.00  0.00    +0.053 A 
ATOM     11 CL   UNL     1       8.185  -2.865  -3.988  0.00  0.00    -0.083 Cl
BRANCH   7  12
ATOM     12  S   UNL     1       4.967  -2.113   1.343  0.00  0.00    +0.061 S 
ATOM     13  O   UNL     1       5.457  -0.929   1.958  0.00  0.00    -0.153 OA
ATOM     14  O   UNL     1       4.980  -3.373   1.999  0.00  0.00    -0.153 OA
BRANCH  12  15
ATOM     15  N   UNL     1       3.393  -1.813   0.927  0.00  0.00    -0.177 NA
ATOM     16  C   UNL     1       2.439  -2.918   0.759  0.00  0.00    +0.109 C 
ATOM     17  C   UNL     1       1.783  -2.798  -0.620  0.00  0.00    +0.017 C 
ATOM     18  C   UNL     1       1.165  -1.406  -0.767  0.00  0.00    +0.003 C 
ATOM     19  C   UNL     1       2.262  -0.345  -0.661  0.00  0.00    +0.017 C 
ATOM     20  C   UNL     1       2.923  -0.436   0.718  0.00  0.00    +0.109 C 
ENDBRANCH  12  15
ENDBRANCH   7  12
ENDBRANCH   2   5
BRANCH   1  21
ATOM     21  C   UNL     1       8.299   2.169  -2.696  0.00  0.00    +0.097 C 
BRANCH  21  22
ATOM     22  C   UNL     1       7.913   3.443  -1.942  0.00  0.00    +0.016 C 
BRANCH  22  28
ATOM     23  C   UNL     1       7.836   4.469   0.250  0.00  0.00    -0.078 C 
ATOM     24  C   UNL     1       8.092   4.222   1.738  0.00  0.00    -0.019 C 
ATOM     25  C   UNL     1       9.585   3.967   1.959  0.00  0.00    -0.004 C 
ATOM     26  C   UNL     1      10.023   2.774   1.105  0.00  0.00    -0.019 C 
ATOM     27  C   UNL     1       9.711   3.063  -0.365  0.00  0.00    -0.078 C 
ATOM     28  N   UNL     1       8.255   3.275  -0.514  0.00  0.00    +0.387 N 
ATOM     29  H   UNL     1       7.760   2.454  -0.147  0.00  0.00    -0.081 HD
ENDBRANCH  22  28
BRANCH  22  32
ATOM     30  C   UNL     1       9.154   6.489  -3.606  0.00  0.00    +0.041 A 
ATOM     31  C   UNL     1       8.107   5.599  -3.270  0.00  0.00    +0.043 A 
ATOM     32  C   UNL     1       8.652   4.618  -2.529  0.00  0.00    +0.093 A 
ATOM     33  O   UNL     1       9.968   4.860  -2.406  0.00  0.00    -0.469 OA
ATOM     34  C   UNL     1      10.278   5.993  -3.057  0.00  0.00    +0.195 A 
ENDBRANCH  22  32
ENDBRANCH  21  22
ENDBRANCH   1  21
TORSDOF 7
