REMARK  Name = ZINC34716373
REMARK  9 active torsions:
REMARK  status: ('A' for Active; 'I' for Inactive)
REMARK    1  A    between atoms: C_1  and  C_2
REMARK    2  A    between atoms: C_2  and  C_3
REMARK    3  A    between atoms: C_3  and  C_4
REMARK    4  A    between atoms: C_4  and  N_5
REMARK    5  A    between atoms: C_10  and  C_29
REMARK    6  A    between atoms: C_13  and  C_16
REMARK    7  A    between atoms: N_18  and  C_19
REMARK    8  A    between atoms: C_19  and  C_20
REMARK    9  A    between atoms: C_33  and  C_35
REMARK                            x       y       z     vdW  Elec       q    Type
REMARK                         _______ _______ _______ _____ _____    ______ ____
ROOT
ATOM      1  N   UNL     1       1.076  -4.709  -1.802  0.00  0.00    -0.299 N 
ATOM      2  C   UNL     1       1.564  -3.822  -2.692  0.00  0.00    +0.302 C 
ATOM      3  O   UNL     1       1.356  -2.633  -2.542  0.00  0.00    -0.253 OA
ATOM      4  N   UNL     1       2.282  -4.252  -3.749  0.00  0.00    -0.284 N 
ATOM      5  C   UNL     1       2.440  -5.689  -4.011  0.00  0.00    +0.117 C 
ATOM      6  C   UNL     1       2.008  -5.978  -5.452  0.00  0.00    +0.037 C 
ATOM      7  C   UNL     1       2.793  -5.075  -6.406  0.00  0.00    +0.024 C 
ATOM      8  C   UNL     1       2.484  -3.609  -6.094  0.00  0.00    +0.093 C 
ATOM      9  C   UNL     1       2.916  -3.293  -4.663  0.00  0.00    +0.122 C 
ATOM     10  H   UNL     1       1.179  -5.660  -1.960  0.00  0.00    +0.150 HD
ENDROOT
BRANCH   6  11
ATOM     11  C   UNL     1       2.287  -7.422  -5.781  0.00  0.00    -0.042 A 
ATOM     12  C   UNL     1       3.579  -7.909  -5.711  0.00  0.00    +0.007 A 
ATOM     13  C   UNL     1       3.836  -9.233  -6.012  0.00  0.00    +0.039 A 
ATOM     14  C   UNL     1       2.799 -10.072  -6.384  0.00  0.00    +0.126 A 
ATOM     15  C   UNL     1       1.506  -9.583  -6.455  0.00  0.00    -0.015 A 
ATOM     16  C   UNL     1       1.250  -8.259  -6.148  0.00  0.00    +0.010 A 
ATOM     17  C   UNL     1       0.377 -10.494  -6.860  0.00  0.00    +0.047 C 
ATOM     18  F   UNL     1       3.050 -11.366  -6.679  0.00  0.00    -0.205 F 
ENDBRANCH   6  11
BRANCH   8  19
ATOM     19  C   UNL     1       3.232  -2.721  -7.055  0.00  0.00    +0.218 C 
ATOM     20  O   UNL     1       3.942  -3.212  -7.906  0.00  0.00    -0.275 OA
ATOM     21  N   UNL     1       3.111  -1.382  -6.968  0.00  0.00    -0.311 N 
ATOM     22  H   UNL     1       2.543  -0.989  -6.287  0.00  0.00    +0.149 HD
BRANCH  21  23
ATOM     23  C   UNL     1       3.838  -0.519  -7.903  0.00  0.00    +0.139 C 
BRANCH  23  24
ATOM     24  C   UNL     1       3.534   0.924  -7.595  0.00  0.00    -0.027 A 
ATOM     25  C   UNL     1       2.461   1.548  -8.205  0.00  0.00    +0.009 A 
ATOM     26  C   UNL     1       2.178   2.872  -7.925  0.00  0.00    +0.050 A 
ATOM     27  C   UNL     1       2.968   3.577  -7.032  0.00  0.00    +0.166 A 
ATOM     28  C   UNL     1       4.048   2.949  -6.418  0.00  0.00    +0.167 A 
ATOM     29  C   UNL     1       4.324   1.620  -6.699  0.00  0.00    +0.054 A 
ATOM     30  O   UNL     1       4.663   3.845  -5.592  0.00  0.00    -0.453 OA
ATOM     31  C   UNL     1       4.197   5.140  -6.015  0.00  0.00    +0.466 C 
ATOM     32  O   UNL     1       2.906   4.867  -6.591  0.00  0.00    -0.453 OA
ENDBRANCH  23  24
ENDBRANCH  21  23
ENDBRANCH   8  19
BRANCH   1  33
ATOM     33  C   UNL     1       0.390  -4.236  -0.598  0.00  0.00    +0.106 C 
BRANCH  33  34
ATOM     34  C   UNL     1      -0.062  -5.437   0.236  0.00  0.00    +0.018 C 
BRANCH  34  36
ATOM     35  C   UNL     1      -1.230  -6.143   2.329  0.00  0.00    +0.004 C 
ATOM     36  C   UNL     1      -0.778  -4.943   1.495  0.00  0.00    -0.002 C 
ENDBRANCH  34  36
ENDBRANCH  33  34
ENDBRANCH   1  33
TORSDOF 7
