REMARK  Name = ZINC64890537
REMARK  10 active torsions:
REMARK  status: ('A' for Active; 'I' for Inactive)
REMARK    1  A    between atoms: C_1  and  C_2
REMARK    2  A    between atoms: C_5  and  S_8
REMARK    3  A    between atoms: S_8  and  N_11
REMARK    4  A    between atoms: N_11  and  C_12
REMARK    5  A    between atoms: C_12  and  C_14
REMARK    6  A    between atoms: C_12  and  C_34
REMARK    7  A    between atoms: C_17  and  C_20
REMARK    8  A    between atoms: N_32  and  C_33
REMARK    9  A    between atoms: C_34  and  C_35
REMARK   10  A    between atoms: C_34  and  C_36
REMARK                            x       y       z     vdW  Elec       q    Type
REMARK                         _______ _______ _______ _____ _____    ______ ____
ROOT
ATOM      1  C   UNL     1       3.955  -4.130   0.628  0.00  0.00    +0.262 C 
ATOM      2  N   UNL     1       3.865  -2.836  -0.059  0.00  0.00    -0.341 N 
ATOM      3  C   UNL     1       4.168  -3.007  -1.309  0.00  0.00    +0.134 C 
ATOM      4  N   UNL     1       4.468  -4.320  -1.577  0.00  0.00    -0.247 N 
ATOM      5  O   UNL     1       4.349  -5.074  -0.379  0.00  0.00    -0.246 OA
ATOM      6  H   UNL     1       4.721  -4.675  -2.443  0.00  0.00    +0.196 HD
ATOM      7  H   UNL     1       3.619  -1.993   0.353  0.00  0.00    +0.164 HD
ENDROOT
BRANCH   3   8
ATOM      8  C   UNL     1       4.186  -1.925  -2.318  0.00  0.00    +0.019 A 
ATOM      9  C   UNL     1       4.495  -0.617  -1.935  0.00  0.00    +0.013 A 
ATOM     10  C   UNL     1       4.513   0.390  -2.872  0.00  0.00    +0.028 A 
ATOM     11  C   UNL     1       4.224   0.113  -4.206  0.00  0.00    +0.068 A 
ATOM     12  C   UNL     1       3.914  -1.193  -4.595  0.00  0.00    +0.067 A 
ATOM     13  C   UNL     1       3.901  -2.210  -3.651  0.00  0.00    +0.039 A 
ATOM     14  N   UNL     1       3.622  -1.486  -5.925  0.00  0.00    -0.316 N 
ATOM     15  H   UNL     1       3.407  -2.395  -6.186  0.00  0.00    +0.169 HD
ATOM     16  C   UNL     1       3.637  -0.506  -6.852  0.00  0.00    +0.314 A 
ATOM     17  O   UNL     1       3.382  -0.755  -8.013  0.00  0.00    -0.262 OA
ATOM     18  C   UNL     1       3.969   0.887  -6.435  0.00  0.00    +0.316 A 
ATOM     19  O   UNL     1       3.987   1.784  -7.253  0.00  0.00    -0.262 OA
ATOM     20  N   UNL     1       4.247   1.141  -5.140  0.00  0.00    -0.305 N 
ATOM     21  C   UNL     1       4.574   2.505  -4.717  0.00  0.00    +0.153 C 
ENDBRANCH   3   8
BRANCH   1  22
ATOM     22  C   UNL     1       2.594  -4.515   1.212  0.00  0.00    +0.131 C 
BRANCH  22  23
ATOM     23  C   UNL     1       2.728  -5.818   2.003  0.00  0.00    +0.006 C 
ATOM     24  C   UNL     1       3.655  -5.594   3.200  0.00  0.00    +0.009 C 
ATOM     25  C   UNL     1       1.350  -6.258   2.500  0.00  0.00    +0.009 C 
ENDBRANCH  22  23
BRANCH  22  26
ATOM     26  N   UNL     1       1.631  -4.702   0.124  0.00  0.00    -0.182 NA
ATOM     27  H   UNL     1       1.835  -5.308  -0.606  0.00  0.00    +0.148 HD
BRANCH  26  28
ATOM     28  S   UNL     1       0.194  -3.879   0.139  0.00  0.00    +0.059 S 
ATOM     29  O   UNL     1      -0.369  -4.069   1.429  0.00  0.00    -0.153 OA
ATOM     30  O   UNL     1      -0.492  -4.237  -1.053  0.00  0.00    -0.153 OA
BRANCH  28  35
ATOM     31  C   UNL     1       1.496   1.995  -0.324  0.00  0.00    +0.044 C 
ATOM     32  C   UNL     1       1.171   0.528  -0.209  0.00  0.00    -0.050 A 
ATOM     33  C   UNL     1       0.964  -0.226  -1.349  0.00  0.00    +0.005 A 
ATOM     34  C   UNL     1       0.666  -1.572  -1.242  0.00  0.00    +0.029 A 
ATOM     35  C   UNL     1       0.575  -2.164   0.004  0.00  0.00    +0.105 A 
ATOM     36  C   UNL     1       0.783  -1.410   1.143  0.00  0.00    +0.029 A 
ATOM     37  C   UNL     1       1.086  -0.065   1.037  0.00  0.00    +0.005 A 
ENDBRANCH  28  35
ENDBRANCH  26  28
ENDBRANCH  22  26
ENDBRANCH   1  22
TORSDOF 6
