REMARK  Name = ZINC12149534
REMARK  8 active torsions:
REMARK  status: ('A' for Active; 'I' for Inactive)
REMARK    1  A    between atoms: C_1  and  C_2
REMARK    2  A    between atoms: C_2  and  C_3
REMARK    3  A    between atoms: C_3  and  C_17
REMARK    4  A    between atoms: N_6  and  C_10
REMARK    5  A    between atoms: C_10  and  C_11
REMARK    6  A    between atoms: C_22  and  C_23
REMARK    7  A    between atoms: C_22  and  N_63
REMARK    8  A    between atoms: C_26  and  C_28
REMARK                            x       y       z     vdW  Elec       q    Type
REMARK                         _______ _______ _______ _____ _____    ______ ____
ROOT
ATOM      1  C   UNL     1      -0.013   1.086   0.008  0.00  0.00    +0.018 C 
ATOM      2  C   UNL     1      -0.732   1.581   1.266  0.00  0.00    -0.013 C 
ATOM      3  C   UNL     1      -2.185   1.096   1.239  0.00  0.00    -0.078 C 
ATOM      4  C   UNL     1      -2.207   1.109  -1.184  0.00  0.00    -0.078 C 
ATOM      5  C   UNL     1      -0.756   1.594  -1.230  0.00  0.00    -0.013 C 
ATOM      6  N   UNL     1      -2.851   1.640   0.036  0.00  0.00    +0.383 N 
ATOM      7  H   UNL     1      -2.764   2.663   0.041  0.00  0.00    -0.081 HD
ENDROOT
BRANCH   1   8
ATOM      8  C   UNL     1       1.422   1.617  -0.003  0.00  0.00    +0.115 C 
ATOM      9  C   UNL     1       2.151   1.157  -1.250  0.00  0.00    +0.247 C 
ATOM     10  O   UNL     1       2.385   0.015  -1.582  0.00  0.00    -0.273 OA
ATOM     11  N   UNL     1       2.485   2.282  -1.912  0.00  0.00    -0.218 N 
ATOM     12  C   UNL     1       2.073   3.377  -1.264  0.00  0.00    +0.310 C 
ATOM     13  O   UNL     1       2.257   4.510  -1.665  0.00  0.00    -0.252 OA
ATOM     14  N   UNL     1       1.431   3.085  -0.118  0.00  0.00    -0.285 N 
ATOM     15  H   UNL     1       1.048   3.718   0.509  0.00  0.00    +0.151 HD
BRANCH   8  17
ATOM     16  C   UNL     1       3.557   1.813   1.280  0.00  0.00    +0.006 C 
ATOM     17  C   UNL     1       2.170   1.168   1.254  0.00  0.00    +0.032 C 
ENDBRANCH   8  17
BRANCH  11  18
ATOM     18  C   UNL     1       3.211   2.304  -3.184  0.00  0.00    +0.173 C 
BRANCH  18  19
ATOM     19  C   UNL     1       2.227   2.262  -4.325  0.00  0.00    +0.059 A 
ATOM     20  C   UNL     1       1.812   3.443  -4.912  0.00  0.00    +0.025 A 
ATOM     21  C   UNL     1       0.910   3.393  -5.964  0.00  0.00    +0.003 A 
ATOM     22  C   UNL     1       0.450   2.154  -6.381  0.00  0.00    +0.020 A 
ATOM     23  C   UNL     1       0.906   1.016  -5.742  0.00  0.00    +0.111 A 
ATOM     24  N   UNL     1       1.768   1.101  -4.748  0.00  0.00    -0.258 NA
ENDBRANCH  18  19
ENDBRANCH  11  18
ENDBRANCH   1   8
BRANCH   6  25
ATOM     25  C   UNL     1      -4.284   1.280   0.048  0.00  0.00    -0.034 C 
BRANCH  25  26
ATOM     26  C   UNL     1      -4.959   2.012   1.179  0.00  0.00    -0.007 A 
ATOM     27  C   UNL     1      -5.534   3.244   1.195  0.00  0.00    +0.120 A 
ATOM     28  N   UNL     1      -6.078   3.696   2.300  0.00  0.00    -0.247 NA
ATOM     29  C   UNL     1      -6.070   2.980   3.416  0.00  0.00    +0.108 A 
ATOM     30  S   UNL     1      -5.219   1.504   2.874  0.00  0.00    -0.074 S 
BRANCH  29  31
ATOM     31  C   UNL     1      -6.617   3.312   4.748  0.00  0.00    +0.007 A 
ATOM     32  C   UNL     1      -6.505   2.400   5.799  0.00  0.00    +0.010 A 
ATOM     33  C   UNL     1      -7.013   2.718   7.042  0.00  0.00    +0.001 A 
ATOM     34  C   UNL     1      -7.642   3.933   7.245  0.00  0.00    +0.000 A 
ATOM     35  C   UNL     1      -7.761   4.840   6.206  0.00  0.00    +0.001 A 
ATOM     36  C   UNL     1      -7.253   4.536   4.960  0.00  0.00    +0.010 A 
ENDBRANCH  29  31
ENDBRANCH  25  26
ENDBRANCH   6  25
TORSDOF 7
