REMARK  Name = ZINC02405825
REMARK  4 active torsions:
REMARK  status: ('A' for Active; 'I' for Inactive)
REMARK    1  A    between atoms: C_4  and  C_7
REMARK    2  A    between atoms: C_19  and  C_21
REMARK    3  A    between atoms: C_21  and  O_22
REMARK    4  A    between atoms: O_22  and  C_23
REMARK                            x       y       z     vdW  Elec       q    Type
REMARK                         _______ _______ _______ _____ _____    ______ ____
ROOT
ATOM      1  C   UNL     1       3.711  -0.707  -0.038  0.00  0.00    +0.140 C 
ATOM      2  C   UNL     1       4.048  -1.201   1.375  0.00  0.00    +0.127 C 
ATOM      3  C   UNL     1       5.092  -2.282   1.327  0.00  0.00    +0.241 C 
ATOM      4  O   UNL     1       5.895  -2.366   2.236  0.00  0.00    -0.274 OA
ATOM      5  N   UNL     1       5.163  -3.147   0.322  0.00  0.00    -0.148 NA
ATOM      6  C   UNL     1       4.326  -3.011  -0.707  0.00  0.00    +0.222 C 
ATOM      7  N   UNL     1       3.613  -1.876  -0.916  0.00  0.00    -0.184 N 
ATOM      8  N   UNL     1       2.841  -2.066  -2.057  0.00  0.00    -0.143 NA
ATOM      9  C   UNL     1       3.099  -3.256  -2.526  0.00  0.00    +0.229 C 
ATOM     10  N   UNL     1       4.029  -3.863  -1.711  0.00  0.00    -0.149 NA
ATOM     11  N   UNL     1       2.527  -3.820  -3.661  0.00  0.00    -0.253 N 
ATOM     12  C   UNL     1       2.877  -5.064  -4.046  0.00  0.00    +0.257 C 
ATOM     13  O   UNL     1       3.692  -5.690  -3.401  0.00  0.00    -0.272 OA
ATOM     14  H   UNL     1       1.876  -3.319  -4.176  0.00  0.00    +0.158 HD
ENDROOT
BRANCH   1  18
ATOM     15  C   UNL     1      -0.017   1.378   0.010  0.00  0.00    +0.000 A 
ATOM     16  C   UNL     1       1.171   2.086   0.002  0.00  0.00    +0.000 A 
ATOM     17  C   UNL     1       2.377   1.411  -0.013  0.00  0.00    +0.005 A 
ATOM     18  C   UNL     1       2.396   0.029  -0.020  0.00  0.00    -0.025 A 
ATOM     19  C   UNL     1       1.208  -0.679  -0.012  0.00  0.00    +0.005 A 
ATOM     20  C   UNL     1       0.002  -0.004   0.002  0.00  0.00    +0.000 A 
ENDBRANCH   1  18
BRANCH  12  21
ATOM     21  C   UNL     1       2.257  -5.675  -5.276  0.00  0.00    +0.325 C 
BRANCH  21  22
ATOM     22  O   UNL     1       2.786  -6.988  -5.473  0.00  0.00    -0.483 OA
BRANCH  22  23
ATOM     23  C   UNL     1       2.327  -7.682  -6.548  0.00  0.00    +0.121 A 
ATOM     24  C   UNL     1       1.392  -7.110  -7.397  0.00  0.00    +0.047 A 
ATOM     25  C   UNL     1       0.927  -7.817  -8.489  0.00  0.00    +0.023 A 
ATOM     26  C   UNL     1       1.393  -9.097  -8.735  0.00  0.00    +0.041 A 
ATOM     27  C   UNL     1       2.325  -9.670  -7.888  0.00  0.00    +0.023 A 
ATOM     28  C   UNL     1       2.797  -8.963  -6.799  0.00  0.00    +0.047 A 
ATOM     29 CL   UNL     1       0.807  -9.984 -10.107  0.00  0.00    -0.084 Cl
ENDBRANCH  22  23
ENDBRANCH  21  22
ENDBRANCH  12  21
TORSDOF 4
