REMARK  Name = ZINC14255200
REMARK  10 active torsions:
REMARK  status: ('A' for Active; 'I' for Inactive)
REMARK    1  A    between atoms: C_1  and  C_2
REMARK    2  A    between atoms: C_2  and  C_4
REMARK    3  A    between atoms: C_2  and  N_69
REMARK    4  A    between atoms: N_6  and  C_7
REMARK    5  A    between atoms: C_10  and  S_13
REMARK    6  A    between atoms: S_13  and  N_16
REMARK    7  A    between atoms: C_23  and  C_26
REMARK    8  A    between atoms: C_26  and  C_27
REMARK    9  A    between atoms: C_27  and  C_28
REMARK   10  A    between atoms: C_31  and  O_34
REMARK                            x       y       z     vdW  Elec       q    Type
REMARK                         _______ _______ _______ _____ _____    ______ ____
ROOT
ATOM      1  C   UNL     1       3.943   7.671  -1.368  0.00  0.00    -0.004 C 
ATOM      2  C   UNL     1       2.425   7.482  -1.423  0.00  0.00    +0.016 C 
ENDROOT
BRANCH   2   8
ATOM      3  C   UNL     1       2.939   5.191  -2.013  0.00  0.00    -0.078 C 
ATOM      4  C   UNL     1       2.475   3.741  -1.853  0.00  0.00    -0.015 C 
ATOM      5  C   UNL     1       2.575   3.338  -0.380  0.00  0.00    -0.014 C 
ATOM      6  C   UNL     1       1.730   4.298   0.464  0.00  0.00    -0.015 C 
ATOM      7  C   UNL     1       2.215   5.731   0.235  0.00  0.00    -0.078 C 
ATOM      8  N   UNL     1       2.070   6.066  -1.197  0.00  0.00    +0.387 N 
ATOM      9  H   UNL     1       1.093   5.918  -1.476  0.00  0.00    -0.081 HD
BRANCH   5  10
ATOM     10  C   UNL     1       2.055   1.910  -0.204  0.00  0.00    +0.008 C 
BRANCH  10  11
ATOM     11  C   UNL     1       2.267   1.465   1.244  0.00  0.00    +0.035 C 
BRANCH  11  12
ATOM     12  C   UNL     1       1.755   0.058   1.418  0.00  0.00    -0.047 A 
ATOM     13  C   UNL     1       0.442  -0.157   1.792  0.00  0.00    +0.007 A 
ATOM     14  C   UNL     1      -0.031  -1.446   1.946  0.00  0.00    +0.045 A 
ATOM     15  C   UNL     1       0.815  -2.524   1.735  0.00  0.00    +0.117 A 
ATOM     16  C   UNL     1       2.134  -2.306   1.364  0.00  0.00    +0.045 A 
ATOM     17  C   UNL     1       2.601  -1.015   1.207  0.00  0.00    +0.007 A 
BRANCH  15  18
ATOM     18  O   UNL     1       0.354  -3.793   1.891  0.00  0.00    -0.507 OA
ATOM     19  H   UNL     1       0.456  -4.141   2.787  0.00  0.00    +0.292 HD
ENDBRANCH  15  18
ENDBRANCH  11  12
ENDBRANCH  10  11
ENDBRANCH   5  10
ENDBRANCH   2   8
BRANCH   2  20
ATOM     20  C   UNL     1       1.917   7.897  -2.780  0.00  0.00    +0.203 C 
ATOM     21  O   UNL     1       1.572   7.055  -3.582  0.00  0.00    -0.277 OA
ATOM     22  N   UNL     1       1.845   9.204  -3.102  0.00  0.00    -0.287 N 
ATOM     23  H   UNL     1       2.191   9.873  -2.491  0.00  0.00    +0.155 HD
BRANCH  22  24
ATOM     24  C   UNL     1       1.270   9.594  -4.316  0.00  0.00    +0.033 A 
ATOM     25  C   UNL     1       1.746  10.715  -4.983  0.00  0.00    +0.025 A 
ATOM     26  C   UNL     1       1.180  11.095  -6.184  0.00  0.00    +0.030 A 
ATOM     27  C   UNL     1       0.132  10.367  -6.717  0.00  0.00    +0.106 A 
ATOM     28  C   UNL     1      -0.348   9.254  -6.053  0.00  0.00    +0.030 A 
ATOM     29  C   UNL     1       0.217   8.865  -4.854  0.00  0.00    +0.025 A 
BRANCH  27  30
ATOM     30  S   UNL     1      -0.592  10.859  -8.246  0.00  0.00    +0.061 S 
ATOM     31  O   UNL     1       0.394  11.612  -8.939  0.00  0.00    -0.153 OA
ATOM     32  O   UNL     1      -1.195   9.699  -8.802  0.00  0.00    -0.153 OA
BRANCH  30  33
ATOM     33  N   UNL     1      -1.824  11.907  -7.889  0.00  0.00    -0.177 NA
ATOM     34  C   UNL     1      -3.224  11.533  -7.645  0.00  0.00    +0.109 C 
ATOM     35  C   UNL     1      -4.007  12.835  -7.378  0.00  0.00    +0.018 C 
ATOM     36  C   UNL     1      -3.121  13.915  -8.053  0.00  0.00    +0.018 C 
ATOM     37  C   UNL     1      -1.698  13.371  -7.770  0.00  0.00    +0.109 C 
ENDBRANCH  30  33
ENDBRANCH  27  30
ENDBRANCH  22  24
ENDBRANCH   2  20
TORSDOF 9
