REMARK  Name = ZINC09360845
REMARK  8 active torsions:
REMARK  status: ('A' for Active; 'I' for Inactive)
REMARK    1  A    between atoms: C_1  and  C_2
REMARK    2  A    between atoms: C_2  and  C_3
REMARK    3  A    between atoms: C_3  and  C_4
REMARK    4  A    between atoms: C_5  and  O_19
REMARK    5  A    between atoms: N_9  and  C_12
REMARK    6  A    between atoms: N_20  and  C_21
REMARK    7  A    between atoms: C_21  and  C_23
REMARK    8  A    between atoms: C_21  and  C_24
REMARK                            x       y       z     vdW  Elec       q    Type
REMARK                         _______ _______ _______ _____ _____    ______ ____
ROOT
ATOM      1  C   UNL     1      -1.928   7.257  -2.470  0.00  0.00    +0.202 C 
ATOM      2  C   UNL     1      -3.163   6.472  -2.588  0.00  0.00    +0.198 C 
ATOM      3  N   UNL     1      -4.113   6.909  -3.400  0.00  0.00    -0.131 NA
ATOM      4  C   UNL     1      -3.976   8.024  -4.110  0.00  0.00    +0.339 C 
ATOM      5  O   UNL     1      -4.893   8.360  -4.839  0.00  0.00    -0.250 OA
ATOM      6  N   UNL     1      -2.883   8.801  -4.069  0.00  0.00    -0.192 N 
ATOM      7  C   UNL     1      -1.833   8.484  -3.281  0.00  0.00    +0.245 C 
ATOM      8  O   UNL     1      -0.841   9.188  -3.244  0.00  0.00    -0.274 OA
ENDROOT
BRANCH   6   9
ATOM      9  C   UNL     1      -2.830   9.959  -4.856  0.00  0.00    +0.046 A 
ATOM     10  C   UNL     1      -2.962  11.208  -4.264  0.00  0.00    +0.025 A 
ATOM     11  C   UNL     1      -2.905  12.349  -5.041  0.00  0.00    +0.022 A 
ATOM     12  C   UNL     1      -2.726  12.247  -6.409  0.00  0.00    +0.041 A 
ATOM     13  C   UNL     1      -2.600  11.003  -7.002  0.00  0.00    +0.022 A 
ATOM     14  C   UNL     1      -2.651   9.860  -6.229  0.00  0.00    +0.025 A 
ATOM     15 CL   UNL     1      -2.660  13.682  -7.384  0.00  0.00    -0.084 Cl
ENDBRANCH   6   9
BRANCH   1  16
ATOM     16  C   UNL     1      -0.894   6.859  -1.635  0.00  0.00    +0.035 C 
ATOM     17  N   UNL     1      -0.948   5.663  -1.020  0.00  0.00    -0.284 NA
BRANCH  16  19
ATOM     18  C   UNL     1       1.322   7.533  -2.521  0.00  0.00    +0.010 C 
ATOM     19  C   UNL     1       0.289   7.767  -1.416  0.00  0.00    +0.048 C 
ENDBRANCH  16  19
BRANCH  17  20
ATOM     20  C   UNL     1       0.144   5.243  -0.139  0.00  0.00    +0.132 C 
ATOM     21  C   UNL     1      -0.086   5.809   1.264  0.00  0.00    +0.037 C 
BRANCH  20  22
ATOM     22  C   UNL     1       0.185   3.738  -0.072  0.00  0.00    -0.023 A 
ATOM     23  C   UNL     1       1.400   3.079  -0.071  0.00  0.00    +0.006 A 
ATOM     24  C   UNL     1       1.438   1.698  -0.010  0.00  0.00    +0.000 A 
ATOM     25  C   UNL     1       0.260   0.977   0.051  0.00  0.00    +0.000 A 
ATOM     26  C   UNL     1      -0.955   1.636   0.046  0.00  0.00    +0.000 A 
ATOM     27  C   UNL     1      -0.993   3.017  -0.011  0.00  0.00    +0.006 A 
ENDBRANCH  20  22
ENDBRANCH  17  20
ENDBRANCH   1  16
BRANCH   2  28
ATOM     28  O   UNL     1      -3.328   5.333  -1.883  0.00  0.00    -0.496 OA
ATOM     29  H   UNL     1      -4.177   4.895  -2.036  0.00  0.00    +0.293 HD
ENDBRANCH   2  28
TORSDOF 6
