REMARK  Name = ZINC65192997
REMARK  6 active torsions:
REMARK  status: ('A' for Active; 'I' for Inactive)
REMARK    1  A    between atoms: C_4  and  O_7
REMARK    2  A    between atoms: O_7  and  C_8
REMARK    3  A    between atoms: C_13  and  C_14
REMARK    4  A    between atoms: N_16  and  N_17
REMARK    5  A    between atoms: N_20  and  C_21
REMARK    6  A    between atoms: C_21  and  C_22
REMARK                            x       y       z     vdW  Elec       q    Type
REMARK                         _______ _______ _______ _____ _____    ______ ____
ROOT
ATOM      1  C   UNL     1       6.053  -1.998   0.150  0.00  0.00    +0.264 C 
ATOM      2  O   UNL     1       6.083  -0.785   0.063  0.00  0.00    -0.269 OA
ATOM      3  N   UNL     1       7.203  -2.695   0.241  0.00  0.00    -0.229 N 
ATOM      4  H   UNL     1       7.179  -3.662   0.310  0.00  0.00    +0.173 HD
ENDROOT
BRANCH   1  10
ATOM      5  C   UNL     1       3.561  -1.984   0.062  0.00  0.00    +0.141 A 
ATOM      6  C   UNL     1       2.349  -2.661   0.062  0.00  0.00    +0.047 A 
ATOM      7  C   UNL     1       2.326  -4.037   0.162  0.00  0.00    +0.004 A 
ATOM      8  C   UNL     1       3.508  -4.753   0.261  0.00  0.00    +0.001 A 
ATOM      9  C   UNL     1       4.720  -4.098   0.262  0.00  0.00    +0.017 A 
ATOM     10  C   UNL     1       4.759  -2.705   0.156  0.00  0.00    +0.080 A 
BRANCH   5  11
ATOM     11  O   UNL     1       3.586  -0.632  -0.036  0.00  0.00    -0.455 OA
BRANCH  11  15
ATOM     12  C   UNL     1      -0.012   1.385   0.070  0.00  0.00    +0.000 A 
ATOM     13  C   UNL     1       0.445   0.729   1.198  0.00  0.00    +0.004 A 
ATOM     14  C   UNL     1       1.649   0.053   1.166  0.00  0.00    +0.046 A 
ATOM     15  C   UNL     1       2.400   0.032  -0.001  0.00  0.00    +0.128 A 
ATOM     16  C   UNL     1       1.939   0.691  -1.132  0.00  0.00    +0.046 A 
ATOM     17  C   UNL     1       0.735   1.366  -1.093  0.00  0.00    +0.004 A 
ENDBRANCH  11  15
ENDBRANCH   5  11
ENDBRANCH   1  10
BRANCH   3  18
ATOM     18  N   UNL     1       8.432  -2.023   0.235  0.00  0.00    -0.218 N 
ATOM     19  C   UNL     1       9.582  -2.720   0.326  0.00  0.00    +0.316 C 
ATOM     20  O   UNL     1      10.649  -2.137   0.321  0.00  0.00    -0.251 OA
ATOM     21  N   UNL     1       9.549  -4.064   0.422  0.00  0.00    -0.298 N 
ATOM     22  H   UNL     1       8.456  -1.056   0.165  0.00  0.00    +0.174 HD
ATOM     23  H   UNL     1       8.698  -4.529   0.426  0.00  0.00    +0.150 HD
BRANCH  21  24
ATOM     24  C   UNL     1      10.799  -4.822   0.521  0.00  0.00    +0.109 C 
BRANCH  24  25
ATOM     25  C   UNL     1      10.483  -6.316   0.619  0.00  0.00    +0.006 C 
ATOM     26  C   UNL     1      10.884  -7.040   1.905  0.00  0.00    +0.005 C 
ATOM     27  C   UNL     1      11.663  -7.290   0.612  0.00  0.00    +0.005 C 
ENDBRANCH  24  25
ENDBRANCH  21  24
ENDBRANCH   3  18
TORSDOF 6
