REMARK  Name = ZINC19959825
REMARK  3 active torsions:
REMARK  status: ('A' for Active; 'I' for Inactive)
REMARK    1  A    between atoms: C_1  and  C_2
REMARK    2  A    between atoms: C_7  and  C_19
REMARK    3  A    between atoms: C_12  and  C_14
REMARK                            x       y       z     vdW  Elec       q    Type
REMARK                         _______ _______ _______ _____ _____    ______ ____
ROOT
ATOM      1  C   UNL     1       0.552   7.510   1.982  0.00  0.00    +0.008 C 
ATOM      2  C   UNL     1       0.129   6.070   1.685  0.00  0.00    -0.001 C 
ATOM      3  C   UNL     1       1.082   5.454   0.659  0.00  0.00    +0.055 C 
ATOM      4  C   UNL     1       0.639   4.046   0.338  0.00  0.00    +0.020 C 
ATOM      5  C   UNL     1      -0.667   3.707   0.367  0.00  0.00    +0.041 C 
ATOM      6  C   UNL     1      -1.144   2.313   0.020  0.00  0.00    +0.177 C 
ATOM      7  N   UNL     1      -0.017   1.390   0.010  0.00  0.00    -0.220 N 
ATOM      8  C   UNL     1       1.278   1.793  -0.001  0.00  0.00    +0.219 A 
ATOM      9  N   UNL     1       2.031   0.728  -0.019  0.00  0.00    -0.189 NA
ATOM     10  C   UNL     1       1.262  -0.365  -0.016  0.00  0.00    +0.256 A 
ATOM     11  N   UNL     1       0.002  -0.004   0.002  0.00  0.00    -0.143 NA
ATOM     12  N   UNL     1       1.617   3.136   0.014  0.00  0.00    -0.287 N 
ATOM     13  C   UNL     1      -1.649   4.650   0.722  0.00  0.00    +0.163 C 
ATOM     14  O   UNL     1      -2.818   4.317   0.726  0.00  0.00    -0.292 OA
ATOM     15  C   UNL     1      -1.286   6.059   1.095  0.00  0.00    +0.083 C 
ATOM     16  H   UNL     1       2.634   3.482  -0.225  0.00  0.00    +0.155 HD
ENDROOT
BRANCH   6  17
ATOM     17  C   UNL     1      -1.790   2.329  -1.341  0.00  0.00    -0.000 A 
ATOM     18  C   UNL     1      -1.057   2.708  -2.450  0.00  0.00    +0.007 A 
ATOM     19  C   UNL     1      -1.650   2.723  -3.699  0.00  0.00    +0.000 A 
ATOM     20  C   UNL     1      -2.976   2.358  -3.840  0.00  0.00    +0.001 A 
ATOM     21  C   UNL     1      -3.710   1.979  -2.732  0.00  0.00    +0.020 A 
ATOM     22  C   UNL     1      -3.116   1.959  -1.482  0.00  0.00    +0.046 A 
ATOM     23 CL   UNL     1      -4.035   1.476  -0.091  0.00  0.00    -0.083 Cl
ENDBRANCH   6  17
BRANCH  10  24
ATOM     24  C   UNL     1       1.763  -1.786  -0.033  0.00  0.00    +0.454 C 
ATOM     25  F   UNL     1       2.224  -2.103  -1.315  0.00  0.00    -0.163 F 
ATOM     26  F   UNL     1       2.809  -1.922   0.885  0.00  0.00    -0.163 F 
ATOM     27  F   UNL     1       0.721  -2.652   0.315  0.00  0.00    -0.163 F 
ENDBRANCH  10  24
TORSDOF 2
