REMARK  Name = ZINC17972435
REMARK  5 active torsions:
REMARK  status: ('A' for Active; 'I' for Inactive)
REMARK    1  A    between atoms: C_4  and  C_7
REMARK    2  A    between atoms: C_7  and  C_9
REMARK    3  A    between atoms: C_7  and  S_17
REMARK    4  A    between atoms: C_9  and  C_11
REMARK    5  A    between atoms: S_17  and  C_18
REMARK                            x       y       z     vdW  Elec       q    Type
REMARK                         _______ _______ _______ _____ _____    ______ ____
ROOT
ATOM      1  C   UNL     1      -1.330   1.944   0.019  0.00  0.00    +0.155 C 
ENDROOT
BRANCH   1   5
ATOM      2  C   UNL     1      -2.419   2.967  -3.983  0.00  0.00    +0.000 A 
ATOM      3  C   UNL     1      -2.239   3.962  -3.040  0.00  0.00    +0.000 A 
ATOM      4  C   UNL     1      -1.886   3.631  -1.745  0.00  0.00    +0.005 A 
ATOM      5  C   UNL     1      -1.714   2.305  -1.393  0.00  0.00    -0.027 A 
ATOM      6  C   UNL     1      -1.890   1.311  -2.337  0.00  0.00    +0.005 A 
ATOM      7  C   UNL     1      -2.247   1.642  -3.631  0.00  0.00    +0.000 A 
ENDBRANCH   1   5
BRANCH   1   8
ATOM      8  C   UNL     1      -0.014   1.208   0.009  0.00  0.00    +0.181 C 
ATOM      9  O   UNL     1       0.002  -0.004   0.002  0.00  0.00    -0.291 OA
BRANCH   8  10
ATOM     10  C   UNL     1       1.250   1.961   0.001  0.00  0.00    +0.019 A 
ATOM     11  C   UNL     1       1.235   3.360   0.003  0.00  0.00    +0.011 A 
ATOM     12  C   UNL     1       2.424   4.058   0.000  0.00  0.00    +0.001 A 
ATOM     13  C   UNL     1       3.630   3.379  -0.015  0.00  0.00    +0.000 A 
ATOM     14  C   UNL     1       3.653   1.995  -0.022  0.00  0.00    +0.001 A 
ATOM     15  C   UNL     1       2.473   1.282  -0.015  0.00  0.00    +0.011 A 
ENDBRANCH   8  10
ENDBRANCH   1   8
BRANCH   1  16
ATOM     16  S   UNL     1      -2.611   0.882   0.742  0.00  0.00    -0.068 S 
BRANCH  16  17
ATOM     17  C   UNL     1      -4.032   1.922   0.819  0.00  0.00    +0.211 A 
ATOM     18  N   UNL     1      -5.234   1.562   1.284  0.00  0.00    -0.188 NA
ATOM     19  C   UNL     1      -6.063   2.580   1.200  0.00  0.00    +0.209 A 
ATOM     20  N   UNL     1      -5.393   3.620   0.662  0.00  0.00    -0.246 N 
ATOM     21  H   UNL     1      -5.907   4.580   0.499  0.00  0.00    +0.192 HD
ATOM     22  N   UNL     1      -4.084   3.171   0.426  0.00  0.00    -0.144 NA
ATOM     23  N   UNL     1      -7.391   2.581   1.588  0.00  0.00    -0.328 N 
ATOM     24  H   UNL     1      -7.997   3.491   1.473  0.00  0.00    +0.145 HD
ATOM     25  H   UNL     1      -7.840   1.671   2.013  0.00  0.00    +0.145 HD
ENDBRANCH  16  17
ENDBRANCH   1  16
TORSDOF 5
