REMARK  Name = ZINC13832862
REMARK  11 active torsions:
REMARK  status: ('A' for Active; 'I' for Inactive)
REMARK    1  A    between atoms: C_1  and  C_2
REMARK    2  A    between atoms: C_2  and  C_3
REMARK    3  A    between atoms: C_3  and  N_4
REMARK    4  A    between atoms: N_4  and  C_5
REMARK    5  A    between atoms: N_4  and  C_22
REMARK    6  A    between atoms: C_5  and  C_6
REMARK    7  A    between atoms: C_9  and  C_12
REMARK    8  A    between atoms: C_17  and  C_18
REMARK    9  A    between atoms: C_23  and  N_27
REMARK   10  A    between atoms: N_27  and  S_28
REMARK   11  A    between atoms: S_28  and  C_31
REMARK                            x       y       z     vdW  Elec       q    Type
REMARK                         _______ _______ _______ _____ _____    ______ ____
ROOT
ATOM      1  N   UNL     1       5.944   7.349   0.876  0.00  0.00    -0.311 N 
ENDROOT
BRANCH   1   2
ATOM      2  C   UNL     1       7.022   8.218   0.727  0.00  0.00    +0.122 A 
ATOM      3  C   UNL     1       7.321   8.742  -0.534  0.00  0.00    +0.086 A 
ATOM      4  C   UNL     1       8.399   9.606  -0.665  0.00  0.00    +0.029 A 
ATOM      5  C   UNL     1       9.140   9.916   0.468  0.00  0.00    +0.019 A 
ATOM      6  C   UNL     1       8.786   9.361   1.681  0.00  0.00    +0.084 A 
ATOM      7  N   UNL     1       7.733   8.515   1.851  0.00  0.00    -0.348 N 
ATOM      8  H   UNL     1       7.490   8.125   2.769  0.00  0.00    +0.167 HD
BRANCH   3   9
ATOM      9  N   UNL     1       6.545   8.399  -1.648  0.00  0.00    -0.210 N 
ATOM     10  H   UNL     1       5.590   8.257  -1.549  0.00  0.00    +0.174 HD
BRANCH   9  11
ATOM     11  S   UNL     1       7.256   8.237  -3.135  0.00  0.00    +0.141 S 
ATOM     12  O   UNL     1       6.188   7.915  -4.015  0.00  0.00    -0.147 OA
ATOM     13  O   UNL     1       8.005   9.432  -3.311  0.00  0.00    -0.147 OA
BRANCH  11  14
ATOM     14  C   UNL     1       8.374   6.819  -2.964  0.00  0.00    +0.538 C 
ATOM     15  F   UNL     1       7.637   5.682  -2.617  0.00  0.00    -0.149 F 
ATOM     16  F   UNL     1       9.032   6.595  -4.178  0.00  0.00    -0.149 F 
ATOM     17  F   UNL     1       9.317   7.086  -1.966  0.00  0.00    -0.149 F 
ENDBRANCH  11  14
ENDBRANCH   9  11
ENDBRANCH   3   9
ENDBRANCH   1   2
BRANCH   1  18
ATOM     18  C   UNL     1       5.806   6.918   2.274  0.00  0.00    +0.106 C 
BRANCH  18  20
ATOM     19  C   UNL     1       5.285   7.670   4.599  0.00  0.00    +0.005 C 
ATOM     20  C   UNL     1       5.429   8.119   3.143  0.00  0.00    +0.016 C 
ENDBRANCH  18  20
ENDBRANCH   1  18
BRANCH   1  21
ATOM     21  C   UNL     1       6.071   6.193  -0.021  0.00  0.00    +0.141 C 
BRANCH  21  22
ATOM     22  C   UNL     1       4.785   5.408  -0.014  0.00  0.00    -0.030 A 
ATOM     23  C   UNL     1       3.787   5.712  -0.922  0.00  0.00    +0.006 A 
ATOM     24  C   UNL     1       2.607   4.997  -0.920  0.00  0.00    +0.009 A 
ATOM     25  C   UNL     1       2.421   3.966   0.000  0.00  0.00    -0.017 A 
ATOM     26  C   UNL     1       3.428   3.668   0.917  0.00  0.00    +0.009 A 
ATOM     27  C   UNL     1       4.606   4.386   0.902  0.00  0.00    +0.006 A 
BRANCH  25  28
ATOM     28  C   UNL     1       1.156   3.194   0.008  0.00  0.00    -0.007 A 
ATOM     29  C   UNL     1      -0.069   3.857   0.022  0.00  0.00    +0.009 A 
ATOM     30  C   UNL     1      -1.245   3.134   0.029  0.00  0.00    +0.001 A 
ATOM     31  C   UNL     1      -1.217   1.750   0.017  0.00  0.00    +0.001 A 
ATOM     32  C   UNL     1      -0.013   1.076   0.008  0.00  0.00    +0.012 A 
ATOM     33  C   UNL     1       1.185   1.789   0.000  0.00  0.00    +0.030 A 
BRANCH  33  34
ATOM     34  C   UNL     1       2.478   1.072  -0.015  0.00  0.00    +0.207 A 
ATOM     35  N   UNL     1       4.047  -0.462  -0.036  0.00  0.00    -0.021 NA
ATOM     36  N   UNL     1       4.584   0.710  -0.035  0.00  0.00    -0.021 NA
ATOM     37  N   UNL     1       3.676   1.619  -0.023  0.00  0.00    -0.106 NA
ATOM     38  N   UNL     1       2.674  -0.253  -0.018  0.00  0.00    -0.106 NA
ENDBRANCH  33  34
ENDBRANCH  25  28
ENDBRANCH  21  22
ENDBRANCH   1  21
TORSDOF 10
