REMARK  Name = ZINC63720158
REMARK  7 active torsions:
REMARK  status: ('A' for Active; 'I' for Inactive)
REMARK    1  A    between atoms: C_4  and  C_7
REMARK    2  A    between atoms: C_7  and  S_8
REMARK    3  A    between atoms: S_8  and  C_9
REMARK    4  A    between atoms: C_13  and  C_16
REMARK    5  A    between atoms: C_16  and  C_18
REMARK    6  A    between atoms: C_16  and  N_28
REMARK    7  A    between atoms: C_18  and  C_19
REMARK                            x       y       z     vdW  Elec       q    Type
REMARK                         _______ _______ _______ _____ _____    ______ ____
ROOT
ATOM      1  C   UNL     1       6.567  -3.763  -1.442  0.00  0.00    -0.017 C 
ENDROOT
BRANCH   1   5
ATOM      2  C   UNL     1       5.831  -1.891   1.472  0.00  0.00    +0.319 C 
ATOM      3  N   UNL     1       6.769  -1.089   0.675  0.00  0.00    -0.146 NA
ATOM      4  N   UNL     1       7.332  -1.803  -0.165  0.00  0.00    -0.159 NA
ATOM      5  C   UNL     1       6.853  -3.187  -0.053  0.00  0.00    +0.246 C 
ATOM      6  O   UNL     1       5.635  -3.107   0.719  0.00  0.00    -0.320 OA
BRANCH   2   7
ATOM      7  S   UNL     1       4.257  -1.011   1.666  0.00  0.00    -0.100 S 
BRANCH   7   8
ATOM      8  C   UNL     1       3.711  -0.707  -0.038  0.00  0.00    +0.108 C 
BRANCH   8  12
ATOM      9  C   UNL     1      -0.017   1.378   0.010  0.00  0.00    +0.000 A 
ATOM     10  C   UNL     1       1.171   2.086   0.002  0.00  0.00    +0.000 A 
ATOM     11  C   UNL     1       2.377   1.411  -0.013  0.00  0.00    +0.004 A 
ATOM     12  C   UNL     1       2.396   0.029  -0.020  0.00  0.00    -0.037 A 
ATOM     13  C   UNL     1       1.208  -0.679  -0.012  0.00  0.00    +0.004 A 
ATOM     14  C   UNL     1       0.002  -0.004   0.002  0.00  0.00    +0.000 A 
ENDBRANCH   8  12
ENDBRANCH   7   8
ENDBRANCH   2   7
ENDBRANCH   1   5
BRANCH   1  15
ATOM     15  N   UNL     1       5.564  -2.932  -2.120  0.00  0.00    +0.383 N 
ATOM     16  H   UNL     1       5.914  -1.990  -2.212  0.00  0.00    -0.089 HD
ATOM     17  H   UNL     1       5.375  -3.312  -3.035  0.00  0.00    -0.089 HD
ATOM     18  H   UNL     1       4.713  -2.922  -1.578  0.00  0.00    -0.089 HD
ENDBRANCH   1  15
BRANCH   1  19
ATOM     19  C   UNL     1       7.857  -3.778  -2.263  0.00  0.00    +0.021 C 
BRANCH  19  20
ATOM     20  C   UNL     1       7.604  -4.457  -3.585  0.00  0.00    -0.043 C 
ATOM     21  C   UNL     1       7.295  -3.861  -4.759  0.00  0.00    -0.001 A 
ATOM     22  C   UNL     1       7.109  -2.457  -5.143  0.00  0.00    +0.010 A 
ATOM     23  C   UNL     1       6.797  -2.163  -6.426  0.00  0.00    +0.001 A 
ATOM     24  C   UNL     1       6.646  -3.164  -7.395  0.00  0.00    +0.002 A 
ATOM     25  C   UNL     1       6.801  -4.476  -7.119  0.00  0.00    +0.026 A 
ATOM     26  C   UNL     1       7.131  -4.899  -5.802  0.00  0.00    +0.043 A 
ATOM     27  N   UNL     1       7.330  -6.090  -5.292  0.00  0.00    -0.380 N 
ATOM     28  C   UNL     1       7.650  -5.942  -3.867  0.00  0.00    +0.144 C 
ATOM     29  H   UNL     1       7.279  -6.929  -5.776  0.00  0.00    +0.160 HD
ENDBRANCH  19  20
ENDBRANCH   1  19
TORSDOF 7
