REMARK  Name = ZINC59402845
REMARK  3 active torsions:
REMARK  status: ('A' for Active; 'I' for Inactive)
REMARK    1  A    between atoms: C_3  and  C_14
REMARK    2  A    between atoms: C_5  and  C_6
REMARK    3  A    between atoms: N_16  and  C_17
REMARK                            x       y       z     vdW  Elec       q    Type
REMARK                         _______ _______ _______ _____ _____    ______ ____
ROOT
ATOM      1  C   UNL     1      -0.017   1.381   0.010  0.00  0.00    +0.017 A 
ATOM      2  C   UNL     1       1.172   2.055   0.002  0.00  0.00    +0.021 A 
ATOM      3  C   UNL     1       2.352   1.325  -0.013  0.00  0.00    +0.075 A 
ATOM      4  S   UNL     1       1.752  -0.357  -0.017  0.00  0.00    -0.084 S 
ATOM      5  C   UNL     1       0.002  -0.004   0.002  0.00  0.00    +0.020 A 
ENDROOT
BRANCH   5   6
ATOM      6  C   UNL     1      -1.135  -0.948   0.009  0.00  0.00    -0.009 A 
ATOM      7  C   UNL     1      -2.445  -0.467   0.019  0.00  0.00    +0.029 A 
ATOM      8  C   UNL     1      -3.504  -1.353   0.025  0.00  0.00    +0.043 A 
ATOM      9  C   UNL     1      -3.267  -2.717   0.021  0.00  0.00    +0.040 A 
ATOM     10  C   UNL     1      -1.970  -3.201   0.011  0.00  0.00    +0.043 A 
ATOM     11  C   UNL     1      -0.903  -2.324  -0.001  0.00  0.00    +0.029 A 
ATOM     12 CL   UNL     1      -1.684  -4.913   0.006  0.00  0.00    -0.083 Cl
ATOM     13 CL   UNL     1      -5.134  -0.756   0.038  0.00  0.00    -0.083 Cl
ENDBRANCH   5   6
BRANCH   3  14
ATOM     14  C   UNL     1       3.734   1.809  -0.024  0.00  0.00    +0.255 C 
ATOM     15  O   UNL     1       3.960   3.005  -0.020  0.00  0.00    -0.269 OA
ATOM     16  N   UNL     1       4.756   0.930  -0.038  0.00  0.00    -0.279 N 
ATOM     17  H   UNL     1       4.576  -0.023  -0.042  0.00  0.00    +0.155 HD
BRANCH  16  18
ATOM     18  C   UNL     1       6.084   1.395  -0.049  0.00  0.00    +0.071 A 
ATOM     19  C   UNL     1       7.201   0.624  -0.069  0.00  0.00    +0.128 A 
ATOM     20  N   UNL     1       8.274   1.457  -0.072  0.00  0.00    -0.283 N 
ATOM     21  H   UNL     1       9.206   1.188  -0.086  0.00  0.00    +0.188 HD
ATOM     22  N   UNL     1       7.797   2.774  -0.054  0.00  0.00    -0.180 NA
ATOM     23  C   UNL     1       6.489   2.738  -0.046  0.00  0.00    +0.157 A 
ENDBRANCH  16  18
ENDBRANCH   3  14
TORSDOF 3
