REMARK  Name = ZINC20767972
REMARK  6 active torsions:
REMARK  status: ('A' for Active; 'I' for Inactive)
REMARK    1  A    between atoms: C_6  and  C_7
REMARK    2  A    between atoms: C_7  and  S_8
REMARK    3  A    between atoms: S_8  and  C_11
REMARK    4  A    between atoms: C_11  and  C_12
REMARK    5  A    between atoms: C_19  and  C_24
REMARK    6  A    between atoms: N_29  and  C_32
REMARK                            x       y       z     vdW  Elec       q    Type
REMARK                         _______ _______ _______ _____ _____    ______ ____
ROOT
ATOM      1  C   UNL     1       1.065   6.432   2.578  0.00  0.00    +0.178 C 
ATOM      2  C   UNL     1       1.063   7.857   2.084  0.00  0.00    +0.239 C 
ATOM      3  O   UNL     1       2.108   8.381   1.759  0.00  0.00    -0.273 OA
ATOM      4  N   UNL     1      -0.086   8.553   2.001  0.00  0.00    -0.282 N 
ATOM      5  C   UNL     1      -1.282   8.022   2.499  0.00  0.00    +0.055 A 
ATOM      6  C   UNL     1      -2.488   8.639   2.228  0.00  0.00    +0.038 A 
ATOM      7  C   UNL     1      -3.675   8.092   2.726  0.00  0.00    +0.039 A 
ATOM      8  C   UNL     1      -3.639   6.925   3.495  0.00  0.00    +0.015 A 
ATOM      9  C   UNL     1      -2.433   6.315   3.766  0.00  0.00    +0.025 A 
ATOM     10  C   UNL     1      -1.255   6.859   3.275  0.00  0.00    +0.049 A 
ATOM     11  N   UNL     1      -0.023   6.260   3.552  0.00  0.00    -0.330 N 
ATOM     12  H   UNL     1      -0.092   9.550   1.537  0.00  0.00    +0.155 HD
ATOM     13  H   UNL     1       0.146   5.673   4.467  0.00  0.00    +0.147 HD
ENDROOT
BRANCH   7  14
ATOM     14  C   UNL     1      -4.965   8.747   2.440  0.00  0.00    +0.247 C 
ATOM     15  O   UNL     1      -5.898   8.093   2.015  0.00  0.00    -0.270 OA
ATOM     16  N   UNL     1      -5.110  10.070   2.651  0.00  0.00    -0.301 N 
ATOM     17  C   UNL     1      -6.409  10.729   2.446  0.00  0.00    +0.089 C 
ATOM     18  C   UNL     1      -6.741  11.543   3.707  0.00  0.00    -0.059 C 
ATOM     19  N   UNL     1      -5.625  12.450   4.006  0.00  0.00    +0.384 N 
ATOM     20  C   UNL     1      -4.399  11.703   4.316  0.00  0.00    -0.059 C 
ATOM     21  C   UNL     1      -3.973  10.895   3.085  0.00  0.00    +0.089 C 
ATOM     22  H   UNL     1      -5.432  13.051   3.105  0.00  0.00    -0.081 HD
BRANCH  19  23
ATOM     23  C   UNL     1      -5.972  13.369   5.098  0.00  0.00    -0.068 C 
ATOM     24  C   UNL     1      -6.317  12.564   6.352  0.00  0.00    -0.015 C 
ATOM     25  C   UNL     1      -6.678  13.521   7.490  0.00  0.00    -0.002 C 
ATOM     26  C   UNL     1      -7.884  14.368   7.080  0.00  0.00    -0.000 C 
ATOM     27  C   UNL     1      -7.539  15.174   5.826  0.00  0.00    -0.002 C 
ATOM     28  C   UNL     1      -7.178  14.216   4.689  0.00  0.00    -0.015 C 
ENDBRANCH  19  23
ENDBRANCH   7  14
BRANCH   1  29
ATOM     29  C   UNL     1       0.851   5.482   1.399  0.00  0.00    +0.198 C 
BRANCH  29  30
ATOM     30  S   UNL     1       0.847   3.769   1.996  0.00  0.00    -0.025 S 
ATOM     31  O   UNL     1      -0.282   3.589   2.839  0.00  0.00    -0.174 OA
ATOM     32  O   UNL     1       2.141   3.465   2.499  0.00  0.00    -0.174 OA
BRANCH  30  33
ATOM     33  C   UNL     1       0.585   2.815   0.475  0.00  0.00    +0.201 C 
BRANCH  33  39
ATOM     34  C   UNL     1      -0.641   0.731   1.120  0.00  0.00    +0.008 A 
ATOM     35  C   UNL     1      -0.669  -0.618   1.420  0.00  0.00    +0.038 A 
ATOM     36  C   UNL     1       0.503  -1.355   1.404  0.00  0.00    +0.123 A 
ATOM     37  C   UNL     1       1.702  -0.739   1.087  0.00  0.00    +0.038 A 
ATOM     38  C   UNL     1       1.727   0.610   0.787  0.00  0.00    +0.008 A 
ATOM     39  C   UNL     1       0.556   1.344   0.803  0.00  0.00    -0.026 A 
ATOM     40  F   UNL     1       0.477  -2.673   1.698  0.00  0.00    -0.205 F 
ENDBRANCH  33  39
ENDBRANCH  30  33
ENDBRANCH  29  30
ENDBRANCH   1  29
TORSDOF 6
