REMARK  Name = ZINC45829543
REMARK  6 active torsions:
REMARK  status: ('A' for Active; 'I' for Inactive)
REMARK    1  A    between atoms: C_8  and  C_12
REMARK    2  A    between atoms: N_14  and  N_15
REMARK    3  A    between atoms: C_16  and  C_18
REMARK    4  A    between atoms: C_21  and  C_24
REMARK    5  A    between atoms: C_24  and  S_25
REMARK    6  A    between atoms: S_25  and  C_26
REMARK                            x       y       z     vdW  Elec       q    Type
REMARK                         _______ _______ _______ _____ _____    ______ ____
ROOT
ATOM      1  N   UNL     1       3.826  -6.266  -0.240  0.00  0.00    -0.230 N 
ATOM      2  C   UNL     1       4.942  -6.950  -0.559  0.00  0.00    +0.260 C 
ATOM      3  O   UNL     1       5.882  -6.375  -1.073  0.00  0.00    -0.269 OA
ATOM      4  H   UNL     1       3.077  -6.725   0.171  0.00  0.00    +0.173 HD
ENDROOT
BRANCH   2   5
ATOM      5  C   UNL     1       5.025  -8.400  -0.283  0.00  0.00    +0.038 A 
ATOM      6  C   UNL     1       3.946  -9.065   0.302  0.00  0.00    +0.013 A 
ATOM      7  C   UNL     1       4.029 -10.418   0.556  0.00  0.00    +0.005 A 
ATOM      8  C   UNL     1       5.179 -11.117   0.233  0.00  0.00    -0.037 A 
ATOM      9  C   UNL     1       6.252 -10.464  -0.347  0.00  0.00    +0.005 A 
ATOM     10  C   UNL     1       6.179  -9.112  -0.612  0.00  0.00    +0.013 A 
BRANCH   8  11
ATOM     11  C   UNL     1       5.263 -12.595   0.514  0.00  0.00    +0.112 C 
BRANCH  11  12
ATOM     12  S   UNL     1       4.658 -13.519  -0.925  0.00  0.00    -0.083 S 
BRANCH  12  13
ATOM     13  C   UNL     1       4.819 -15.207  -0.446  0.00  0.00    +0.168 A 
ATOM     14  N   UNL     1       4.486 -16.280  -1.224  0.00  0.00    -0.333 N 
ATOM     15  H   UNL     1       4.126 -16.248  -2.124  0.00  0.00    +0.168 HD
ATOM     16  C   UNL     1       4.760 -17.421  -0.489  0.00  0.00    +0.067 A 
ATOM     17  C   UNL     1       4.633 -18.779  -0.739  0.00  0.00    +0.028 A 
ATOM     18  C   UNL     1       5.002 -19.693   0.227  0.00  0.00    +0.002 A 
ATOM     19  C   UNL     1       5.500 -19.262   1.447  0.00  0.00    +0.002 A 
ATOM     20  C   UNL     1       5.633 -17.918   1.713  0.00  0.00    +0.030 A 
ATOM     21  C   UNL     1       5.263 -16.980   0.746  0.00  0.00    +0.090 A 
ATOM     22  N   UNL     1       5.280 -15.622   0.709  0.00  0.00    -0.222 NA
ENDBRANCH  12  13
ENDBRANCH  11  12
ENDBRANCH   8  11
ENDBRANCH   2   5
BRANCH   1  25
ATOM     23  C   UNL     1       2.632  -4.207  -0.182  0.00  0.00    +0.236 C 
ATOM     24  O   UNL     1       1.695  -4.781   0.332  0.00  0.00    -0.274 OA
ATOM     25  N   UNL     1       3.748  -4.892  -0.501  0.00  0.00    -0.234 N 
ATOM     26  H   UNL     1       4.497  -4.433  -0.911  0.00  0.00    +0.173 HD
BRANCH  23  34
ATOM     27  C   UNL     1      -0.017   1.377   0.010  0.00  0.00    +0.000 A 
ATOM     28  C   UNL     1       1.172   2.084   0.002  0.00  0.00    +0.004 A 
ATOM     29  C   UNL     1       2.375   1.409  -0.015  0.00  0.00    +0.046 A 
ATOM     30  C   UNL     1       2.398   0.018  -0.024  0.00  0.00    +0.124 A 
ATOM     31  C   UNL     1       1.207  -0.687  -0.012  0.00  0.00    -0.005 A 
ATOM     32  C   UNL     1       0.002  -0.004   0.002  0.00  0.00    +0.007 A 
ATOM     33  C   UNL     1       1.187  -2.194  -0.010  0.00  0.00    +0.055 C 
ATOM     34  C   UNL     1       2.548  -2.729  -0.463  0.00  0.00    +0.118 C 
ATOM     35  C   UNL     1       3.641  -1.990   0.320  0.00  0.00    +0.242 C 
ATOM     36  O   UNL     1       3.602  -0.610  -0.046  0.00  0.00    -0.491 OA
ENDBRANCH  23  34
ENDBRANCH   1  25
TORSDOF 6
