REMARK  Name = ZINC43218274
REMARK  12 active torsions:
REMARK  status: ('A' for Active; 'I' for Inactive)
REMARK    1  A    between atoms: C_1  and  O_2
REMARK    2  A    between atoms: O_2  and  C_3
REMARK    3  A    between atoms: C_3  and  C_5
REMARK    4  A    between atoms: C_8  and  C_11
REMARK    5  A    between atoms: N_19  and  C_22
REMARK    6  A    between atoms: C_22  and  C_23
REMARK    7  A    between atoms: C_26  and  N_28
REMARK    8  A    between atoms: C_31  and  C_33
REMARK    9  A    between atoms: C_31  and  C_37
REMARK   10  A    between atoms: C_33  and  C_34
REMARK   11  A    between atoms: C_34  and  S_35
REMARK   12  A    between atoms: S_35  and  C_36
REMARK                            x       y       z     vdW  Elec       q    Type
REMARK                         _______ _______ _______ _____ _____    ______ ____
ROOT
ATOM      1  C   UNL     1      -1.413  -6.381  -0.019  0.00  0.00    -0.027 C 
ATOM      2  C   UNL     1      -1.837  -6.884  -1.389  0.00  0.00    +0.077 C 
ATOM      3  C   UNL     1      -3.399  -6.802  -1.194  0.00  0.00    +0.086 C 
ATOM      4  C   UNL     1      -3.869  -6.884  -2.554  0.00  0.00    +0.225 C 
ATOM      5  O   UNL     1      -4.887  -7.408  -2.953  0.00  0.00    -0.275 OA
ATOM      6  N   UNL     1      -2.913  -6.240  -3.301  0.00  0.00    -0.234 N 
ATOM      7  C   UNL     1      -1.749  -6.012  -2.603  0.00  0.00    +0.225 C 
ATOM      8  O   UNL     1      -0.843  -5.263  -2.899  0.00  0.00    -0.275 OA
ATOM      9  C   UNL     1      -3.580  -7.470   0.106  0.00  0.00    +0.049 C 
ATOM     10  N   UNL     1      -2.463  -6.862   0.929  0.00  0.00    +0.395 N 
ATOM     11  H   UNL     1      -2.075  -7.564   1.542  0.00  0.00    -0.083 HD
ATOM     12  H   UNL     1      -2.812  -6.088   1.474  0.00  0.00    -0.083 HD
ENDROOT
BRANCH   1  16
ATOM     13  C   UNL     1      -1.247  -2.108   0.003  0.00  0.00    +0.059 A 
ATOM     14  C   UNL     1      -2.462  -2.764   0.213  0.00  0.00    +0.015 A 
ATOM     15  C   UNL     1      -2.508  -4.142   0.205  0.00  0.00    +0.003 A 
ATOM     16  C   UNL     1      -1.354  -4.875  -0.011  0.00  0.00    -0.061 A 
ATOM     17  C   UNL     1      -0.147  -4.232  -0.220  0.00  0.00    +0.003 A 
ATOM     18  C   UNL     1      -0.088  -2.854  -0.221  0.00  0.00    +0.015 A 
BRANCH  13  19
ATOM     19  C   UNL     1      -1.190  -0.632   0.010  0.00  0.00    +0.339 C 
ATOM     20  O   UNL     1      -0.133  -0.064  -0.178  0.00  0.00    -0.245 OA
BRANCH  19  22
ATOM     21  C   UNL     1      -2.181   1.508   0.219  0.00  0.00    +0.280 C 
ATOM     22  O   UNL     1      -2.310   0.085   0.226  0.00  0.00    -0.464 OA
ENDBRANCH  19  22
ENDBRANCH  13  19
ENDBRANCH   1  16
BRANCH   9  23
ATOM     23  C   UNL     1      -3.417  -8.962  -0.032  0.00  0.00    +0.346 C 
ATOM     24  O   UNL     1      -2.547  -9.541   0.597  0.00  0.00    -0.248 OA
ATOM     25  O   UNL     1      -4.155  -9.590  -0.771  0.00  0.00    -0.248 OA
ENDBRANCH   9  23
BRANCH   6  26
ATOM     26  C   UNL     1      -3.106  -5.845  -4.699  0.00  0.00    +0.190 C 
BRANCH  26  27
ATOM     27  C   UNL     1      -3.686  -4.455  -4.753  0.00  0.00    +0.126 A 
ATOM     28  C   UNL     1      -2.981  -3.311  -4.807  0.00  0.00    +0.049 A 
ATOM     29  C   UNL     1      -3.919  -2.253  -4.844  0.00  0.00    +0.076 A 
ATOM     30  C   UNL     1      -5.141  -2.815  -4.811  0.00  0.00    +0.280 A 
ATOM     31  O   UNL     1      -4.993  -4.149  -4.762  0.00  0.00    -0.437 OA
BRANCH  30  32
ATOM     32  N   UNL     1      -6.430  -2.087  -4.832  0.00  0.00    +0.093 N 
ATOM     33  O   UNL     1      -6.441  -0.879  -4.883  0.00  0.00    -0.123 OA
ATOM     34  O   UNL     1      -7.471  -2.700  -4.798  0.00  0.00    -0.123 OA
ENDBRANCH  30  32
ENDBRANCH  26  27
ENDBRANCH   6  26
BRANCH   9  35
ATOM     35  C   UNL     1      -4.942  -7.124   0.711  0.00  0.00    +0.010 C 
BRANCH  35  36
ATOM     36  C   UNL     1      -5.047  -7.731   2.111  0.00  0.00    +0.068 C 
BRANCH  36  37
ATOM     37  S   UNL     1      -6.662  -7.320   2.829  0.00  0.00    -0.164 S 
ATOM     38  C   UNL     1      -6.627  -8.102   4.465  0.00  0.00    +0.084 C 
ENDBRANCH  36  37
ENDBRANCH  35  36
ENDBRANCH   9  35
TORSDOF 10
