REMARK  Name = ZINC64626062
REMARK  7 active torsions:
REMARK  status: ('A' for Active; 'I' for Inactive)
REMARK    1  A    between atoms: C_1  and  C_2
REMARK    2  A    between atoms: C_2  and  C_3
REMARK    3  A    between atoms: C_3  and  C_5
REMARK    4  A    between atoms: C_3  and  C_6
REMARK    5  A    between atoms: C_11  and  C_14
REMARK    6  A    between atoms: N_16  and  C_17
REMARK    7  A    between atoms: C_20  and  C_23
REMARK                            x       y       z     vdW  Elec       q    Type
REMARK                         _______ _______ _______ _____ _____    ______ ____
ROOT
ATOM      1  C   UNL     1      -6.033  -4.183   2.046  0.00  0.00    +0.220 C 
ATOM      2  O   UNL     1      -6.593  -3.290   2.647  0.00  0.00    -0.275 OA
ATOM      3  N   UNL     1      -6.317  -5.469   2.332  0.00  0.00    -0.285 N 
ATOM      4  H   UNL     1      -5.916  -6.182   1.810  0.00  0.00    +0.155 HD
ENDROOT
BRANCH   1  10
ATOM      5  C   UNL     1      -1.457  -2.018   0.081  0.00  0.00    +0.218 C 
ATOM      6  O   UNL     1      -0.412  -2.614   0.236  0.00  0.00    -0.275 OA
ATOM      7  N   UNL     1      -2.620  -2.699   0.030  0.00  0.00    -0.301 N 
ATOM      8  C   UNL     1      -3.882  -2.003  -0.253  0.00  0.00    +0.108 C 
ATOM      9  C   UNL     1      -4.887  -2.334   0.855  0.00  0.00    +0.032 C 
ATOM     10  C   UNL     1      -5.021  -3.854   0.980  0.00  0.00    +0.078 C 
ATOM     11  C   UNL     1      -3.666  -4.457   1.359  0.00  0.00    +0.032 C 
ATOM     12  C   UNL     1      -2.647  -4.151   0.251  0.00  0.00    +0.108 C 
BRANCH   5  13
ATOM     13  C   UNL     1      -1.456  -0.517  -0.056  0.00  0.00    +0.072 C 
ATOM     14  C   UNL     1      -0.184  -0.072  -0.780  0.00  0.00    +0.017 C 
BRANCH  13  16
ATOM     15  C   UNL     1      -1.627   1.640   1.193  0.00  0.00    +0.004 C 
ATOM     16  C   UNL     1      -1.502   0.121   1.333  0.00  0.00    +0.009 C 
ENDBRANCH  13  16
ENDBRANCH   5  13
ENDBRANCH   1  10
BRANCH   3  17
ATOM     17  C   UNL     1      -7.190  -5.777   3.381  0.00  0.00    +0.033 A 
ATOM     18  C   UNL     1      -6.971  -6.905   4.161  0.00  0.00    +0.023 A 
ATOM     19  C   UNL     1      -7.835  -7.205   5.196  0.00  0.00    +0.008 A 
ATOM     20  C   UNL     1      -8.917  -6.384   5.456  0.00  0.00    -0.021 A 
ATOM     21  C   UNL     1      -9.138  -5.261   4.681  0.00  0.00    +0.008 A 
ATOM     22  C   UNL     1      -8.274  -4.951   3.649  0.00  0.00    +0.023 A 
BRANCH  20  23
ATOM     23  C   UNL     1      -9.857  -6.715   6.586  0.00  0.00    +0.133 C 
ATOM     24  C   UNL     1      -9.570  -5.832   7.779  0.00  0.00    +0.012 C 
ATOM     25  C   UNL     1     -10.703  -5.128   8.006  0.00  0.00    -0.004 A 
ATOM     26  C   UNL     1     -11.061  -4.117   9.008  0.00  0.00    +0.010 A 
ATOM     27  C   UNL     1     -12.302  -3.580   8.982  0.00  0.00    +0.001 A 
ATOM     28  C   UNL     1     -13.252  -3.965   8.026  0.00  0.00    +0.002 A 
ATOM     29  C   UNL     1     -12.997  -4.887   7.074  0.00  0.00    +0.026 A 
ATOM     30  C   UNL     1     -11.724  -5.517   7.007  0.00  0.00    +0.043 A 
ATOM     31  N   UNL     1     -11.241  -6.427   6.194  0.00  0.00    -0.374 N 
ATOM     32  H   UNL     1     -11.718  -6.839   5.457  0.00  0.00    +0.161 HD
ENDBRANCH  20  23
ENDBRANCH   3  17
TORSDOF 5
