REMARK  Name = ZINC04155224
REMARK  8 active torsions:
REMARK  status: ('A' for Active; 'I' for Inactive)
REMARK    1  A    between atoms: C_1  and  C_2
REMARK    2  A    between atoms: C_2  and  C_3
REMARK    3  A    between atoms: C_2  and  C_4
REMARK    4  A    between atoms: C_2  and  C_5
REMARK    5  A    between atoms: C_12  and  N_16
REMARK    6  A    between atoms: C_13  and  C_14
REMARK    7  A    between atoms: C_17  and  C_19
REMARK    8  A    between atoms: C_25  and  C_27
REMARK                            x       y       z     vdW  Elec       q    Type
REMARK                         _______ _______ _______ _____ _____    ______ ____
ROOT
ATOM      1  C   UNL     1       9.807  -9.968  -5.683  0.00  0.00    -0.000 C 
ATOM      2  C   UNL     1      11.240  -9.802  -5.168  0.00  0.00    +0.009 C 
ATOM      3  C   UNL     1      11.946  -8.687  -5.941  0.00  0.00    +0.037 C 
ATOM      4  C   UNL     1      11.074  -7.441  -5.904  0.00  0.00    -0.018 A 
ATOM      5  C   UNL     1       9.760  -7.512  -5.595  0.00  0.00    -0.004 A 
ATOM      6  S   UNL     1       9.188  -5.840  -5.682  0.00  0.00    -0.077 S 
ATOM      7  C   UNL     1      10.618  -5.070  -6.110  0.00  0.00    +0.090 A 
ATOM      8  C   UNL     1      11.545  -6.097  -6.188  0.00  0.00    +0.084 A 
ATOM      9  C   UNL     1       8.979  -8.746  -5.261  0.00  0.00    +0.047 C 
ENDROOT
BRANCH   1  11
ATOM     10  C   UNL     1       7.758 -11.396  -5.598  0.00  0.00    +0.011 C 
ATOM     11  C   UNL     1       9.191 -11.235  -5.087  0.00  0.00    -0.035 C 
ATOM     12  C   UNL     1       9.178 -11.126  -3.561  0.00  0.00    +0.011 C 
ATOM     13  C   UNL     1      10.021 -12.451  -5.504  0.00  0.00    +0.011 C 
ENDBRANCH   1  11
BRANCH   7  14
ATOM     14  N   UNL     1      10.823  -3.716  -6.335  0.00  0.00    -0.279 N 
ATOM     15  C   UNL     1       9.798  -2.850  -6.214  0.00  0.00    +0.222 C 
ATOM     16  O   UNL     1       8.696  -3.253  -5.908  0.00  0.00    -0.275 OA
ATOM     17  H   UNL     1      11.705  -3.393  -6.579  0.00  0.00    +0.155 HD
BRANCH  15  18
ATOM     18  C   UNL     1      10.021  -1.379  -6.458  0.00  0.00    +0.093 C 
ATOM     19  C   UNL     1       9.620  -1.029  -7.892  0.00  0.00    +0.040 C 
ATOM     20  C   UNL     1       9.584   0.460  -8.070  0.00  0.00    -0.030 C 
ATOM     21  C   UNL     1       9.539   1.307  -7.092  0.00  0.00    -0.030 C 
ATOM     22  C   UNL     1       9.527   0.917  -5.643  0.00  0.00    +0.042 C 
ATOM     23  C   UNL     1       9.155  -0.559  -5.493  0.00  0.00    +0.118 C 
BRANCH  23  24
ATOM     24  C   UNL     1       9.409  -1.009  -4.077  0.00  0.00    +0.360 C 
ATOM     25  O   UNL     1      10.542  -0.998  -3.628  0.00  0.00    -0.246 OA
ATOM     26  O   UNL     1       8.480  -1.384  -3.381  0.00  0.00    -0.246 OA
ENDBRANCH  23  24
ENDBRANCH  15  18
ENDBRANCH   7  14
BRANCH   8  27
ATOM     27  C   UNL     1      12.911  -5.843  -6.533  0.00  0.00    +0.102 C 
ATOM     28  N   UNL     1      13.995  -5.641  -6.807  0.00  0.00    -0.191 NA
ENDBRANCH   8  27
TORSDOF 5
