REMARK  Name = ZINC21578632
REMARK  6 active torsions:
REMARK  status: ('A' for Active; 'I' for Inactive)
REMARK    1  A    between atoms: C_1  and  C_2
REMARK    2  A    between atoms: C_2  and  C_4
REMARK    3  A    between atoms: C_2  and  N_21
REMARK    4  A    between atoms: C_15  and  C_17
REMARK    5  A    between atoms: N_24  and  C_27
REMARK    6  A    between atoms: C_30  and  O_33
REMARK                            x       y       z     vdW  Elec       q    Type
REMARK                         _______ _______ _______ _____ _____    ______ ____
ROOT
ATOM      1  C   UNL     1      -0.026   0.010   0.362  0.00  0.00    +0.206 C 
ATOM      2  O   UNL     1       1.068  -0.466   0.144  0.00  0.00    -0.277 OA
ATOM      3  N   UNL     1      -0.132   1.272   0.825  0.00  0.00    -0.262 N 
ATOM      4  C   UNL     1      -1.446   1.913   0.984  0.00  0.00    +0.209 C 
ATOM      5  C   UNL     1      -1.363   3.337   0.506  0.00  0.00    +0.235 C 
ATOM      6  O   UNL     1      -2.352   3.875   0.054  0.00  0.00    -0.274 OA
ATOM      7  N   UNL     1      -0.204   4.020   0.570  0.00  0.00    -0.283 N 
ATOM      8  C   UNL     1       0.962   3.407   1.040  0.00  0.00    +0.056 A 
ATOM      9  C   UNL     1       1.008   2.017   1.165  0.00  0.00    +0.058 A 
ATOM     10  C   UNL     1       2.158   1.396   1.617  0.00  0.00    +0.026 A 
ATOM     11  C   UNL     1       3.264   2.159   1.948  0.00  0.00    +0.014 A 
ATOM     12  C   UNL     1       3.220   3.535   1.829  0.00  0.00    +0.057 A 
ATOM     13  C   UNL     1       2.074   4.162   1.377  0.00  0.00    +0.037 A 
ATOM     14  H   UNL     1      -0.168   5.072   0.250  0.00  0.00    +0.155 HD
ENDROOT
BRANCH  12  15
ATOM     15  C   UNL     1       4.429   4.358   2.196  0.00  0.00    +0.417 C 
ATOM     16  F   UNL     1       5.457   3.511   2.624  0.00  0.00    -0.166 F 
ATOM     17  F   UNL     1       4.856   5.082   1.078  0.00  0.00    -0.166 F 
ATOM     18  F   UNL     1       4.095   5.244   3.226  0.00  0.00    -0.166 F 
ENDBRANCH  12  15
BRANCH   1  20
ATOM     19  C   UNL     1      -1.821  -0.490  -1.274  0.00  0.00    -0.004 C 
ATOM     20  C   UNL     1      -1.267  -0.809   0.116  0.00  0.00    +0.017 C 
BRANCH  20  21
ATOM     21  N   UNL     1      -0.934  -2.238   0.195  0.00  0.00    +0.389 N 
ATOM     22  C   UNL     1      -0.125  -2.654  -0.959  0.00  0.00    -0.059 C 
ATOM     23  C   UNL     1       0.267  -4.125  -0.800  0.00  0.00    +0.086 C 
ATOM     24  N   UNL     1      -0.949  -4.944  -0.689  0.00  0.00    -0.333 N 
ATOM     25  C   UNL     1      -1.758  -4.527   0.464  0.00  0.00    +0.086 C 
ATOM     26  C   UNL     1      -2.149  -3.056   0.305  0.00  0.00    -0.059 C 
ATOM     27  H   UNL     1      -0.335  -2.394   1.104  0.00  0.00    -0.081 HD
BRANCH  24  28
ATOM     28  C   UNL     1      -0.631  -6.305  -0.614  0.00  0.00    +0.030 A 
ATOM     29  C   UNL     1      -1.074  -7.063   0.462  0.00  0.00    +0.026 A 
ATOM     30  C   UNL     1      -0.765  -8.407   0.532  0.00  0.00    +0.047 A 
ATOM     31  C   UNL     1      -0.004  -8.998  -0.466  0.00  0.00    +0.117 A 
ATOM     32  C   UNL     1       0.443  -8.240  -1.538  0.00  0.00    +0.047 A 
ATOM     33  C   UNL     1       0.131  -6.897  -1.613  0.00  0.00    +0.026 A 
BRANCH  31  34
ATOM     34  O   UNL     1       0.305 -10.320  -0.392  0.00  0.00    -0.507 OA
ATOM     35  H   UNL     1       0.909 -10.789  -1.183  0.00  0.00    +0.292 HD
ENDBRANCH  31  34
ENDBRANCH  24  28
ENDBRANCH  20  21
ENDBRANCH   1  20
TORSDOF 5
