REMARK  Name = ZINC40707819
REMARK  6 active torsions:
REMARK  status: ('A' for Active; 'I' for Inactive)
REMARK    1  A    between atoms: C_1  and  C_2
REMARK    2  A    between atoms: C_4  and  C_10
REMARK    3  A    between atoms: C_7  and  O_8
REMARK    4  A    between atoms: O_8  and  C_9
REMARK    5  A    between atoms: C_15  and  N_23
REMARK    6  A    between atoms: C_16  and  C_18
REMARK                            x       y       z     vdW  Elec       q    Type
REMARK                         _______ _______ _______ _____ _____    ______ ____
ROOT
ATOM      1  C   UNL     1       0.028  -2.817  -2.486  0.00  0.00    +0.064 A 
ATOM      2  C   UNL     1       1.083  -2.712  -3.316  0.00  0.00    +0.075 A 
ATOM      3  S   UNL     1       0.594  -3.762  -4.674  0.00  0.00    -0.057 S 
ATOM      4  C   UNL     1      -0.986  -4.266  -4.035  0.00  0.00    +0.180 A 
ATOM      5  N   UNL     1      -1.053  -3.616  -2.827  0.00  0.00    -0.274 N 
ATOM      6  C   UNL     1      -2.276  -3.984  -2.279  0.00  0.00    +0.132 A 
ATOM      7  C   UNL     1      -2.883  -4.830  -3.161  0.00  0.00    +0.147 A 
ATOM      8  N   UNL     1      -2.059  -4.972  -4.234  0.00  0.00    -0.216 NA
ENDROOT
BRANCH   1  12
ATOM      9  C   UNL     1      -0.018   1.503   0.010  0.00  0.00    +0.047 C 
ATOM     10  C   UNL     1       0.002  -0.004   0.002  0.00  0.00    -0.008 A 
ATOM     11  C   UNL     1       0.006  -0.686  -1.197  0.00  0.00    +0.017 A 
ATOM     12  C   UNL     1       0.025  -2.082  -1.203  0.00  0.00    -0.000 A 
ATOM     13  C   UNL     1       0.040  -2.781   0.005  0.00  0.00    +0.013 A 
ATOM     14  C   UNL     1       0.036  -2.092   1.199  0.00  0.00    +0.046 A 
ATOM     15  C   UNL     1       0.023  -0.704   1.201  0.00  0.00    +0.123 A 
BRANCH  15  16
ATOM     16  O   UNL     1       0.025  -0.028   2.380  0.00  0.00    -0.495 OA
ATOM     17  C   UNL     1       0.047  -0.809   3.576  0.00  0.00    +0.277 C 
ENDBRANCH  15  16
ENDBRANCH   1  12
BRANCH   7  18
ATOM     18  C   UNL     1      -4.203  -5.466  -2.988  0.00  0.00    +0.156 A 
ATOM     19  C   UNL     1      -5.098  -5.731  -3.978  0.00  0.00    +0.051 A 
ATOM     20  C   UNL     1      -6.213  -6.340  -3.365  0.00  0.00    +0.042 A 
ATOM     21  C   UNL     1      -5.947  -6.415  -2.047  0.00  0.00    +0.196 A 
ATOM     22  O   UNL     1      -4.728  -5.892  -1.823  0.00  0.00    -0.461 OA
ENDBRANCH   7  18
BRANCH   6  23
ATOM     23  N   UNL     1      -2.791  -3.566  -1.051  0.00  0.00    -0.342 N 
ATOM     24  H   UNL     1      -2.279  -2.960  -0.492  0.00  0.00    +0.144 HD
ATOM     25  H   UNL     1      -3.659  -3.881  -0.756  0.00  0.00    +0.144 HD
ENDBRANCH   6  23
TORSDOF 4
