REMARK  Name = ZINC44747161
REMARK  4 active torsions:
REMARK  status: ('A' for Active; 'I' for Inactive)
REMARK    1  A    between atoms: C_4  and  C_20
REMARK    2  A    between atoms: C_6  and  N_7
REMARK    3  A    between atoms: N_7  and  C_8
REMARK    4  A    between atoms: C_17  and  O_19
REMARK                            x       y       z     vdW  Elec       q    Type
REMARK                         _______ _______ _______ _____ _____    ______ ____
ROOT
ATOM      1  C   UNL     1      -2.477  -0.004   0.026  0.00  0.00    +0.101 C 
ATOM      2  C   UNL     1      -3.558  -0.889  -0.591  0.00  0.00    +0.027 C 
ATOM      3  C   UNL     1      -4.918  -0.218  -0.369  0.00  0.00    +0.007 C 
ATOM      4  C   UNL     1      -5.255  -0.291   1.119  0.00  0.00    +0.035 C 
ATOM      5  C   UNL     1      -4.106   0.224   1.948  0.00  0.00    -0.039 A 
ATOM      6  C   UNL     1      -2.830   0.351   1.447  0.00  0.00    -0.024 A 
ATOM      7  C   UNL     1      -1.813   0.826   2.265  0.00  0.00    +0.009 A 
ATOM      8  C   UNL     1      -2.070   1.173   3.575  0.00  0.00    +0.046 A 
ATOM      9  C   UNL     1      -3.356   1.048   4.080  0.00  0.00    +0.117 A 
ATOM     10  C   UNL     1      -4.368   0.575   3.264  0.00  0.00    +0.049 A 
ENDROOT
BRANCH   1  11
ATOM     11  N   UNL     1      -1.199  -0.719   0.010  0.00  0.00    -0.337 N 
ATOM     12  H   UNL     1      -1.186  -1.689   0.004  0.00  0.00    +0.147 HD
BRANCH  11  18
ATOM     13  C   UNL     1      -0.017   1.386   0.010  0.00  0.00    +0.024 A 
ATOM     14  C   UNL     1       1.168   2.098   0.002  0.00  0.00    +0.023 A 
ATOM     15  C   UNL     1       2.378   1.434  -0.013  0.00  0.00    +0.058 A 
ATOM     16  C   UNL     1       2.408   0.037  -0.021  0.00  0.00    +0.072 A 
ATOM     17  C   UNL     1       1.211  -0.681  -0.013  0.00  0.00    +0.043 A 
ATOM     18  C   UNL     1       0.002  -0.004   0.002  0.00  0.00    +0.029 A 
ATOM     19 CL   UNL     1       3.863   2.334  -0.023  0.00  0.00    -0.082 Cl
BRANCH  16  20
ATOM     20  C   UNL     1       3.661  -0.656  -0.037  0.00  0.00    +0.101 C 
ATOM     21  N   UNL     1       4.656  -1.205  -0.050  0.00  0.00    -0.191 NA
ENDBRANCH  16  20
ENDBRANCH  11  18
ENDBRANCH   1  11
BRANCH   9  22
ATOM     22  O   UNL     1      -3.619   1.390   5.368  0.00  0.00    -0.507 OA
ATOM     23  H   UNL     1      -3.877   2.314   5.485  0.00  0.00    +0.292 HD
ENDBRANCH   9  22
TORSDOF 4
