REMARK  Name = ZINC28510761
REMARK  3 active torsions:
REMARK  status: ('A' for Active; 'I' for Inactive)
REMARK    1  A    between atoms: C_1  and  C_2
REMARK    2  A    between atoms: C_2  and  N_3
REMARK    3  A    between atoms: C_14  and  C_16
REMARK                            x       y       z     vdW  Elec       q    Type
REMARK                         _______ _______ _______ _____ _____    ______ ____
ROOT
ATOM      1  N   UNL     1       0.688  -0.476  -1.203  0.00  0.00    -0.340 N 
ATOM      2  C   UNL     1       0.070  -0.736  -2.414  0.00  0.00    +0.050 A 
ATOM      3  C   UNL     1      -1.255  -0.642  -2.829  0.00  0.00    +0.026 A 
ATOM      4  C   UNL     1      -1.597  -0.971  -4.123  0.00  0.00    +0.002 A 
ATOM      5  C   UNL     1      -0.631  -1.397  -5.022  0.00  0.00    +0.001 A 
ATOM      6  C   UNL     1       0.686  -1.497  -4.629  0.00  0.00    +0.010 A 
ATOM      7  C   UNL     1       1.046  -1.168  -3.324  0.00  0.00    +0.008 A 
ATOM      8  C   UNL     1       2.329  -1.162  -2.597  0.00  0.00    +0.008 A 
ATOM      9  C   UNL     1       2.046  -0.721  -1.296  0.00  0.00    +0.050 A 
ATOM     10  C   UNL     1       3.083  -0.609  -0.375  0.00  0.00    +0.027 A 
ATOM     11  C   UNL     1       4.373  -0.926  -0.745  0.00  0.00    +0.009 A 
ATOM     12  C   UNL     1       4.650  -1.357  -2.033  0.00  0.00    -0.009 A 
ATOM     13  C   UNL     1       3.635  -1.483  -2.957  0.00  0.00    +0.017 A 
ENDROOT
BRANCH  12  14
ATOM     14  C   UNL     1       6.066  -1.699  -2.421  0.00  0.00    +0.190 C 
ATOM     15  N   UNL     1       6.997  -0.884  -1.631  0.00  0.00    -0.322 N 
ATOM     16  C   UNL     1       7.162   0.454  -1.971  0.00  0.00    +0.041 A 
ATOM     17  C   UNL     1       7.485   1.415  -1.028  0.00  0.00    +0.024 A 
ATOM     18  C   UNL     1       7.634   2.732  -1.419  0.00  0.00    +0.002 A 
ATOM     19  C   UNL     1       7.462   3.098  -2.745  0.00  0.00    +0.001 A 
ATOM     20  C   UNL     1       7.140   2.152  -3.696  0.00  0.00    +0.015 A 
ATOM     21  C   UNL     1       6.989   0.821  -3.317  0.00  0.00    +0.058 A 
ATOM     22  C   UNL     1       6.654  -0.231  -4.294  0.00  0.00    +0.247 C 
ATOM     23  O   UNL     1       6.740  -0.013  -5.487  0.00  0.00    -0.270 OA
ATOM     24  N   UNL     1       6.253  -1.436  -3.848  0.00  0.00    -0.289 N 
ATOM     25  H   UNL     1       7.486  -1.271  -0.888  0.00  0.00    +0.148 HD
ATOM     26  H   UNL     1       6.084  -2.145  -4.489  0.00  0.00    +0.151 HD
ENDBRANCH  12  14
BRANCH   1  28
ATOM     27  C   UNL     1      -0.019   1.526   0.010  0.00  0.00    +0.027 C 
ATOM     28  C   UNL     1       0.002  -0.004   0.002  0.00  0.00    +0.119 C 
ENDBRANCH   1  28
TORSDOF 2
