REMARK  Name = ZINC39606484
REMARK  12 active torsions:
REMARK  status: ('A' for Active; 'I' for Inactive)
REMARK    1  A    between atoms: C_1  and  C_2
REMARK    2  A    between atoms: C_2  and  C_3
REMARK    3  A    between atoms: C_3  and  C_5
REMARK    4  A    between atoms: C_3  and  C_6
REMARK    5  A    between atoms: C_6  and  N_7
REMARK    6  A    between atoms: C_8  and  C_10
REMARK    7  A    between atoms: C_21  and  C_23
REMARK    8  A    between atoms: C_25  and  C_32
REMARK    9  A    between atoms: N_27  and  C_28
REMARK   10  A    between atoms: C_28  and  C_29
REMARK   11  A    between atoms: C_28  and  C_30
REMARK   12  A    between atoms: C_28  and  C_31
REMARK                            x       y       z     vdW  Elec       q    Type
REMARK                         _______ _______ _______ _____ _____    ______ ____
ROOT
ATOM      1  C   UNL     1      -4.014  -4.710  -0.504  0.00  0.00    +0.100 C 
ATOM      2  C   UNL     1      -4.729  -4.106  -1.733  0.00  0.00    +0.121 C 
ATOM      3  N   UNL     1      -4.680  -5.175  -2.758  0.00  0.00    -0.295 N 
ATOM      4  C   UNL     1      -4.920  -6.425  -1.998  0.00  0.00    +0.115 C 
ATOM      5  C   UNL     1      -4.145  -6.232  -0.679  0.00  0.00    -0.004 C 
ATOM      6  C   UNL     1      -4.926  -6.833   0.485  0.00  0.00    -0.010 C 
ATOM      7  C   UNL     1      -4.992  -8.354   0.319  0.00  0.00    -0.082 C 
ATOM      8  N   UNL     1      -3.632  -8.904   0.280  0.00  0.00    +0.379 N 
ATOM      9  C   UNL     1      -2.919  -8.392  -0.896  0.00  0.00    -0.082 C 
ATOM     10  C   UNL     1      -2.764  -6.873  -0.781  0.00  0.00    -0.010 C 
ATOM     11  C   UNL     1      -4.466  -5.041  -4.082  0.00  0.00    +0.265 C 
ATOM     12  O   UNL     1      -4.445  -6.025  -4.797  0.00  0.00    -0.268 OA
ATOM     13  H   UNL     1      -3.137  -8.633   1.116  0.00  0.00    -0.086 HD
ATOM     14  H   UNL     1      -3.679  -9.911   0.231  0.00  0.00    -0.086 HD
ENDROOT
BRANCH  11  15
ATOM     15  C   UNL     1      -4.256  -3.705  -4.662  0.00  0.00    +0.124 A 
ATOM     16  C   UNL     1      -4.456  -2.487  -4.036  0.00  0.00    +0.057 A 
ATOM     17  C   UNL     1      -4.124  -1.522  -4.989  0.00  0.00    +0.061 A 
ATOM     18  N   UNL     1      -3.761  -2.145  -6.082  0.00  0.00    -0.175 NA
ATOM     19  N   UNL     1      -3.821  -3.419  -5.924  0.00  0.00    -0.254 N 
ATOM     20  C   UNL     1      -4.176  -0.029  -4.796  0.00  0.00    +0.067 C 
BRANCH  19  21
ATOM     21  C   UNL     1      -3.477  -4.412  -6.945  0.00  0.00    +0.056 C 
ATOM     22  C   UNL     1      -4.726  -5.214  -7.316  0.00  0.00    +0.036 C 
ATOM     23  C   UNL     1      -2.939  -3.701  -8.188  0.00  0.00    +0.036 C 
ATOM     24  C   UNL     1      -2.408  -5.359  -6.395  0.00  0.00    +0.036 C 
ENDBRANCH  19  21
ENDBRANCH  11  15
BRANCH   1  26
ATOM     25  N   UNL     1      -1.859  -4.356   0.659  0.00  0.00    -0.315 N 
ATOM     26  C   UNL     1      -2.562  -4.306  -0.490  0.00  0.00    +0.218 C 
ATOM     27  O   UNL     1      -2.026  -3.937  -1.513  0.00  0.00    -0.275 OA
ATOM     28  H   UNL     1      -2.305  -4.581   1.490  0.00  0.00    +0.149 HD
BRANCH  25  29
ATOM     29  C   UNL     1      -0.423  -4.069   0.652  0.00  0.00    +0.107 C 
BRANCH  29  30
ATOM     30  C   UNL     1       0.129  -4.194   2.074  0.00  0.00    +0.003 C 
ATOM     31  C   UNL     1       0.008  -5.645   2.542  0.00  0.00    +0.009 C 
BRANCH  30  33
ATOM     32  C   UNL     1       2.118  -3.779   3.528  0.00  0.00    +0.004 C 
ATOM     33  C   UNL     1       1.600  -3.774   2.088  0.00  0.00    +0.001 C 
ENDBRANCH  30  33
ENDBRANCH  29  30
ENDBRANCH  25  29
ENDBRANCH   1  26
TORSDOF 6
