REMARK  Name = ZINC12705539
REMARK  11 active torsions:
REMARK  status: ('A' for Active; 'I' for Inactive)
REMARK    1  A    between atoms: C_1  and  C_2
REMARK    2  A    between atoms: C_5  and  C_7
REMARK    3  A    between atoms: N_10  and  C_12
REMARK    4  A    between atoms: C_12  and  C_13
REMARK    5  A    between atoms: N_15  and  C_16
REMARK    6  A    between atoms: N_15  and  C_22
REMARK    7  A    between atoms: C_22  and  C_24
REMARK    8  A    between atoms: C_22  and  C_32
REMARK    9  A    between atoms: C_27  and  O_30
REMARK   10  A    between atoms: O_30  and  C_31
REMARK   11  A    between atoms: N_34  and  C_35
REMARK                            x       y       z     vdW  Elec       q    Type
REMARK                         _______ _______ _______ _____ _____    ______ ____
ROOT
ATOM      1  C   UNL     1       1.155  -2.718   0.057  0.00  0.00    +0.240 C 
ATOM      2  O   UNL     1       1.442  -3.894   0.121  0.00  0.00    -0.273 OA
ATOM      3  N   UNL     1       0.485  -2.132   1.069  0.00  0.00    -0.281 N 
ENDROOT
BRANCH   3   4
ATOM      4  C   UNL     1       0.053  -0.737   0.951  0.00  0.00    +0.077 C 
ATOM      5  C   UNL     1       1.277   0.180   0.979  0.00  0.00    +0.022 C 
ATOM      6  C   UNL     1       0.826   1.637   0.856  0.00  0.00    +0.002 C 
ATOM      7  C   UNL     1      -0.099   1.985   2.024  0.00  0.00    +0.000 C 
ATOM      8  C   UNL     1      -1.323   1.068   1.996  0.00  0.00    +0.002 C 
ATOM      9  C   UNL     1      -0.872  -0.389   2.119  0.00  0.00    +0.022 C 
ENDBRANCH   3   4
BRANCH   1  10
ATOM     10  C   UNL     1       1.546  -1.911  -1.155  0.00  0.00    +0.264 C 
BRANCH  10  14
ATOM     11  C   UNL     1       3.390  -3.958  -3.361  0.00  0.00    +0.239 A 
ATOM     12  N   UNL     1       2.145  -4.093  -3.845  0.00  0.00    -0.105 NA
ATOM     13  N   UNL     1       1.368  -3.377  -3.105  0.00  0.00    -0.045 NA
ATOM     14  N   UNL     1       2.070  -2.806  -2.189  0.00  0.00    -0.154 N 
ATOM     15  N   UNL     1       3.307  -3.141  -2.328  0.00  0.00    -0.127 NA
BRANCH  11  20
ATOM     16  C   UNL     1       8.206  -5.278  -3.882  0.00  0.00    +0.086 C 
ATOM     17  C   UNL     1       6.721  -5.176  -4.120  0.00  0.00    +0.103 A 
ATOM     18  C   UNL     1       6.038  -5.799  -5.099  0.00  0.00    +0.045 A 
ATOM     19  C   UNL     1       4.684  -5.435  -4.954  0.00  0.00    +0.053 A 
ATOM     20  C   UNL     1       4.616  -4.596  -3.888  0.00  0.00    +0.175 A 
ATOM     21  O   UNL     1       5.859  -4.450  -3.389  0.00  0.00    -0.457 OA
ENDBRANCH  11  20
ENDBRANCH  10  14
ENDBRANCH   1  10
BRANCH   3  22
ATOM     22  C   UNL     1       0.189  -2.889   2.287  0.00  0.00    +0.192 C 
BRANCH  22  23
ATOM     23  C   UNL     1      -1.299  -2.899   2.524  0.00  0.00    -0.018 A 
ATOM     24  C   UNL     1      -1.804  -2.522   3.755  0.00  0.00    +0.009 A 
ATOM     25  C   UNL     1      -3.168  -2.524   3.973  0.00  0.00    +0.046 A 
ATOM     26  C   UNL     1      -4.031  -2.916   2.959  0.00  0.00    +0.120 A 
ATOM     27  C   UNL     1      -3.521  -3.299   1.727  0.00  0.00    +0.046 A 
ATOM     28  C   UNL     1      -2.156  -3.290   1.512  0.00  0.00    +0.009 A 
BRANCH  26  29
ATOM     29  O   UNL     1      -5.373  -2.925   3.173  0.00  0.00    -0.495 OA
ATOM     30  C   UNL     1      -5.827  -2.518   4.465  0.00  0.00    +0.277 C 
ENDBRANCH  26  29
ENDBRANCH  22  23
BRANCH  22  31
ATOM     31  C   UNL     1       0.881  -2.244   3.461  0.00  0.00    +0.238 C 
ATOM     32  O   UNL     1       1.493  -1.208   3.309  0.00  0.00    -0.273 OA
ATOM     33  N   UNL     1       0.819  -2.818   4.678  0.00  0.00    -0.311 N 
ATOM     34  H   UNL     1       0.329  -3.647   4.800  0.00  0.00    +0.149 HD
BRANCH  33  35
ATOM     35  C   UNL     1       1.491  -2.191   5.819  0.00  0.00    +0.073 C 
ATOM     36  C   UNL     1       2.957  -2.627   5.849  0.00  0.00    +0.022 C 
ATOM     37  C   UNL     1       3.659  -1.972   7.041  0.00  0.00    +0.002 C 
ATOM     38  C   UNL     1       2.972  -2.403   8.338  0.00  0.00    +0.000 C 
ATOM     39  C   UNL     1       1.506  -1.967   8.307  0.00  0.00    +0.002 C 
ATOM     40  C   UNL     1       0.804  -2.622   7.116  0.00  0.00    +0.022 C 
ENDBRANCH  33  35
ENDBRANCH  22  31
ENDBRANCH   3  22
TORSDOF 9
