REMARK  Name = ZINC48812390
REMARK  5 active torsions:
REMARK  status: ('A' for Active; 'I' for Inactive)
REMARK    1  A    between atoms: C_1  and  C_2
REMARK    2  A    between atoms: C_2  and  C_4
REMARK    3  A    between atoms: C_2  and  N_8
REMARK    4  A    between atoms: N_6  and  C_7
REMARK    5  A    between atoms: C_9  and  C_11
REMARK                            x       y       z     vdW  Elec       q    Type
REMARK                         _______ _______ _______ _____ _____    ______ ____
ROOT
ATOM      1  N   UNL     1       0.711  -0.489   1.189  0.00  0.00    -0.298 N 
ATOM      2  C   UNL     1       0.051  -0.633   2.355  0.00  0.00    +0.280 C 
ATOM      3  O   UNL     1      -1.132  -0.360   2.423  0.00  0.00    -0.267 OA
ATOM      4  H   UNL     1       1.654  -0.707   1.135  0.00  0.00    +0.150 HD
ENDROOT
BRANCH   2   5
ATOM      5  C   UNL     1       0.762  -1.120   3.546  0.00  0.00    +0.190 A 
ATOM      6  C   UNL     1       0.201  -1.309   4.769  0.00  0.00    +0.063 A 
ATOM      7  C   UNL     1       1.273  -1.797   5.635  0.00  0.00    +0.022 A 
ATOM      8  C   UNL     1       1.345  -2.170   6.980  0.00  0.00    +0.027 A 
ATOM      9  C   UNL     1       2.534  -2.595   7.503  0.00  0.00    +0.019 A 
ATOM     10  C   UNL     1       3.670  -2.658   6.706  0.00  0.00    +0.019 A 
ATOM     11  C   UNL     1       3.620  -2.294   5.378  0.00  0.00    +0.048 A 
ATOM     12  C   UNL     1       2.421  -1.859   4.824  0.00  0.00    +0.136 A 
ATOM     13  O   UNL     1       2.069  -1.453   3.588  0.00  0.00    -0.450 OA
ATOM     14 BR   UNL     1       2.634  -3.100   9.322  0.00  0.00    -0.050 Br
ENDBRANCH   2   5
BRANCH   1  16
ATOM     15  C   UNL     1      -0.019   1.526   0.010  0.00  0.00    +0.038 C 
ATOM     16  C   UNL     1       0.002  -0.004   0.002  0.00  0.00    +0.156 C 
BRANCH  16  17
ATOM     17  C   UNL     1       0.707  -0.490  -1.238  0.00  0.00    +0.233 C 
ATOM     18  O   UNL     1       1.704  -1.174  -1.140  0.00  0.00    -0.274 OA
ATOM     19  N   UNL     1       0.231  -0.164  -2.456  0.00  0.00    -0.317 N 
ATOM     20  C   UNL     1       0.917  -0.637  -3.661  0.00  0.00    +0.128 C 
ATOM     21  H   UNL     1      -0.566   0.383  -2.534  0.00  0.00    +0.148 HD
ENDBRANCH  16  17
ENDBRANCH   1  16
TORSDOF 3
