REMARK  Name = ZINC35098711
REMARK  11 active torsions:
REMARK  status: ('A' for Active; 'I' for Inactive)
REMARK    1  A    between atoms: C_1  and  C_2
REMARK    2  A    between atoms: C_2  and  O_3
REMARK    3  A    between atoms: O_3  and  C_4
REMARK    4  A    between atoms: C_4  and  C_6
REMARK    5  A    between atoms: C_6  and  C_8
REMARK    6  A    between atoms: C_6  and  N_14
REMARK    7  A    between atoms: C_16  and  C_24
REMARK    8  A    between atoms: C_24  and  C_25
REMARK    9  A    between atoms: C_25  and  C_26
REMARK   10  A    between atoms: C_26  and  N_27
REMARK   11  A    between atoms: C_28  and  C_30
REMARK                            x       y       z     vdW  Elec       q    Type
REMARK                         _______ _______ _______ _____ _____    ______ ____
ROOT
ATOM      1  N   UNL     1       1.461  -3.720  -1.974  0.00  0.00    -0.313 N 
ATOM      2  C   UNL     1       0.972  -4.822  -2.806  0.00  0.00    +0.114 C 
ATOM      3  C   UNL     1       1.271  -6.098  -2.001  0.00  0.00    +0.038 C 
ATOM      4  C   UNL     1       1.928  -5.601  -0.733  0.00  0.00    -0.022 A 
ATOM      5  C   UNL     1       2.009  -4.218  -0.791  0.00  0.00    +0.034 A 
ATOM      6  C   UNL     1       2.590  -3.528   0.275  0.00  0.00    +0.023 A 
ATOM      7  C   UNL     1       3.077  -4.216   1.366  0.00  0.00    +0.002 A 
ATOM      8  C   UNL     1       2.995  -5.596   1.412  0.00  0.00    +0.000 A 
ATOM      9  C   UNL     1       2.414  -6.286   0.364  0.00  0.00    +0.006 A 
ENDROOT
BRANCH   1  10
ATOM     10  C   UNL     1       1.391  -2.301  -2.334  0.00  0.00    +0.213 C 
BRANCH  10  11
ATOM     11  C   UNL     1      -0.043  -1.920  -2.596  0.00  0.00    -0.016 A 
ATOM     12  C   UNL     1      -0.772  -2.594  -3.559  0.00  0.00    +0.006 A 
ATOM     13  C   UNL     1      -2.087  -2.244  -3.800  0.00  0.00    +0.000 A 
ATOM     14  C   UNL     1      -2.675  -1.222  -3.078  0.00  0.00    +0.000 A 
ATOM     15  C   UNL     1      -1.946  -0.549  -2.115  0.00  0.00    +0.000 A 
ATOM     16  C   UNL     1      -0.632  -0.901  -1.871  0.00  0.00    +0.006 A 
ENDBRANCH  10  11
BRANCH  10  17
ATOM     17  C   UNL     1       2.211  -2.057  -3.574  0.00  0.00    +0.332 C 
ATOM     18  O   UNL     1       2.795  -2.973  -4.103  0.00  0.00    -0.248 OA
BRANCH  17  19
ATOM     19  O   UNL     1       2.293  -0.821  -4.091  0.00  0.00    -0.463 OA
BRANCH  19  21
ATOM     20  C   UNL     1       3.062   0.804  -5.706  0.00  0.00    +0.048 C 
ATOM     21  C   UNL     1       3.088  -0.661  -5.268  0.00  0.00    +0.229 C 
ENDBRANCH  19  21
ENDBRANCH  17  19
ENDBRANCH  10  17
ENDBRANCH   1  10
BRANCH   3  22
ATOM     22  C   UNL     1      -0.027  -6.841  -1.677  0.00  0.00    +0.011 C 
BRANCH  22  23
ATOM     23  C   UNL     1       0.303  -8.166  -0.987  0.00  0.00    +0.019 C 
BRANCH  23  24
ATOM     24  C   UNL     1      -0.995  -8.909  -0.663  0.00  0.00    +0.104 C 
BRANCH  24  25
ATOM     25  N   UNL     1      -0.679 -10.177  -0.002  0.00  0.00    -0.315 N 
ATOM     26  C   UNL     1      -1.673 -11.005   0.378  0.00  0.00    +0.220 C 
ATOM     27  O   UNL     1      -2.829 -10.699   0.173  0.00  0.00    -0.275 OA
ATOM     28  H   UNL     1       0.245 -10.422   0.163  0.00  0.00    +0.149 HD
BRANCH  26  29
ATOM     29  C   UNL     1      -1.348 -12.310   1.058  0.00  0.00    +0.129 C 
ATOM     30  C   UNL     1      -2.481 -13.345   0.834  0.00  0.00    +0.137 C 
ATOM     31  C   UNL     1      -2.594 -13.989   2.213  0.00  0.00    +0.308 C 
ATOM     32  O   UNL     1      -2.801 -15.152   2.468  0.00  0.00    -0.251 OA
ATOM     33  O   UNL     1      -2.412 -12.971   3.088  0.00  0.00    -0.457 OA
ATOM     34  C   UNL     1      -1.345 -12.143   2.591  0.00  0.00    +0.125 C 
ATOM     35  C   UNL     1      -1.598 -10.682   2.952  0.00  0.00    +0.049 C 
ATOM     36  C   UNL     1      -1.599 -10.526   4.475  0.00  0.00    +0.004 C 
ATOM     37  C   UNL     1      -0.248 -10.976   5.034  0.00  0.00    +0.000 C 
ATOM     38  C   UNL     1      -0.012 -12.446   4.680  0.00  0.00    +0.004 C 
ATOM     39  C   UNL     1      -0.006 -12.608   3.158  0.00  0.00    +0.049 C 
ENDBRANCH  26  29
ENDBRANCH  24  25
ENDBRANCH  23  24
ENDBRANCH  22  23
ENDBRANCH   3  22
TORSDOF 10
