REMARK  Name = ZINC32501381
REMARK  9 active torsions:
REMARK  status: ('A' for Active; 'I' for Inactive)
REMARK    1  A    between atoms: C_1  and  O_2
REMARK    2  A    between atoms: O_2  and  C_3
REMARK    3  A    between atoms: C_6  and  N_9
REMARK    4  A    between atoms: N_12  and  C_15
REMARK    5  A    between atoms: C_15  and  C_16
REMARK    6  A    between atoms: C_17  and  O_35
REMARK    7  A    between atoms: C_24  and  C_27
REMARK    8  A    between atoms: C_32  and  O_33
REMARK    9  A    between atoms: O_33  and  C_34
REMARK                            x       y       z     vdW  Elec       q    Type
REMARK                         _______ _______ _______ _____ _____    ______ ____
ROOT
ATOM      1  C   UNL     1      -0.718   1.572   1.248  0.00  0.00    +0.020 A 
ATOM      2  C   UNL     1      -0.361   2.781   1.821  0.00  0.00    +0.122 A 
ATOM      3  C   UNL     1      -1.010   3.243   2.964  0.00  0.00    +0.046 A 
ATOM      4  C   UNL     1      -2.001   2.502   3.541  0.00  0.00    +0.019 A 
ATOM      5  C   UNL     1      -2.368   1.279   2.979  0.00  0.00    +0.065 A 
ATOM      6  C   UNL     1      -1.724   0.806   1.822  0.00  0.00    +0.143 A 
ATOM      7  O   UNL     1      -2.081  -0.375   1.279  0.00  0.00    -0.462 OA
ATOM      8  C   UNL     1      -3.040  -1.154   1.786  0.00  0.00    +0.208 A 
ATOM      9  C   UNL     1      -3.743  -0.819   2.898  0.00  0.00    +0.068 A 
ATOM     10  C   UNL     1      -3.434   0.453   3.574  0.00  0.00    +0.200 A 
ATOM     11  O   UNL     1      -4.032   0.806   4.576  0.00  0.00    -0.286 OA
ENDROOT
BRANCH   9  12
ATOM     12  C   UNL     1      -4.800  -1.717   3.424  0.00  0.00    +0.030 A 
ATOM     13  C   UNL     1      -4.467  -2.978   3.914  0.00  0.00    +0.012 A 
ATOM     14  C   UNL     1      -5.454  -3.809   4.403  0.00  0.00    +0.001 A 
ATOM     15  C   UNL     1      -6.774  -3.396   4.408  0.00  0.00    +0.004 A 
ATOM     16  C   UNL     1      -7.115  -2.146   3.924  0.00  0.00    +0.046 A 
ATOM     17  C   UNL     1      -6.134  -1.300   3.434  0.00  0.00    +0.128 A 
BRANCH  17  18
ATOM     18  O   UNL     1      -6.468  -0.070   2.963  0.00  0.00    -0.494 OA
ATOM     19  C   UNL     1      -7.851   0.288   3.005  0.00  0.00    +0.277 C 
ENDBRANCH  17  18
ENDBRANCH   9  12
BRANCH   2  20
ATOM     20  O   UNL     1       0.627   3.525   1.261  0.00  0.00    -0.506 OA
ATOM     21  H   UNL     1       0.915   4.486   1.712  0.00  0.00    +0.292 HD
ENDBRANCH   2  20
BRANCH   1  22
ATOM     22  C   UNL     1      -0.013   1.086   0.008  0.00  0.00    -0.035 C 
BRANCH  22  26
ATOM     23  N   UNL     1      -2.012   1.308  -3.707  0.00  0.00    -0.333 N 
ATOM     24  C   UNL     1      -0.677   1.914  -3.606  0.00  0.00    +0.086 C 
ATOM     25  C   UNL     1       0.059   1.323  -2.401  0.00  0.00    -0.059 C 
ATOM     26  N   UNL     1      -0.723   1.572  -1.182  0.00  0.00    +0.385 N 
ATOM     27  C   UNL     1      -2.058   0.966  -1.283  0.00  0.00    -0.059 C 
ATOM     28  C   UNL     1      -2.794   1.557  -2.488  0.00  0.00    +0.086 C 
ATOM     29  H   UNL     1      -0.851   2.660  -1.077  0.00  0.00    -0.081 HD
BRANCH  23  33
ATOM     30  C   UNL     1      -4.028   2.689  -7.083  0.00  0.00    +0.120 A 
ATOM     31  C   UNL     1      -4.639   1.776  -6.237  0.00  0.00    +0.047 A 
ATOM     32  C   UNL     1      -3.972   1.317  -5.118  0.00  0.00    +0.027 A 
ATOM     33  C   UNL     1      -2.689   1.771  -4.840  0.00  0.00    +0.030 A 
ATOM     34  C   UNL     1      -2.080   2.690  -5.686  0.00  0.00    +0.027 A 
ATOM     35  C   UNL     1      -2.747   3.142  -6.808  0.00  0.00    +0.047 A 
BRANCH  30  37
ATOM     36  C   UNL     1      -3.998   4.079  -9.013  0.00  0.00    +0.277 C 
ATOM     37  O   UNL     1      -4.686   3.140  -8.185  0.00  0.00    -0.495 OA
ENDBRANCH  30  37
ENDBRANCH  23  33
ENDBRANCH  22  26
ENDBRANCH   1  22
TORSDOF 7
