REMARK  Name = ZINC11855262
REMARK  4 active torsions:
REMARK  status: ('A' for Active; 'I' for Inactive)
REMARK    1  A    between atoms: C_4  and  C_7
REMARK    2  A    between atoms: C_16  and  N_25
REMARK    3  A    between atoms: C_18  and  C_20
REMARK    4  A    between atoms: C_26  and  C_28
REMARK                            x       y       z     vdW  Elec       q    Type
REMARK                         _______ _______ _______ _____ _____    ______ ____
ROOT
ATOM      1  C   UNL     1      -0.050  10.583  -1.073  0.00  0.00    +0.080 A 
ATOM      2  C   UNL     1      -0.156  11.254   0.136  0.00  0.00    +0.098 A 
ATOM      3  C   UNL     1       0.153  10.562   1.318  0.00  0.00    +0.253 A 
ATOM      4  O   UNL     1       0.072  11.117   2.402  0.00  0.00    -0.268 OA
ATOM      5  N   UNL     1       0.536   9.271   1.235  0.00  0.00    -0.291 N 
ATOM      6  H   UNL     1       0.750   8.776   2.041  0.00  0.00    +0.172 HD
ATOM      7  C   UNL     1       0.629   8.662   0.022  0.00  0.00    +0.234 A 
ATOM      8  N   UNL     1       0.342   9.301  -1.089  0.00  0.00    -0.212 NA
ATOM      9  N   UNL     1       1.029   7.341  -0.043  0.00  0.00    -0.185 N 
ATOM     10  C   UNL     1       2.319   6.893  -0.071  0.00  0.00    +0.132 A 
ATOM     11  C   UNL     1       2.283   5.538  -0.134  0.00  0.00    +0.074 A 
ATOM     12  C   UNL     1       0.929   5.142  -0.146  0.00  0.00    +0.102 A 
ATOM     13  N   UNL     1       0.182   6.227  -0.096  0.00  0.00    -0.162 NA
ENDROOT
BRANCH   1  17
ATOM     14  C   UNL     1      -0.964  12.583  -4.710  0.00  0.00    +0.000 A 
ATOM     15  C   UNL     1      -0.662  11.233  -4.723  0.00  0.00    +0.001 A 
ATOM     16  C   UNL     1      -0.365  10.578  -3.546  0.00  0.00    +0.010 A 
ATOM     17  C   UNL     1      -0.368  11.280  -2.341  0.00  0.00    +0.001 A 
ATOM     18  C   UNL     1      -0.678  12.640  -2.333  0.00  0.00    +0.010 A 
ATOM     19  C   UNL     1      -0.969  13.285  -3.518  0.00  0.00    +0.001 A 
ENDBRANCH   1  17
BRANCH  12  20
ATOM     20  C   UNL     1       0.433   3.751  -0.210  0.00  0.00    +0.039 A 
ATOM     21  C   UNL     1      -0.858   3.295  -0.224  0.00  0.00    +0.018 A 
ATOM     22  C   UNL     1      -1.080   1.937  -0.293  0.00  0.00    +0.008 A 
ATOM     23  C   UNL     1      -0.016   1.094  -0.333  0.00  0.00    +0.046 A 
ATOM     24  S   UNL     1       1.362   2.228  -0.287  0.00  0.00    -0.095 S 
ENDBRANCH  12  20
BRANCH  10  25
ATOM     25  N   UNL     1       3.464   7.684  -0.040  0.00  0.00    -0.266 N 
ATOM     26  C   UNL     1       4.680   7.107   0.039  0.00  0.00    +0.249 C 
ATOM     27  O   UNL     1       4.773   5.903   0.181  0.00  0.00    -0.270 OA
ATOM     28  H   UNL     1       3.388   8.650  -0.074  0.00  0.00    +0.157 HD
BRANCH  26  29
ATOM     29  C   UNL     1       5.899   7.937  -0.049  0.00  0.00    +0.038 A 
ATOM     30  C   UNL     1       7.158   7.334  -0.075  0.00  0.00    +0.013 A 
ATOM     31  C   UNL     1       8.293   8.114  -0.157  0.00  0.00    +0.002 A 
ATOM     32  C   UNL     1       8.186   9.492  -0.215  0.00  0.00    +0.020 A 
ATOM     33  C   UNL     1       6.941  10.098  -0.190  0.00  0.00    +0.042 A 
ATOM     34  C   UNL     1       5.797   9.328  -0.113  0.00  0.00    +0.033 A 
ATOM     35 CL   UNL     1       6.817  11.828  -0.263  0.00  0.00    -0.084 Cl
ENDBRANCH  26  29
ENDBRANCH  10  25
TORSDOF 4
