REMARK  Name = ZINC33341991
REMARK  8 active torsions:
REMARK  status: ('A' for Active; 'I' for Inactive)
REMARK    1  A    between atoms: C_1  and  C_2
REMARK    2  A    between atoms: C_2  and  C_10
REMARK    3  A    between atoms: C_3  and  C_4
REMARK    4  A    between atoms: N_11  and  N_12
REMARK    5  A    between atoms: C_13  and  C_15
REMARK    6  A    between atoms: C_15  and  N_16
REMARK    7  A    between atoms: N_19  and  S_22
REMARK    8  A    between atoms: S_22  and  C_25
REMARK                            x       y       z     vdW  Elec       q    Type
REMARK                         _______ _______ _______ _____ _____    ______ ____
ROOT
ATOM      1  N   UNL     1      -0.995   2.592  -2.180  0.00  0.00    +0.387 N 
ATOM      2  C   UNL     1      -1.976   2.362  -1.111  0.00  0.00    -0.061 C 
ATOM      3  C   UNL     1      -1.368   1.434  -0.055  0.00  0.00    +0.091 C 
ATOM      4  N   UNL     1      -0.086   2.002   0.389  0.00  0.00    -0.180 NA
ATOM      5  C   UNL     1       0.895   2.390  -0.636  0.00  0.00    +0.091 C 
ATOM      6  C   UNL     1       0.198   3.281  -1.670  0.00  0.00    -0.061 C 
ATOM      7  H   UNL     1      -0.677   1.609  -2.559  0.00  0.00    -0.081 HD
ENDROOT
BRANCH   4   8
ATOM      8  S   UNL     1       0.242   2.204   2.000  0.00  0.00    +0.061 S 
ATOM      9  O   UNL     1       1.222   3.228   2.090  0.00  0.00    -0.153 OA
ATOM     10  O   UNL     1      -1.013   2.290   2.662  0.00  0.00    -0.153 OA
BRANCH   8  11
ATOM     11  C   UNL     1       1.009   0.722   2.566  0.00  0.00    +0.106 A 
ATOM     12  C   UNL     1       0.235  -0.308   3.068  0.00  0.00    +0.029 A 
ATOM     13  C   UNL     1       0.836  -1.473   3.507  0.00  0.00    +0.017 A 
ATOM     14  C   UNL     1       2.212  -1.603   3.454  0.00  0.00    +0.018 A 
ATOM     15  C   UNL     1       2.986  -0.571   2.956  0.00  0.00    +0.017 A 
ATOM     16  C   UNL     1       2.384   0.592   2.512  0.00  0.00    +0.029 A 
ATOM     17 BR   UNL     1       3.035  -3.194   4.061  0.00  0.00    -0.050 Br
ENDBRANCH   8  11
ENDBRANCH   4   8
BRANCH   1  18
ATOM     18  C   UNL     1      -1.596   3.335  -3.296  0.00  0.00    +0.020 C 
BRANCH  18  20
ATOM     19  N   UNL     1      -2.663   5.537  -3.656  0.00  0.00    -0.209 N 
ATOM     20  C   UNL     1      -2.017   4.702  -2.819  0.00  0.00    +0.216 C 
ATOM     21  O   UNL     1      -1.775   5.049  -1.683  0.00  0.00    -0.276 OA
ATOM     22  H   UNL     1      -2.883   5.223  -4.687  0.00  0.00    +0.177 HD
BRANCH  19  24
ATOM     23  C   UNL     1      -3.679   7.615  -4.022  0.00  0.00    +0.133 C 
ATOM     24  N   UNL     1      -3.055   6.808  -3.213  0.00  0.00    -0.188 NA
BRANCH  23  26
ATOM     25  C   UNL     1      -3.775   9.332  -2.162  0.00  0.00    +0.045 C 
ATOM     26  C   UNL     1      -4.076   8.901  -3.574  0.00  0.00    -0.030 C 
ATOM     27  C   UNL     1      -4.722   9.738  -4.411  0.00  0.00    +0.012 C 
BRANCH  27  28
ATOM     28  C   UNL     1      -4.981  11.129  -4.007  0.00  0.00    -0.025 A 
ATOM     29  C   UNL     1      -6.147  11.777  -4.426  0.00  0.00    +0.008 A 
ATOM     30  C   UNL     1      -6.385  13.079  -4.038  0.00  0.00    +0.001 A 
ATOM     31  C   UNL     1      -5.468  13.748  -3.247  0.00  0.00    +0.000 A 
ATOM     32  C   UNL     1      -4.308  13.115  -2.833  0.00  0.00    +0.001 A 
ATOM     33  C   UNL     1      -4.059  11.812  -3.207  0.00  0.00    +0.008 A 
ENDBRANCH  27  28
ENDBRANCH  23  26
ENDBRANCH  19  24
ENDBRANCH  18  20
ENDBRANCH   1  18
TORSDOF 7
