REMARK  Name = ZINC20155838
REMARK  9 active torsions:
REMARK  status: ('A' for Active; 'I' for Inactive)
REMARK    1  A    between atoms: C_1  and  C_2
REMARK    2  A    between atoms: C_3  and  N_11
REMARK    3  A    between atoms: C_7  and  N_8
REMARK    4  A    between atoms: C_12  and  C_14
REMARK    5  A    between atoms: N_24  and  C_37
REMARK    6  A    between atoms: C_25  and  C_27
REMARK    7  A    between atoms: C_37  and  C_38
REMARK    8  A    between atoms: C_38  and  O_39
REMARK    9  A    between atoms: O_39  and  C_40
REMARK                            x       y       z     vdW  Elec       q    Type
REMARK                         _______ _______ _______ _____ _____    ______ ____
ROOT
ATOM      1  C   UNL     1      -1.214  -0.734  -5.488  0.00  0.00    +0.131 C 
ATOM      2  C   UNL     1       0.104  -0.005  -5.460  0.00  0.00    -0.021 A 
ATOM      3  C   UNL     1       0.197   1.260  -4.921  0.00  0.00    +0.005 A 
ATOM      4  C   UNL     1       1.418   1.911  -4.890  0.00  0.00    +0.000 A 
ATOM      5  C   UNL     1       2.551   1.298  -5.397  0.00  0.00    +0.001 A 
ATOM      6  C   UNL     1       2.470   0.034  -5.944  0.00  0.00    +0.013 A 
ATOM      7  C   UNL     1       1.241  -0.622  -5.984  0.00  0.00    +0.041 A 
ATOM      8  C   UNL     1       1.114  -1.961  -6.597  0.00  0.00    +0.247 C 
ATOM      9  O   UNL     1       2.106  -2.617  -6.850  0.00  0.00    -0.270 OA
ATOM     10  N   UNL     1      -0.111  -2.447  -6.871  0.00  0.00    -0.287 N 
ATOM     11  C   UNL     1      -1.299  -1.612  -6.734  0.00  0.00    +0.125 C 
ENDROOT
BRANCH  11  12
ATOM     12  C   UNL     1      -2.514  -2.498  -6.633  0.00  0.00    -0.001 A 
ATOM     13  C   UNL     1      -2.686  -3.522  -5.784  0.00  0.00    +0.089 A 
ATOM     14  N   UNL     1      -3.914  -4.093  -5.984  0.00  0.00    -0.360 N 
ATOM     15  H   UNL     1      -4.264  -4.850  -5.489  0.00  0.00    +0.165 HD
ATOM     16  C   UNL     1      -4.578  -3.433  -6.993  0.00  0.00    +0.047 A 
ATOM     17  C   UNL     1      -3.732  -2.400  -7.440  0.00  0.00    +0.005 A 
ATOM     18  C   UNL     1      -4.151  -1.553  -8.467  0.00  0.00    +0.010 A 
ATOM     19  C   UNL     1      -5.383  -1.728  -9.031  0.00  0.00    +0.001 A 
ATOM     20  C   UNL     1      -6.223  -2.742  -8.591  0.00  0.00    +0.002 A 
ATOM     21  C   UNL     1      -5.826  -3.596  -7.585  0.00  0.00    +0.026 A 
ENDBRANCH  11  12
BRANCH   1  23
ATOM     22  N   UNL     1      -2.318  -1.370  -3.368  0.00  0.00    -0.285 N 
ATOM     23  C   UNL     1      -1.333  -1.598  -4.259  0.00  0.00    +0.227 C 
ATOM     24  O   UNL     1      -0.542  -2.498  -4.072  0.00  0.00    -0.275 OA
ATOM     25  H   UNL     1      -2.908  -0.609  -3.482  0.00  0.00    +0.155 HD
BRANCH  22  28
ATOM     26  C   UNL     1      -4.937  -1.680  -2.299  0.00  0.00    +0.048 C 
ATOM     27  C   UNL     1      -3.751  -2.413  -1.727  0.00  0.00    +0.001 A 
ATOM     28  C   UNL     1      -2.490  -2.232  -2.279  0.00  0.00    +0.038 A 
ATOM     29  C   UNL     1      -1.399  -2.909  -1.749  0.00  0.00    +0.024 A 
ATOM     30  C   UNL     1      -1.572  -3.760  -0.674  0.00  0.00    +0.004 A 
ATOM     31  C   UNL     1      -2.829  -3.938  -0.127  0.00  0.00    +0.033 A 
ATOM     32  C   UNL     1      -3.916  -3.261  -0.649  0.00  0.00    +0.131 A 
BRANCH  32  33
ATOM     33  N   UNL     1      -5.259  -3.450  -0.056  0.00  0.00    +0.057 N 
ATOM     34  O   UNL     1      -6.011  -2.509   0.049  0.00  0.00    -0.126 OA
ATOM     35  O   UNL     1      -5.604  -4.544   0.323  0.00  0.00    -0.126 OA
ENDBRANCH  32  33
ENDBRANCH  22  28
ENDBRANCH   1  23
BRANCH  10  36
ATOM     36  C   UNL     1      -0.253  -3.837  -7.314  0.00  0.00    +0.137 C 
BRANCH  36  37
ATOM     37  C   UNL     1      -0.168  -3.897  -8.841  0.00  0.00    +0.178 C 
BRANCH  37  38
ATOM     38  O   UNL     1       1.131  -3.478  -9.262  0.00  0.00    -0.381 OA
ATOM     39  C   UNL     1       1.284  -3.395 -10.680  0.00  0.00    +0.194 C 
ENDBRANCH  37  38
ENDBRANCH  36  37
ENDBRANCH  10  36
TORSDOF 7
