REMARK  Name = ZINC28914780
REMARK  9 active torsions:
REMARK  status: ('A' for Active; 'I' for Inactive)
REMARK    1  A    between atoms: C_1  and  C_2
REMARK    2  A    between atoms: C_5  and  N_9
REMARK    3  A    between atoms: C_6  and  C_8
REMARK    4  A    between atoms: C_10  and  C_12
REMARK    5  A    between atoms: C_12  and  N_13
REMARK    6  A    between atoms: N_22  and  C_23
REMARK    7  A    between atoms: C_23  and  C_24
REMARK    8  A    between atoms: C_24  and  C_26
REMARK    9  A    between atoms: C_24  and  O_27
REMARK                            x       y       z     vdW  Elec       q    Type
REMARK                         _______ _______ _______ _____ _____    ______ ____
ROOT
ATOM      1  N   UNL     1       3.502  -2.405   0.268  0.00  0.00    -0.305 N 
ATOM      2  C   UNL     1       3.406  -3.291  -0.792  0.00  0.00    +0.068 A 
ATOM      3  C   UNL     1       3.493  -3.155  -2.170  0.00  0.00    +0.028 A 
ATOM      4  C   UNL     1       3.349  -4.263  -2.979  0.00  0.00    +0.002 A 
ATOM      5  C   UNL     1       3.116  -5.513  -2.425  0.00  0.00    +0.002 A 
ATOM      6  C   UNL     1       3.027  -5.666  -1.060  0.00  0.00    +0.028 A 
ATOM      7  C   UNL     1       3.171  -4.554  -0.226  0.00  0.00    +0.065 A 
ATOM      8  N   UNL     1       3.135  -4.388   1.123  0.00  0.00    -0.327 N 
ATOM      9  C   UNL     1       3.335  -3.127   1.415  0.00  0.00    +0.175 A 
ATOM     10  N   UNL     1       3.369  -2.605   2.691  0.00  0.00    -0.314 N 
ATOM     11  H   UNL     1       3.540  -1.529   2.841  0.00  0.00    +0.149 HD
ATOM     12  H   UNL     1       2.957  -5.252   1.779  0.00  0.00    +0.169 HD
ENDROOT
BRANCH   1  13
ATOM     13  C   UNL     1       3.744  -0.963   0.176  0.00  0.00    +0.221 C 
BRANCH  13  15
ATOM     14  N   UNL     1       2.403   1.107  -0.015  0.00  0.00    -0.284 N 
ATOM     15  C   UNL     1       2.426  -0.238   0.079  0.00  0.00    +0.237 C 
ATOM     16  O   UNL     1       1.388  -0.864   0.086  0.00  0.00    -0.274 OA
ATOM     17  H   UNL     1       3.345   1.669  -0.096  0.00  0.00    +0.155 HD
BRANCH  14  22
ATOM     18  C   UNL     1      -2.555   3.865   0.002  0.00  0.00    +0.044 C 
ATOM     19  C   UNL     1      -1.238   3.132  -0.002  0.00  0.00    -0.050 A 
ATOM     20  C   UNL     1      -1.140   1.892  -0.607  0.00  0.00    +0.005 A 
ATOM     21  C   UNL     1       0.064   1.216  -0.608  0.00  0.00    +0.024 A 
ATOM     22  C   UNL     1       1.180   1.787  -0.010  0.00  0.00    +0.036 A 
ATOM     23  C   UNL     1       1.079   3.034   0.592  0.00  0.00    -0.029 A 
ATOM     24  C   UNL     1      -0.129   3.703   0.594  0.00  0.00    +0.008 A 
ATOM     25  C   UNL     1       2.288   3.657   1.242  0.00  0.00    +0.045 C 
ENDBRANCH  14  22
ENDBRANCH  13  15
ENDBRANCH   1  13
BRANCH  10  26
ATOM     26  C   UNL     1       3.176  -3.484   3.847  0.00  0.00    +0.135 C 
BRANCH  26  27
ATOM     27  C   UNL     1       3.259  -2.661   5.134  0.00  0.00    +0.128 C 
ATOM     28  C   UNL     1       3.182  -3.595   6.343  0.00  0.00    +0.039 C 
BRANCH  27  29
ATOM     29  O   UNL     1       2.171  -1.735   5.178  0.00  0.00    -0.391 OA
ATOM     30  H   UNL     1       2.063  -1.053   6.034  0.00  0.00    +0.210 HD
ENDBRANCH  27  29
ENDBRANCH  26  27
ENDBRANCH  10  26
TORSDOF 6
