REMARK  Name = ZINC08889102
REMARK  8 active torsions:
REMARK  status: ('A' for Active; 'I' for Inactive)
REMARK    1  A    between atoms: C_1  and  C_2
REMARK    2  A    between atoms: C_2  and  C_4
REMARK    3  A    between atoms: C_2  and  O_16
REMARK    4  A    between atoms: C_4  and  C_6
REMARK    5  A    between atoms: O_16  and  C_17
REMARK    6  A    between atoms: C_17  and  C_19
REMARK    7  A    between atoms: C_19  and  C_20
REMARK    8  A    between atoms: C_20  and  C_21
REMARK                            x       y       z     vdW  Elec       q    Type
REMARK                         _______ _______ _______ _____ _____    ______ ____
ROOT
ATOM      1  C   UNL     1      -0.742   1.585  -1.213  0.00  0.00    +0.308 C 
ATOM      2  O   UNL     1      -1.732   2.266  -1.089  0.00  0.00    -0.251 OA
ENDROOT
BRANCH   1   3
ATOM      3  O   UNL     1      -0.290   1.274  -2.438  0.00  0.00    -0.454 OA
BRANCH   3   5
ATOM      4  C   UNL     1      -2.123   0.781  -3.964  0.00  0.00    +0.061 C 
ATOM      5  C   UNL     1      -1.042   1.789  -3.568  0.00  0.00    +0.244 C 
BRANCH   5   6
ATOM      6  C   UNL     1      -0.111   2.010  -4.732  0.00  0.00    +0.205 C 
ATOM      7  O   UNL     1       0.961   1.442  -4.768  0.00  0.00    -0.288 OA
BRANCH   6   8
ATOM      8  C   UNL     1      -0.488   2.880  -5.786  0.00  0.00    +0.046 A 
ATOM      9  C   UNL     1      -1.666   3.588  -5.893  0.00  0.00    +0.095 A 
ATOM     10  N   UNL     1      -1.658   4.308  -7.032  0.00  0.00    -0.360 N 
ATOM     11  H   UNL     1      -2.380   4.888  -7.322  0.00  0.00    +0.165 HD
ATOM     12  C   UNL     1      -0.486   4.104  -7.731  0.00  0.00    +0.047 A 
ATOM     13  C   UNL     1       0.300   3.206  -6.991  0.00  0.00    +0.010 A 
ATOM     14  C   UNL     1       1.550   2.817  -7.463  0.00  0.00    +0.011 A 
ATOM     15  C   UNL     1       2.012   3.318  -8.661  0.00  0.00    +0.001 A 
ATOM     16  C   UNL     1       1.238   4.204  -9.394  0.00  0.00    +0.002 A 
ATOM     17  C   UNL     1      -0.002   4.598  -8.938  0.00  0.00    +0.026 A 
ENDBRANCH   6   8
ENDBRANCH   5   6
ENDBRANCH   3   5
ENDBRANCH   1   3
BRANCH   1  18
ATOM     18  C   UNL     1      -0.013   1.086   0.008  0.00  0.00    +0.128 C 
BRANCH  18  19
ATOM     19  C   UNL     1      -0.729   1.579   1.267  0.00  0.00    +0.085 C 
BRANCH  19  20
ATOM     20  C   UNL     1       0.000   1.080   2.488  0.00  0.00    +0.111 A 
ATOM     21  N   UNL     1      -0.467   1.402   3.721  0.00  0.00    -0.310 N 
ATOM     22  H   UNL     1      -1.264   1.950   3.800  0.00  0.00    +0.170 HD
ATOM     23  C   UNL     1       0.153   0.977   4.838  0.00  0.00    +0.260 A 
ATOM     24  O   UNL     1      -0.279   1.275   5.938  0.00  0.00    -0.267 OA
ATOM     25  C   UNL     1       1.330   0.168   4.711  0.00  0.00    +0.075 A 
ATOM     26  C   UNL     1       2.159  -0.400   5.773  0.00  0.00    -0.023 A 
ATOM     27  C   UNL     1       3.226  -1.134   5.390  0.00  0.00    -0.004 A 
ATOM     28  S   UNL     1       3.187  -1.110   3.618  0.00  0.00    -0.073 S 
ATOM     29  C   UNL     1       1.736  -0.112   3.397  0.00  0.00    +0.116 A 
ATOM     30  N   UNL     1       1.067   0.341   2.340  0.00  0.00    -0.227 NA
ATOM     31  C   UNL     1       4.222  -1.817   6.276  0.00  0.00    +0.043 C 
ATOM     32  C   UNL     1       4.072  -1.256   7.697  0.00  0.00    +0.005 C 
ATOM     33  C   UNL     1       2.586  -1.250   8.068  0.00  0.00    +0.005 C 
ATOM     34  C   UNL     1       1.851  -0.186   7.252  0.00  0.00    +0.037 C 
ENDBRANCH  19  20
ENDBRANCH  18  19
ENDBRANCH   1  18
TORSDOF 7
