REMARK  Name = ZINC54710923
REMARK  5 active torsions:
REMARK  status: ('A' for Active; 'I' for Inactive)
REMARK    1  A    between atoms: C_1  and  C_2
REMARK    2  A    between atoms: C_2  and  C_3
REMARK    3  A    between atoms: C_6  and  C_8
REMARK    4  A    between atoms: C_8  and  S_9
REMARK    5  A    between atoms: S_9  and  C_10
REMARK                            x       y       z     vdW  Elec       q    Type
REMARK                         _______ _______ _______ _____ _____    ______ ____
ROOT
ATOM      1  C   UNL     1      -6.761  -4.153   1.846  0.00  0.00    +0.191 A 
ATOM      2  N   UNL     1      -7.048  -5.422   2.113  0.00  0.00    -0.207 NA
ATOM      3  C   UNL     1      -8.230  -5.792   2.575  0.00  0.00    +0.129 A 
ATOM      4  C   UNL     1      -9.232  -4.807   2.796  0.00  0.00    +0.047 A 
ATOM      5  C   UNL     1     -10.589  -4.959   3.291  0.00  0.00    +0.021 A 
ATOM      6  C   UNL     1     -11.365  -3.873   3.421  0.00  0.00    +0.048 A 
ATOM      7  S   UNL     1     -10.311  -2.542   2.878  0.00  0.00    -0.077 S 
ATOM      8  C   UNL     1      -8.857  -3.480   2.491  0.00  0.00    +0.114 A 
ATOM      9  N   UNL     1      -7.653  -3.191   2.038  0.00  0.00    -0.215 NA
ATOM     10  N   UNL     1      -8.490  -7.125   2.840  0.00  0.00    -0.343 N 
ATOM     11  H   UNL     1      -7.803  -7.793   2.686  0.00  0.00    +0.144 HD
ATOM     12  H   UNL     1      -9.359  -7.391   3.178  0.00  0.00    +0.144 HD
ENDROOT
BRANCH   1  13
ATOM     13  S   UNL     1      -5.162  -3.739   1.233  0.00  0.00    -0.081 S 
BRANCH  13  14
ATOM     14  C   UNL     1      -5.223  -1.938   1.027  0.00  0.00    +0.119 C 
BRANCH  14  18
ATOM     15  C   UNL     1      -1.412  -0.526   0.013  0.00  0.00    -0.010 A 
ATOM     16  C   UNL     1      -2.221  -0.821  -1.034  0.00  0.00    +0.011 A 
ATOM     17  C   UNL     1      -3.495  -1.293  -0.784  0.00  0.00    +0.012 A 
ATOM     18  C   UNL     1      -3.899  -1.446   0.501  0.00  0.00    +0.000 A 
ATOM     19  S   UNL     1      -2.453  -0.923   1.407  0.00  0.00    -0.097 S 
BRANCH  15  21
ATOM     20  C   UNL     1      -0.019   1.526   0.010  0.00  0.00    +0.009 C 
ATOM     21  C   UNL     1       0.002  -0.004   0.002  0.00  0.00    +0.039 C 
ENDBRANCH  15  21
ENDBRANCH  14  18
ENDBRANCH  13  14
ENDBRANCH   1  13
TORSDOF 4
