REMARK  Name = ZINC20332023
REMARK  7 active torsions:
REMARK  status: ('A' for Active; 'I' for Inactive)
REMARK    1  A    between atoms: C_1  and  C_2
REMARK    2  A    between atoms: C_2  and  C_3
REMARK    3  A    between atoms: C_3  and  C_4
REMARK    4  A    between atoms: C_14  and  C_15
REMARK    5  A    between atoms: C_15  and  N_16
REMARK    6  A    between atoms: C_21  and  C_23
REMARK    7  A    between atoms: C_23  and  C_24
REMARK                            x       y       z     vdW  Elec       q    Type
REMARK                         _______ _______ _______ _____ _____    ______ ____
ROOT
ATOM      1  C   UNL     1       4.630   1.145  -2.366  0.00  0.00    -0.030 A 
ATOM      2  C   UNL     1       4.591  -0.046  -1.713  0.00  0.00    +0.096 A 
ATOM      3  C   UNL     1       3.349  -0.651  -1.431  0.00  0.00    +0.337 A 
ATOM      4  O   UNL     1       3.329  -1.718  -0.845  0.00  0.00    -0.245 OA
ATOM      5  O   UNL     1       2.189  -0.081  -1.792  0.00  0.00    -0.422 OA
ATOM      6  C   UNL     1       2.157   1.101  -2.443  0.00  0.00    +0.144 A 
ATOM      7  C   UNL     1       3.360   1.761  -2.757  0.00  0.00    +0.023 A 
ATOM      8  C   UNL     1       3.332   2.987  -3.431  0.00  0.00    +0.035 A 
ATOM      9  C   UNL     1       2.134   3.540  -3.783  0.00  0.00    +0.089 A 
ATOM     10  C   UNL     1       0.939   2.888  -3.481  0.00  0.00    +0.202 A 
ATOM     11  C   UNL     1       0.949   1.677  -2.809  0.00  0.00    +0.027 A 
ATOM     12  O   UNL     1      -0.244   3.447  -3.844  0.00  0.00    -0.286 OA
ATOM     13 CL   UNL     1       2.099   5.061  -4.620  0.00  0.00    -0.080 Cl
ENDROOT
BRANCH   1  14
ATOM     14  C   UNL     1       5.943   1.813  -2.680  0.00  0.00    +0.036 C 
BRANCH  14  16
ATOM     15  C   UNL     1       7.609   3.505  -1.901  0.00  0.00    +0.004 C 
ATOM     16  C   UNL     1       6.275   2.826  -1.583  0.00  0.00    +0.001 C 
ENDBRANCH  14  16
ENDBRANCH   1  14
BRANCH  11  17
ATOM     17  C   UNL     1      -0.348   0.984  -2.481  0.00  0.00    -0.035 C 
BRANCH  17  18
ATOM     18  N   UNL     1      -0.729   1.288  -1.095  0.00  0.00    +0.384 N 
ATOM     19  C   UNL     1      -0.808   2.738  -0.877  0.00  0.00    -0.078 C 
ATOM     20  C   UNL     1      -1.062   3.019   0.606  0.00  0.00    -0.019 C 
ATOM     21  C   UNL     1      -2.372   2.349   1.029  0.00  0.00    -0.003 C 
ATOM     22  C   UNL     1      -2.282   0.846   0.747  0.00  0.00    -0.015 C 
ATOM     23  C   UNL     1      -1.992   0.628  -0.740  0.00  0.00    -0.068 C 
ATOM     24  H   UNL     1       0.054   0.891  -0.432  0.00  0.00    -0.081 HD
BRANCH  23  25
ATOM     25  C   UNL     1      -1.881  -0.871  -1.023  0.00  0.00    -0.019 C 
ATOM     26  C   UNL     1      -3.229  -1.542  -0.752  0.00  0.00    +0.002 C 
ENDBRANCH  23  25
ENDBRANCH  17  18
ENDBRANCH  11  17
TORSDOF 5
