REMARK  Name = ZINC36303700
REMARK  15 active torsions:
REMARK  status: ('A' for Active; 'I' for Inactive)
REMARK    1  A    between atoms: C_1  and  C_2
REMARK    2  A    between atoms: C_3  and  C_21
REMARK    3  A    between atoms: C_4  and  O_13
REMARK    4  A    between atoms: N_5  and  C_7
REMARK    5  A    between atoms: O_13  and  C_14
REMARK    6  A    between atoms: C_21  and  N_22
REMARK    7  A    between atoms: N_22  and  C_23
REMARK    8  A    between atoms: N_22  and  C_31
REMARK    9  A    between atoms: C_23  and  C_24
REMARK   10  A    between atoms: C_24  and  C_26
REMARK   11  A    between atoms: C_24  and  O_30
REMARK   12  A    between atoms: C_26  and  C_27
REMARK   13  A    between atoms: C_27  and  C_28
REMARK   14  A    between atoms: C_31  and  C_32
REMARK   15  A    between atoms: C_31  and  C_33
REMARK                            x       y       z     vdW  Elec       q    Type
REMARK                         _______ _______ _______ _____ _____    ______ ____
ROOT
ATOM      1  C   UNL     1       2.808   2.487  -0.959  0.00  0.00    +0.068 C 
ATOM      2  C   UNL     1       1.992   1.444  -0.240  0.00  0.00    +0.065 A 
ATOM      3  C   UNL     1       1.135   0.518  -0.843  0.00  0.00    +0.021 A 
ATOM      4  C   UNL     1       0.587  -0.246   0.140  0.00  0.00    +0.225 A 
ATOM      5  N   UNL     1       1.090   0.192   1.326  0.00  0.00    -0.200 N 
ATOM      6  N   UNL     1       1.970   1.248   1.054  0.00  0.00    -0.168 NA
ENDROOT
BRANCH   5   7
ATOM      7  C   UNL     1       0.785  -0.324   2.593  0.00  0.00    +0.069 A 
ATOM      8  C   UNL     1      -0.525  -0.657   2.911  0.00  0.00    +0.028 A 
ATOM      9  C   UNL     1      -0.822  -1.165   4.161  0.00  0.00    +0.002 A 
ATOM     10  C   UNL     1       0.183  -1.342   5.094  0.00  0.00    +0.000 A 
ATOM     11  C   UNL     1       1.488  -1.010   4.780  0.00  0.00    +0.002 A 
ATOM     12  C   UNL     1       1.793  -0.507   3.530  0.00  0.00    +0.028 A 
ENDBRANCH   5   7
BRANCH   4  13
ATOM     13  O   UNL     1      -0.299  -1.260  -0.031  0.00  0.00    -0.438 OA
BRANCH  13  14
ATOM     14  C   UNL     1      -1.619  -0.946  -0.110  0.00  0.00    +0.130 A 
ATOM     15  C   UNL     1      -2.032   0.368   0.056  0.00  0.00    +0.048 A 
ATOM     16  C   UNL     1      -3.374   0.684  -0.025  0.00  0.00    +0.023 A 
ATOM     17  C   UNL     1      -4.307  -0.308  -0.271  0.00  0.00    +0.041 A 
ATOM     18  C   UNL     1      -3.897  -1.620  -0.437  0.00  0.00    +0.023 A 
ATOM     19  C   UNL     1      -2.555  -1.939  -0.362  0.00  0.00    +0.048 A 
ATOM     20 CL   UNL     1      -5.993   0.092  -0.372  0.00  0.00    -0.084 Cl
ENDBRANCH  13  14
ENDBRANCH   4  13
BRANCH   3  21
ATOM     21  C   UNL     1       0.865   0.390  -2.320  0.00  0.00    -0.035 C 
BRANCH  21  22
ATOM     22  N   UNL     1       2.118   0.076  -3.021  0.00  0.00    +0.386 N 
ATOM     23  H   UNL     1       2.833   0.731  -2.740  0.00  0.00    -0.081 HD
BRANCH  22  24
ATOM     24  C   UNL     1       2.542  -1.288  -2.679  0.00  0.00    -0.074 C 
ATOM     25  C   UNL     1       2.934  -1.346  -1.202  0.00  0.00    -0.014 C 
ATOM     26  C   UNL     1       1.389  -2.260  -2.939  0.00  0.00    -0.014 C 
ENDBRANCH  22  24
BRANCH  22  27
ATOM     27  C   UNL     1       1.905   0.175  -4.471  0.00  0.00    -0.046 C 
BRANCH  27  28
ATOM     28  C   UNL     1       3.242   0.002  -5.195  0.00  0.00    +0.098 C 
BRANCH  28  29
ATOM     29  O   UNL     1       4.138   1.040  -4.795  0.00  0.00    -0.394 OA
ATOM     30  H   UNL     1       3.820   1.932  -4.992  0.00  0.00    +0.210 HD
ENDBRANCH  28  29
BRANCH  28  31
ATOM     31  C   UNL     1       3.016   0.077  -6.707  0.00  0.00    +0.033 C 
BRANCH  31  32
ATOM     32  C   UNL     1       4.329  -0.219  -7.434  0.00  0.00    +0.029 C 
BRANCH  32  33
ATOM     33  C   UNL     1       4.107  -0.145  -8.922  0.00  0.00    -0.034 C 
ATOM     34  C   UNL     1       4.849   0.647  -9.657  0.00  0.00    +0.004 C 
ENDBRANCH  32  33
ENDBRANCH  31  32
ENDBRANCH  28  31
ENDBRANCH  27  28
ENDBRANCH  22  27
ENDBRANCH  21  22
ENDBRANCH   3  21
TORSDOF 12
