REMARK  Name = ZINC39912177
REMARK  15 active torsions:
REMARK  status: ('A' for Active; 'I' for Inactive)
REMARK    1  A    between atoms: C_1  and  C_2
REMARK    2  A    between atoms: C_2  and  C_3
REMARK    3  A    between atoms: C_3  and  C_4
REMARK    4  A    between atoms: C_4  and  C_5
REMARK    5  A    between atoms: C_5  and  O_6
REMARK    6  A    between atoms: O_6  and  C_7
REMARK    7  A    between atoms: C_10  and  C_15
REMARK    8  A    between atoms: C_12  and  O_13
REMARK    9  A    between atoms: O_13  and  C_14
REMARK   10  A    between atoms: C_18  and  C_32
REMARK   11  A    between atoms: N_25  and  C_26
REMARK   12  A    between atoms: C_26  and  C_27
REMARK   13  A    between atoms: C_34  and  C_40
REMARK   14  A    between atoms: C_36  and  C_39
REMARK   15  A    between atoms: C_37  and  O_38
REMARK                            x       y       z     vdW  Elec       q    Type
REMARK                         _______ _______ _______ _____ _____    ______ ____
ROOT
ATOM      1  C   UNL     1       4.823  -6.341   6.241  0.00  0.00    +0.142 C 
ATOM      2  C   UNL     1       6.257  -6.281   5.793  0.00  0.00    +0.035 A 
ATOM      3  C   UNL     1       7.207  -6.636   4.830  0.00  0.00    +0.102 A 
ATOM      4  N   UNL     1       8.367  -6.143   5.219  0.00  0.00    -0.173 NA
ATOM      5  N   UNL     1       8.243  -5.512   6.332  0.00  0.00    -0.272 N 
ATOM      6  H   UNL     1       8.964  -5.069   6.804  0.00  0.00    +0.189 HD
ATOM      7  C   UNL     1       6.943  -5.559   6.750  0.00  0.00    +0.126 A 
ATOM      8  C   UNL     1       5.997  -5.154   7.796  0.00  0.00    +0.266 C 
ATOM      9  O   UNL     1       6.288  -4.504   8.782  0.00  0.00    -0.268 OA
ATOM     10  N   UNL     1       4.761  -5.604   7.511  0.00  0.00    -0.278 N 
ENDROOT
BRANCH   3  11
ATOM     11  C   UNL     1       6.957  -7.424   3.597  0.00  0.00    +0.044 A 
ATOM     12  C   UNL     1       5.706  -7.994   3.373  0.00  0.00    +0.017 A 
ATOM     13  C   UNL     1       5.478  -8.725   2.225  0.00  0.00    -0.049 A 
ATOM     14  C   UNL     1       6.488  -8.895   1.295  0.00  0.00    +0.010 A 
ATOM     15  C   UNL     1       7.733  -8.333   1.507  0.00  0.00    -0.008 A 
ATOM     16  C   UNL     1       7.973  -7.591   2.652  0.00  0.00    +0.129 A 
ATOM     17  C   UNL     1       8.828  -8.523   0.489  0.00  0.00    +0.047 C 
ATOM     18  C   UNL     1       4.124  -9.342   1.985  0.00  0.00    +0.044 C 
BRANCH  16  19
ATOM     19  O   UNL     1       9.195  -7.034   2.859  0.00  0.00    -0.506 OA
ATOM     20  H   UNL     1       9.813  -7.606   3.334  0.00  0.00    +0.292 HD
ENDBRANCH  16  19
ENDBRANCH   3  11
BRANCH   1  24
ATOM     21  C   UNL     1       2.291  -4.488   3.335  0.00  0.00    +0.162 A 
ATOM     22  C   UNL     1       2.241  -5.859   3.528  0.00  0.00    +0.050 A 
ATOM     23  C   UNL     1       3.061  -6.455   4.468  0.00  0.00    +0.009 A 
ATOM     24  C   UNL     1       3.932  -5.686   5.218  0.00  0.00    -0.019 A 
ATOM     25  C   UNL     1       3.987  -4.317   5.030  0.00  0.00    +0.055 A 
ATOM     26  C   UNL     1       3.172  -3.714   4.085  0.00  0.00    +0.162 A 
BRANCH  26  27
ATOM     27  O   UNL     1       3.229  -2.369   3.895  0.00  0.00    -0.491 OA
ATOM     28  C   UNL     1       4.189  -1.645   4.668  0.00  0.00    +0.277 C 
ENDBRANCH  26  27
BRANCH  21  29
ATOM     29  O   UNL     1       1.486  -3.900   2.410  0.00  0.00    -0.488 OA
BRANCH  29  30
ATOM     30  C   UNL     1       0.607  -4.756   1.677  0.00  0.00    +0.229 C 
BRANCH  30  31
ATOM     31  C   UNL     1      -0.213  -3.921   0.692  0.00  0.00    +0.041 C 
BRANCH  31  32
ATOM     32  C   UNL     1      -1.154  -4.837  -0.093  0.00  0.00    +0.003 C 
BRANCH  32  34
ATOM     33  C   UNL     1      -2.915  -4.919  -1.863  0.00  0.00    +0.004 C 
ATOM     34  C   UNL     1      -1.974  -4.003  -1.079  0.00  0.00    -0.003 C 
ENDBRANCH  32  34
ENDBRANCH  31  32
ENDBRANCH  30  31
ENDBRANCH  29  30
ENDBRANCH  21  29
ENDBRANCH   1  24
BRANCH  10  35
ATOM     35  C   UNL     1       3.560  -5.395   8.324  0.00  0.00    +0.183 C 
BRANCH  35  36
ATOM     36  C   UNL     1       3.421  -6.524   9.313  0.00  0.00    +0.122 A 
ATOM     37  C   UNL     1       3.933  -6.548  10.556  0.00  0.00    +0.046 A 
ATOM     38  C   UNL     1       3.563  -7.787  11.127  0.00  0.00    +0.041 A 
ATOM     39  C   UNL     1       2.846  -8.446  10.199  0.00  0.00    +0.195 A 
ATOM     40  O   UNL     1       2.759  -7.674   9.104  0.00  0.00    -0.466 OA
ENDBRANCH  35  36
ENDBRANCH  10  35
TORSDOF 11
