REMARK  Name = ZINC64002118
REMARK  13 active torsions:
REMARK  status: ('A' for Active; 'I' for Inactive)
REMARK    1  A    between atoms: C_1  and  O_2
REMARK    2  A    between atoms: O_2  and  C_3
REMARK    3  A    between atoms: C_3  and  C_4
REMARK    4  A    between atoms: C_4  and  C_5
REMARK    5  A    between atoms: N_7  and  C_8
REMARK    6  A    between atoms: C_12  and  N_34
REMARK    7  A    between atoms: N_16  and  C_23
REMARK    8  A    between atoms: C_17  and  C_19
REMARK    9  A    between atoms: C_19  and  O_21
REMARK   10  A    between atoms: O_21  and  C_22
REMARK   11  A    between atoms: C_23  and  C_24
REMARK   12  A    between atoms: C_24  and  C_25
REMARK   13  A    between atoms: N_34  and  C_35
REMARK                            x       y       z     vdW  Elec       q    Type
REMARK                         _______ _______ _______ _____ _____    ______ ____
ROOT
ATOM      1  C   UNL     1       2.119  -4.651   3.456  0.00  0.00    +0.138 C 
ATOM      2  C   UNL     1       3.594  -4.801   3.168  0.00  0.00    +0.015 A 
ATOM      3  C   UNL     1       4.567  -3.863   2.878  0.00  0.00    +0.033 A 
ATOM      4  C   UNL     1       5.870  -4.305   2.653  0.00  0.00    +0.044 A 
ATOM      5  C   UNL     1       6.135  -5.664   2.728  0.00  0.00    +0.107 A 
ATOM      6  N   UNL     1       5.181  -6.527   3.006  0.00  0.00    -0.348 N 
ATOM      7  C   UNL     1       3.923  -6.148   3.228  0.00  0.00    +0.105 A 
ATOM      8  N   UNL     1       2.812  -6.932   3.531  0.00  0.00    -0.301 N 
ATOM      9  C   UNL     1       1.623  -6.086   3.697  0.00  0.00    +0.208 C 
ATOM     10  H   UNL     1       5.402  -7.471   3.051  0.00  0.00    +0.167 HD
ENDROOT
BRANCH   1  13
ATOM     11  C   UNL     1       1.341  -2.718   2.193  0.00  0.00    +0.216 C 
ATOM     12  O   UNL     1       1.830  -2.003   3.042  0.00  0.00    -0.276 OA
ATOM     13  N   UNL     1       1.430  -4.058   2.307  0.00  0.00    -0.306 N 
ATOM     14  H   UNL     1       1.039  -4.629   1.628  0.00  0.00    +0.149 HD
BRANCH  11  15
ATOM     15  C   UNL     1       0.633  -2.108   1.011  0.00  0.00    +0.124 C 
BRANCH  15  16
ATOM     16  C   UNL     1       0.673  -0.582   1.123  0.00  0.00    +0.168 C 
BRANCH  16  18
ATOM     17  C   UNL     1      -0.017   1.425   0.010  0.00  0.00    +0.194 C 
ATOM     18  O   UNL     1       0.002  -0.004   0.002  0.00  0.00    -0.382 OA
ENDBRANCH  16  18
ENDBRANCH  15  16
ENDBRANCH  11  15
ENDBRANCH   1  13
BRANCH   9  19
ATOM     19  C   UNL     1       0.574  -6.455   2.680  0.00  0.00    +0.330 C 
ATOM     20  O   UNL     1       0.871  -7.125   1.720  0.00  0.00    -0.249 OA
BRANCH  19  21
ATOM     21  O   UNL     1      -0.692  -6.038   2.842  0.00  0.00    -0.467 OA
ATOM     22  C   UNL     1      -1.635  -6.423   1.839  0.00  0.00    +0.280 C 
ENDBRANCH  19  21
ENDBRANCH   9  19
BRANCH   4  23
ATOM     23  N   UNL     1       6.890  -3.394   2.356  0.00  0.00    -0.339 N 
ATOM     24  H   UNL     1       6.694  -2.445   2.305  0.00  0.00    +0.146 HD
BRANCH  23  25
ATOM     25  C   UNL     1       8.255  -3.873   2.121  0.00  0.00    +0.081 C 
ATOM     26  C   UNL     1       9.235  -2.764   2.501  0.00  0.00    +0.033 C 
ATOM     27  C   UNL     1      10.541  -2.890   1.667  0.00  0.00    +0.071 C 
ATOM     28  S   UNL     1       9.818  -3.360   0.034  0.00  0.00    -0.159 S 
ATOM     29  C   UNL     1       8.376  -4.318   0.651  0.00  0.00    +0.091 C 
ENDBRANCH  23  25
ENDBRANCH   4  23
BRANCH   8  30
ATOM     30  C   UNL     1       2.828  -8.391   3.667  0.00  0.00    +0.112 C 
BRANCH  30  31
ATOM     31  C   UNL     1       3.122  -8.765   5.121  0.00  0.00    +0.052 C 
BRANCH  31  32
ATOM     32  C   UNL     1       3.137 -10.265   5.260  0.00  0.00    -0.040 C 
ATOM     33  C   UNL     1       4.220 -11.075   5.217  0.00  0.00    -0.001 A 
ATOM     34  C   UNL     1       5.652 -10.810   5.033  0.00  0.00    +0.010 A 
ATOM     35  C   UNL     1       6.517 -11.851   5.035  0.00  0.00    +0.001 A 
ATOM     36  C   UNL     1       6.080 -13.171   5.207  0.00  0.00    +0.002 A 
ATOM     37  C   UNL     1       4.781 -13.493   5.382  0.00  0.00    +0.026 A 
ATOM     38  C   UNL     1       3.785 -12.478   5.397  0.00  0.00    +0.043 A 
ATOM     39  N   UNL     1       2.484 -12.534   5.546  0.00  0.00    -0.380 N 
ATOM     40  C   UNL     1       1.946 -11.171   5.483  0.00  0.00    +0.144 C 
ATOM     41  H   UNL     1       1.964 -13.342   5.680  0.00  0.00    +0.160 HD
ENDBRANCH  31  32
ENDBRANCH  30  31
ENDBRANCH   8  30
TORSDOF 11
