REMARK  Name = ZINC14478121
REMARK  6 active torsions:
REMARK  status: ('A' for Active; 'I' for Inactive)
REMARK    1  A    between atoms: C_2  and  C_3
REMARK    2  A    between atoms: C_3  and  N_4
REMARK    3  A    between atoms: N_4  and  S_5
REMARK    4  A    between atoms: S_5  and  C_8
REMARK    5  A    between atoms: C_21  and  C_24
REMARK    6  A    between atoms: C_29  and  N_30
REMARK                            x       y       z     vdW  Elec       q    Type
REMARK                         _______ _______ _______ _____ _____    ______ ____
ROOT
ATOM      1  C   UNL     1      -2.601   0.822   0.210  0.00  0.00    +0.106 A 
ATOM      2  C   UNL     1      -2.359   2.183   0.183  0.00  0.00    +0.030 A 
ATOM      3  C   UNL     1      -1.060   2.646   0.120  0.00  0.00    +0.025 A 
ATOM      4  C   UNL     1      -0.003   1.745   0.075  0.00  0.00    +0.031 A 
ATOM      5  C   UNL     1      -0.241   0.379   0.100  0.00  0.00    -0.018 A 
ATOM      6  C   UNL     1      -1.552  -0.073   0.169  0.00  0.00    +0.034 A 
ATOM      7  C   UNL     1       0.865  -0.627   0.055  0.00  0.00    +0.049 C 
ATOM      8  C   UNL     1       1.090  -1.260   1.407  0.00  0.00    -0.023 C 
ATOM      9  C   UNL     1       2.352  -1.499   1.602  0.00  0.00    -0.030 C 
ATOM     10  C   UNL     1       3.166  -1.037   0.409  0.00  0.00    +0.033 C 
ATOM     11  C   UNL     1       2.232  -0.004  -0.287  0.00  0.00    +0.029 C 
ATOM     12  C   UNL     1       2.397   1.329   0.447  0.00  0.00    +0.107 C 
ATOM     13  N   UNL     1       1.308   2.228   0.012  0.00  0.00    -0.336 N 
ATOM     14  H   UNL     1       1.491   3.133  -0.288  0.00  0.00    +0.147 HD
ENDROOT
BRANCH  12  15
ATOM     15  C   UNL     1       2.339   1.097   1.935  0.00  0.00    +0.003 A 
ATOM     16  C   UNL     1       1.122   1.115   2.590  0.00  0.00    +0.008 A 
ATOM     17  C   UNL     1       1.067   0.897   3.954  0.00  0.00    +0.000 A 
ATOM     18  C   UNL     1       2.232   0.672   4.664  0.00  0.00    +0.002 A 
ATOM     19  C   UNL     1       3.450   0.660   4.011  0.00  0.00    +0.033 A 
ATOM     20  C   UNL     1       3.503   0.873   2.645  0.00  0.00    +0.131 A 
BRANCH  20  21
ATOM     21  N   UNL     1       4.807   0.860   1.945  0.00  0.00    +0.057 N 
ATOM     22  O   UNL     1       5.817   0.540   2.545  0.00  0.00    -0.126 OA
ATOM     23  O   UNL     1       4.870   1.170   0.769  0.00  0.00    -0.126 OA
ENDBRANCH  20  21
ENDBRANCH  12  15
BRANCH   1  24
ATOM     24  S   UNL     1      -4.257   0.227   0.299  0.00  0.00    +0.059 S 
ATOM     25  O   UNL     1      -5.087   1.256  -0.223  0.00  0.00    -0.153 OA
ATOM     26  O   UNL     1      -4.246  -1.088  -0.238  0.00  0.00    -0.153 OA
BRANCH  24  27
ATOM     27  N   UNL     1      -4.639   0.080   1.904  0.00  0.00    -0.186 NA
ATOM     28  H   UNL     1      -4.818  -0.795   2.281  0.00  0.00    +0.148 HD
BRANCH  27  29
ATOM     29  C   UNL     1      -4.707   1.272   2.753  0.00  0.00    +0.132 C 
BRANCH  29  31
ATOM     30  C   UNL     1      -4.835   1.169   5.189  0.00  0.00    +0.005 C 
ATOM     31  C   UNL     1      -5.416   0.933   4.039  0.00  0.00    -0.018 C 
ENDBRANCH  29  31
ENDBRANCH  27  29
ENDBRANCH  24  27
ENDBRANCH   1  24
TORSDOF 6
