REMARK  Name = ZINC35807806
REMARK  16 active torsions:
REMARK  status: ('A' for Active; 'I' for Inactive)
REMARK    1  A    between atoms: C_1  and  C_2
REMARK    2  A    between atoms: C_2  and  C_3
REMARK    3  A    between atoms: C_3  and  C_4
REMARK    4  A    between atoms: C_4  and  N_5
REMARK    5  A    between atoms: C_6  and  C_8
REMARK    6  A    between atoms: C_11  and  C_13
REMARK    7  A    between atoms: C_13  and  N_14
REMARK    8  A    between atoms: N_14  and  C_15
REMARK    9  A    between atoms: N_14  and  C_27
REMARK   10  A    between atoms: C_15  and  C_16
REMARK   11  A    between atoms: C_16  and  C_17
REMARK   12  A    between atoms: C_20  and  O_25
REMARK   13  A    between atoms: C_21  and  O_23
REMARK   14  A    between atoms: O_23  and  C_24
REMARK   15  A    between atoms: O_25  and  C_26
REMARK   16  A    between atoms: C_27  and  C_28
REMARK                            x       y       z     vdW  Elec       q    Type
REMARK                         _______ _______ _______ _____ _____    ______ ____
ROOT
ATOM      1  N   UNL     1       3.117  -2.950   8.055  0.00  0.00    -0.292 NA
ENDROOT
BRANCH   1   2
ATOM      2  C   UNL     1       3.823  -3.120   6.778  0.00  0.00    +0.147 C 
BRANCH   2   6
ATOM      3  C   UNL     1       1.332  -4.195   4.237  0.00  0.00    +0.133 A 
ATOM      4  C   UNL     1       1.679  -5.516   4.320  0.00  0.00    +0.080 A 
ATOM      5  S   UNL     1       2.901  -5.498   5.472  0.00  0.00    -0.078 S 
ATOM      6  C   UNL     1       2.934  -3.853   5.807  0.00  0.00    +0.093 A 
ATOM      7  N   UNL     1       2.014  -3.358   5.026  0.00  0.00    -0.238 NA
BRANCH   3   9
ATOM      8  N   UNL     1      -0.033  -2.411   3.276  0.00  0.00    -0.310 N 
ATOM      9  C   UNL     1       0.273  -3.722   3.330  0.00  0.00    +0.263 C 
ATOM     10  O   UNL     1      -0.325  -4.515   2.628  0.00  0.00    -0.269 OA
ATOM     11  H   UNL     1       0.444  -1.778   3.836  0.00  0.00    +0.149 HD
BRANCH   8  12
ATOM     12  C   UNL     1      -1.087  -1.940   2.373  0.00  0.00    +0.104 C 
BRANCH  12  13
ATOM     13  C   UNL     1      -1.233  -0.423   2.506  0.00  0.00    +0.018 C 
BRANCH  13  15
ATOM     14  C   UNL     1      -2.479   1.585   1.696  0.00  0.00    +0.004 C 
ATOM     15  C   UNL     1      -2.333   0.068   1.563  0.00  0.00    -0.002 C 
ENDBRANCH  13  15
ENDBRANCH  12  13
ENDBRANCH   8  12
ENDBRANCH   3   9
ENDBRANCH   2   6
ENDBRANCH   1   2
BRANCH   1  16
ATOM     16  C   UNL     1       3.794  -1.959   8.902  0.00  0.00    +0.090 C 
BRANCH  16  17
ATOM     17  C   UNL     1       2.857  -1.529  10.033  0.00  0.00    +0.050 C 
BRANCH  17  18
ATOM     18  C   UNL     1       3.526  -0.465  10.863  0.00  0.00    -0.042 A 
ATOM     19  C   UNL     1       4.303  -0.824  11.949  0.00  0.00    +0.007 A 
ATOM     20  C   UNL     1       4.920   0.148  12.714  0.00  0.00    +0.049 A 
ATOM     21  C   UNL     1       4.760   1.487  12.393  0.00  0.00    +0.161 A 
ATOM     22  C   UNL     1       3.978   1.849  11.301  0.00  0.00    +0.162 A 
ATOM     23  C   UNL     1       3.367   0.869  10.535  0.00  0.00    +0.053 A 
BRANCH  22  24
ATOM     24  O   UNL     1       3.818   3.161  10.982  0.00  0.00    -0.491 OA
ATOM     25  C   UNL     1       3.001   3.458   9.847  0.00  0.00    +0.277 C 
ENDBRANCH  22  24
BRANCH  21  26
ATOM     26  O   UNL     1       5.365   2.445  13.145  0.00  0.00    -0.491 OA
ATOM     27  C   UNL     1       6.152   2.000  14.252  0.00  0.00    +0.277 C 
ENDBRANCH  21  26
ENDBRANCH  17  18
ENDBRANCH  16  17
ENDBRANCH   1  16
BRANCH   1  28
ATOM     28  C   UNL     1       2.978  -4.234   8.755  0.00  0.00    +0.120 C 
BRANCH  28  29
ATOM     29  C   UNL     1       4.342  -4.744   9.145  0.00  0.00    -0.030 A 
ATOM     30  C   UNL     1       5.056  -5.541   8.270  0.00  0.00    +0.009 A 
ATOM     31  C   UNL     1       6.308  -6.010   8.623  0.00  0.00    +0.050 A 
ATOM     32  C   UNL     1       6.849  -5.683   9.856  0.00  0.00    +0.166 A 
ATOM     33  C   UNL     1       6.129  -4.880  10.737  0.00  0.00    +0.167 A 
ATOM     34  C   UNL     1       4.878  -4.408  10.374  0.00  0.00    +0.054 A 
ATOM     35  O   UNL     1       6.869  -4.704  11.871  0.00  0.00    -0.453 OA
ATOM     36  C   UNL     1       7.870  -5.739  11.841  0.00  0.00    +0.466 C 
ATOM     37  O   UNL     1       8.040  -6.010  10.437  0.00  0.00    -0.453 OA
ENDBRANCH  28  29
ENDBRANCH   1  28
TORSDOF 13
