REMARK  Name = ZINC13154941
REMARK  5 active torsions:
REMARK  status: ('A' for Active; 'I' for Inactive)
REMARK    1  A    between atoms: C_1  and  C_2
REMARK    2  A    between atoms: C_2  and  N_3
REMARK    3  A    between atoms: C_15  and  C_21
REMARK    4  A    between atoms: C_17  and  O_19
REMARK    5  A    between atoms: O_19  and  C_20
REMARK                            x       y       z     vdW  Elec       q    Type
REMARK                         _______ _______ _______ _____ _____    ______ ____
ROOT
ATOM      1  N   UNL     1       3.577   0.740   0.268  0.00  0.00    -0.321 N 
ATOM      2  C   UNL     1       3.906   1.079  -1.041  0.00  0.00    +0.051 A 
ATOM      3  C   UNL     1       5.176   0.778  -1.521  0.00  0.00    +0.025 A 
ATOM      4  C   UNL     1       5.532   1.124  -2.810  0.00  0.00    +0.002 A 
ATOM      5  C   UNL     1       4.628   1.772  -3.632  0.00  0.00    +0.002 A 
ATOM      6  C   UNL     1       3.361   2.067  -3.167  0.00  0.00    +0.025 A 
ATOM      7  C   UNL     1       2.993   1.714  -1.877  0.00  0.00    +0.050 A 
ATOM      8  N   UNL     1       1.699   1.989  -1.429  0.00  0.00    -0.320 N 
ATOM      9  C   UNL     1       1.348   1.827  -0.022  0.00  0.00    +0.214 C 
ATOM     10  C   UNL     1       2.178   0.674   0.589  0.00  0.00    +0.132 C 
ATOM     11  C   UNL     1       1.445  -0.535  -0.027  0.00  0.00    +0.128 C 
ATOM     12  C   UNL     1       0.007  -0.036  -0.049  0.00  0.00    +0.196 C 
ATOM     13  N   UNL     1      -0.022   1.253  -0.033  0.00  0.00    -0.230 NA
ATOM     14  H   UNL     1       1.028   2.292  -2.061  0.00  0.00    +0.148 HD
ENDROOT
BRANCH  11  15
ATOM     15  C   UNL     1       1.581  -1.754   0.848  0.00  0.00    -0.034 A 
ATOM     16  C   UNL     1       1.234  -1.688   2.185  0.00  0.00    +0.004 A 
ATOM     17  C   UNL     1       1.354  -2.808   2.986  0.00  0.00    +0.000 A 
ATOM     18  C   UNL     1       1.832  -3.991   2.454  0.00  0.00    +0.000 A 
ATOM     19  C   UNL     1       2.184  -4.056   1.119  0.00  0.00    +0.000 A 
ATOM     20  C   UNL     1       2.059  -2.937   0.316  0.00  0.00    +0.004 A 
ENDBRANCH  11  15
BRANCH   1  22
ATOM     21  C   UNL     1       4.248  -0.592   2.210  0.00  0.00    +0.024 C 
ATOM     22  C   UNL     1       4.270  -0.487   0.684  0.00  0.00    +0.102 C 
ENDBRANCH   1  22
BRANCH  12  23
ATOM     23  O   UNL     1      -1.083  -0.831  -0.080  0.00  0.00    -0.482 OA
ATOM     24  C   UNL     1      -2.357  -0.184  -0.097  0.00  0.00    +0.278 C 
ENDBRANCH  12  23
TORSDOF 3
