REMARK  Name = ZINC63664191
REMARK  9 active torsions:
REMARK  status: ('A' for Active; 'I' for Inactive)
REMARK    1  A    between atoms: C_1  and  C_2
REMARK    2  A    between atoms: C_4  and  C_14
REMARK    3  A    between atoms: C_7  and  O_12
REMARK    4  A    between atoms: O_12  and  C_13
REMARK    5  A    between atoms: C_14  and  C_15
REMARK    6  A    between atoms: C_15  and  N_16
REMARK    7  A    between atoms: N_16  and  C_17
REMARK    8  A    between atoms: C_17  and  N_19
REMARK    9  A    between atoms: N_19  and  C_20
REMARK                            x       y       z     vdW  Elec       q    Type
REMARK                         _______ _______ _______ _____ _____    ______ ____
ROOT
ATOM      1  C   UNL     1      -2.785   0.303  -0.615  0.00  0.00    +0.052 C 
ENDROOT
BRANCH   1   4
ATOM      2  C   UNL     1      -0.538   2.504   0.168  0.00  0.00    +0.035 C 
ATOM      3  C   UNL     1      -0.491   1.040   0.608  0.00  0.00    +0.103 C 
ATOM      4  C   UNL     1      -1.881   0.443   0.583  0.00  0.00    -0.037 C 
ATOM      5  C   UNL     1      -2.148   0.061   1.852  0.00  0.00    +0.003 A 
ATOM      6  C   UNL     1      -3.314  -0.574   2.476  0.00  0.00    +0.055 A 
ATOM      7  C   UNL     1      -3.296  -0.844   3.803  0.00  0.00    +0.121 A 
ATOM      8  C   UNL     1      -2.191  -0.537   4.617  0.00  0.00    +0.047 A 
ATOM      9  C   UNL     1      -1.074   0.048   4.135  0.00  0.00    +0.029 A 
ATOM     10  C   UNL     1      -0.985   0.385   2.711  0.00  0.00    +0.043 A 
ATOM     11  N   UNL     1      -0.036   0.944   2.000  0.00  0.00    -0.378 N 
ATOM     12  H   UNL     1       0.823   1.245   2.336  0.00  0.00    +0.160 HD
BRANCH   7  13
ATOM     13  O   UNL     1      -4.383  -1.433   4.368  0.00  0.00    -0.495 OA
ATOM     14  C   UNL     1      -4.321  -1.700   5.770  0.00  0.00    +0.277 C 
ENDBRANCH   7  13
ENDBRANCH   1   4
BRANCH   1  15
ATOM     15  C   UNL     1      -4.098  -0.355  -0.188  0.00  0.00    +0.107 C 
BRANCH  15  16
ATOM     16  N   UNL     1      -4.977  -0.491  -1.352  0.00  0.00    -0.326 N 
ATOM     17  H   UNL     1      -4.682  -0.180  -2.222  0.00  0.00    +0.148 HD
BRANCH  16  18
ATOM     18  C   UNL     1      -6.197  -1.048  -1.214  0.00  0.00    +0.135 C 
ATOM     19  S   UNL     1      -6.719  -1.597   0.321  0.00  0.00    -0.019 S 
BRANCH  18  20
ATOM     20  N   UNL     1      -7.005  -1.173  -2.285  0.00  0.00    -0.297 N 
ATOM     21  H   UNL     1      -6.736  -0.807  -3.142  0.00  0.00    +0.154 HD
BRANCH  20  22
ATOM     22  C   UNL     1      -8.234  -1.831  -2.161  0.00  0.00    +0.033 A 
ATOM     23  C   UNL     1      -9.067  -1.552  -1.085  0.00  0.00    +0.024 A 
ATOM     24  C   UNL     1     -10.279  -2.202  -0.965  0.00  0.00    +0.016 A 
ATOM     25  C   UNL     1     -10.664  -3.131  -1.915  0.00  0.00    +0.013 A 
ATOM     26  C   UNL     1      -9.836  -3.412  -2.987  0.00  0.00    +0.016 A 
ATOM     27  C   UNL     1      -8.626  -2.760  -3.116  0.00  0.00    +0.024 A 
ATOM     28  I   UNL     1     -12.504  -4.116  -1.729  0.00  0.00    -0.044 I 
ENDBRANCH  20  22
ENDBRANCH  18  20
ENDBRANCH  16  18
ENDBRANCH  15  16
ENDBRANCH   1  15
TORSDOF 7
