REMARK  Name = ZINC39676593
REMARK  13 active torsions:
REMARK  status: ('A' for Active; 'I' for Inactive)
REMARK    1  A    between atoms: C_1  and  C_2
REMARK    2  A    between atoms: C_2  and  C_3
REMARK    3  A    between atoms: C_3  and  C_5
REMARK    4  A    between atoms: C_3  and  C_6
REMARK    5  A    between atoms: C_6  and  C_7
REMARK    6  A    between atoms: C_11  and  C_20
REMARK    7  A    between atoms: N_22  and  C_23
REMARK    8  A    between atoms: C_23  and  C_24
REMARK    9  A    between atoms: C_23  and  C_32
REMARK   10  A    between atoms: C_27  and  O_30
REMARK   11  A    between atoms: O_30  and  C_31
REMARK   12  A    between atoms: C_35  and  O_38
REMARK   13  A    between atoms: O_38  and  C_39
REMARK                            x       y       z     vdW  Elec       q    Type
REMARK                         _______ _______ _______ _____ _____    ______ ____
ROOT
ATOM      1  C   UNL     1      -2.385  -7.464  -0.210  0.00  0.00    +0.219 C 
ATOM      2  O   UNL     1      -2.305  -7.566  -1.416  0.00  0.00    -0.275 OA
ATOM      3  N   UNL     1      -2.188  -8.543   0.573  0.00  0.00    -0.304 N 
ATOM      4  H   UNL     1      -2.252  -8.461   1.537  0.00  0.00    +0.150 HD
ENDROOT
BRANCH   1   9
ATOM      5  C   UNL     1      -2.865  -2.572  -0.245  0.00  0.00    +0.216 C 
ATOM      6  O   UNL     1      -3.800  -1.800  -0.209  0.00  0.00    -0.276 OA
ATOM      7  N   UNL     1      -3.088  -3.896  -0.365  0.00  0.00    -0.300 N 
ATOM      8  C   UNL     1      -2.084  -4.985  -0.419  0.00  0.00    +0.121 C 
ATOM      9  C   UNL     1      -2.705  -6.129   0.413  0.00  0.00    +0.100 C 
ATOM     10  C   UNL     1      -4.220  -5.867   0.373  0.00  0.00    -0.004 C 
ATOM     11  C   UNL     1      -4.393  -4.592  -0.465  0.00  0.00    +0.115 C 
ATOM     12  C   UNL     1      -4.754  -5.640   1.784  0.00  0.00    -0.010 C 
ATOM     13  C   UNL     1      -6.271  -5.438   1.724  0.00  0.00    -0.082 C 
ATOM     14  N   UNL     1      -6.901  -6.620   1.125  0.00  0.00    +0.379 N 
ATOM     15  C   UNL     1      -6.451  -6.778  -0.264  0.00  0.00    -0.082 C 
ATOM     16  C   UNL     1      -4.942  -7.037  -0.288  0.00  0.00    -0.010 C 
ATOM     17  H   UNL     1      -6.645  -7.440   1.654  0.00  0.00    -0.086 HD
ATOM     18  H   UNL     1      -7.903  -6.511   1.142  0.00  0.00    -0.086 HD
BRANCH   5  19
ATOM     19  C   UNL     1      -1.454  -2.050  -0.156  0.00  0.00    +0.099 C 
BRANCH  19  20
ATOM     20  C   UNL     1      -1.480  -0.526  -0.027  0.00  0.00    -0.006 C 
ATOM     21  C   UNL     1      -2.140  -0.138   1.298  0.00  0.00    +0.008 C 
BRANCH  20  23
ATOM     22  C   UNL     1      -0.081   1.543  -0.059  0.00  0.00    +0.004 C 
ATOM     23  C   UNL     1      -0.049   0.014  -0.062  0.00  0.00    +0.000 C 
ENDBRANCH  20  23
ENDBRANCH  19  20
ENDBRANCH   5  19
ENDBRANCH   1   9
BRANCH   3  24
ATOM     24  C   UNL     1      -1.876  -9.840  -0.033  0.00  0.00    +0.134 C 
BRANCH  24  25
ATOM     25  C   UNL     1      -1.124 -10.690   0.959  0.00  0.00    -0.023 A 
ATOM     26  C   UNL     1      -1.494 -10.687   2.291  0.00  0.00    +0.009 A 
ATOM     27  C   UNL     1      -0.806 -11.464   3.202  0.00  0.00    +0.046 A 
ATOM     28  C   UNL     1       0.258 -12.249   2.779  0.00  0.00    +0.120 A 
ATOM     29  C   UNL     1       0.626 -12.251   1.442  0.00  0.00    +0.046 A 
ATOM     30  C   UNL     1      -0.068 -11.475   0.534  0.00  0.00    +0.009 A 
BRANCH  28  31
ATOM     31  O   UNL     1       0.937 -13.015   3.673  0.00  0.00    -0.495 OA
ATOM     32  C   UNL     1       2.020 -13.797   3.167  0.00  0.00    +0.277 C 
ENDBRANCH  28  31
ENDBRANCH  24  25
BRANCH  24  33
ATOM     33  C   UNL     1      -3.157 -10.534  -0.419  0.00  0.00    -0.023 A 
ATOM     34  C   UNL     1      -4.258 -10.466   0.415  0.00  0.00    +0.009 A 
ATOM     35  C   UNL     1      -5.433 -11.102   0.063  0.00  0.00    +0.046 A 
ATOM     36  C   UNL     1      -5.508 -11.809  -1.128  0.00  0.00    +0.120 A 
ATOM     37  C   UNL     1      -4.402 -11.875  -1.964  0.00  0.00    +0.046 A 
ATOM     38  C   UNL     1      -3.231 -11.233  -1.610  0.00  0.00    +0.009 A 
BRANCH  36  39
ATOM     39  O   UNL     1      -6.662 -12.435  -1.476  0.00  0.00    -0.495 OA
ATOM     40  C   UNL     1      -6.667 -13.144  -2.717  0.00  0.00    +0.277 C 
ENDBRANCH  36  39
ENDBRANCH  24  33
ENDBRANCH   3  24
TORSDOF 9
