REMARK  Name = ZINC64151226
REMARK  6 active torsions:
REMARK  status: ('A' for Active; 'I' for Inactive)
REMARK    1  A    between atoms: C_7  and  C_10
REMARK    2  A    between atoms: C_10  and  C_11
REMARK    3  A    between atoms: C_11  and  N_12
REMARK    4  A    between atoms: C_13  and  C_15
REMARK    5  A    between atoms: C_15  and  N_16
REMARK    6  A    between atoms: C_24  and  C_26
REMARK                            x       y       z     vdW  Elec       q    Type
REMARK                         _______ _______ _______ _____ _____    ______ ____
ROOT
ATOM      1  N   UNL     1      -0.458  -4.798  -1.460  0.00  0.00    -0.314 N 
ATOM      2  C   UNL     1      -0.811  -5.380  -2.623  0.00  0.00    +0.230 C 
ATOM      3  O   UNL     1      -0.371  -4.957  -3.671  0.00  0.00    -0.274 OA
ATOM      4  H   UNL     1      -0.810  -5.136  -0.622  0.00  0.00    +0.149 HD
ENDROOT
BRANCH   1   5
ATOM      5  C   UNL     1       0.457  -3.653  -1.462  0.00  0.00    +0.108 C 
BRANCH   5   6
ATOM      6  C   UNL     1       0.691  -3.186  -0.024  0.00  0.00    +0.052 C 
BRANCH   6  13
ATOM      7  C   UNL     1      -0.016   1.348   0.009  0.00  0.00    +0.001 A 
ATOM      8  C   UNL     1       1.166   2.101   0.002  0.00  0.00    +0.002 A 
ATOM      9  C   UNL     1       2.391   1.535  -0.013  0.00  0.00    +0.026 A 
ATOM     10  C   UNL     1       2.529   0.120  -0.022  0.00  0.00    +0.043 A 
ATOM     11  N   UNL     1       3.587  -0.654  -0.037  0.00  0.00    -0.380 N 
ATOM     12  C   UNL     1       3.143  -2.053  -0.041  0.00  0.00    +0.144 C 
ATOM     13  C   UNL     1       1.631  -2.008  -0.025  0.00  0.00    -0.040 C 
ATOM     14  C   UNL     1       1.295  -0.698  -0.014  0.00  0.00    -0.001 A 
ATOM     15  C   UNL     1       0.002  -0.004   0.002  0.00  0.00    +0.010 A 
ATOM     16  H   UNL     1       4.509  -0.353  -0.045  0.00  0.00    +0.160 HD
ENDBRANCH   6  13
ENDBRANCH   5   6
ENDBRANCH   1   5
BRANCH   2  17
ATOM     17  C   UNL     1      -1.752  -6.557  -2.622  0.00  0.00    +0.203 C 
BRANCH  17  18
ATOM     18  N   UNL     1      -1.976  -7.005  -3.998  0.00  0.00    -0.296 N 
ATOM     19  C   UNL     1      -2.979  -6.552  -4.867  0.00  0.00    +0.053 A 
ATOM     20  C   UNL     1      -3.980  -5.608  -4.674  0.00  0.00    +0.025 A 
ATOM     21  C   UNL     1      -4.870  -5.322  -5.692  0.00  0.00    +0.002 A 
ATOM     22  C   UNL     1      -4.767  -5.974  -6.906  0.00  0.00    +0.002 A 
ATOM     23  C   UNL     1      -3.775  -6.914  -7.107  0.00  0.00    +0.025 A 
ATOM     24  C   UNL     1      -2.875  -7.208  -6.089  0.00  0.00    +0.050 A 
ATOM     25  N   UNL     1      -1.802  -8.109  -6.055  0.00  0.00    -0.319 N 
ATOM     26  C   UNL     1      -1.188  -8.007  -4.726  0.00  0.00    +0.210 C 
ATOM     27  H   UNL     1      -1.516  -8.690  -6.778  0.00  0.00    +0.148 HD
BRANCH  26  28
ATOM     28  C   UNL     1      -1.259  -9.337  -4.021  0.00  0.00    +0.087 A 
ATOM     29  C   UNL     1      -1.163 -10.508  -4.701  0.00  0.00    +0.073 A 
ATOM     30  S   UNL     1      -1.312 -11.680  -3.363  0.00  0.00    -0.083 S 
ATOM     31  C   UNL     1      -1.476 -10.574  -2.105  0.00  0.00    +0.156 A 
ATOM     32  N   UNL     1      -1.411  -9.417  -2.714  0.00  0.00    -0.249 NA
ENDBRANCH  26  28
ENDBRANCH  17  18
ENDBRANCH   2  17
TORSDOF 6
