REMARK  Name = ZINC41515045
REMARK  13 active torsions:
REMARK  status: ('A' for Active; 'I' for Inactive)
REMARK    1  A    between atoms: C_1  and  C_2
REMARK    2  A    between atoms: C_2  and  N_3
REMARK    3  A    between atoms: N_6  and  C_9
REMARK    4  A    between atoms: C_9  and  C_10
REMARK    5  A    between atoms: C_11  and  O_30
REMARK    6  A    between atoms: C_12  and  C_22
REMARK    7  A    between atoms: C_20  and  C_21
REMARK    8  A    between atoms: C_22  and  C_23
REMARK    9  A    between atoms: C_23  and  C_24
REMARK   10  A    between atoms: C_24  and  O_26
REMARK   11  A    between atoms: O_26  and  C_27
REMARK   12  A    between atoms: C_27  and  C_28
REMARK   13  A    between atoms: C_27  and  C_29
REMARK                            x       y       z     vdW  Elec       q    Type
REMARK                         _______ _______ _______ _____ _____    ______ ____
ROOT
ATOM      1  C   UNL     1       1.361  -4.037  -4.848  0.00  0.00    +0.051 A 
ATOM      2  C   UNL     1       2.370  -4.795  -4.277  0.00  0.00    +0.128 A 
ATOM      3  C   UNL     1       2.307  -6.187  -4.295  0.00  0.00    -0.004 A 
ATOM      4  C   UNL     1       1.249  -6.824  -4.877  0.00  0.00    +0.019 A 
ATOM      5  C   UNL     1       0.221  -6.074  -5.458  0.00  0.00    +0.021 A 
ATOM      6  C   UNL     1       0.276  -4.668  -5.439  0.00  0.00    +0.147 A 
ATOM      7  O   UNL     1      -0.721  -3.948  -5.997  0.00  0.00    -0.422 OA
ATOM      8  C   UNL     1      -1.778  -4.543  -6.572  0.00  0.00    +0.337 A 
ATOM      9  O   UNL     1      -2.653  -3.853  -7.063  0.00  0.00    -0.245 OA
ATOM     10  C   UNL     1      -1.900  -5.947  -6.622  0.00  0.00    +0.096 A 
ATOM     11  C   UNL     1      -0.926  -6.730  -6.090  0.00  0.00    -0.033 A 
ATOM     12  C   UNL     1      -1.032  -8.233  -6.131  0.00  0.00    +0.045 C 
ENDROOT
BRANCH   2  13
ATOM     13  O   UNL     1       3.429  -4.177  -3.694  0.00  0.00    -0.506 OA
ATOM     14  H   UNL     1       3.305  -3.988  -2.754  0.00  0.00    +0.292 HD
ENDBRANCH   2  13
BRANCH   1  15
ATOM     15  C   UNL     1       1.439  -2.533  -4.824  0.00  0.00    +0.126 C 
BRANCH  15  19
ATOM     16  N   UNL     1       0.690  -0.478  -1.207  0.00  0.00    +0.381 N 
ATOM     17  C   UNL     1      -0.085  -0.091  -2.393  0.00  0.00    -0.063 C 
ATOM     18  C   UNL     1       0.641  -0.568  -3.654  0.00  0.00    +0.066 C 
ATOM     19  N   UNL     1       0.796  -2.029  -3.603  0.00  0.00    -0.301 NA
ATOM     20  C   UNL     1       1.548  -2.433  -2.406  0.00  0.00    +0.066 C 
ATOM     21  C   UNL     1       0.815  -1.940  -1.157  0.00  0.00    -0.063 C 
ATOM     22  H   UNL     1       1.608  -0.063  -1.255  0.00  0.00    -0.082 HD
BRANCH  16  24
ATOM     23  C   UNL     1      -0.019   1.526   0.010  0.00  0.00    -0.017 C 
ATOM     24  C   UNL     1       0.002  -0.004   0.002  0.00  0.00    -0.082 C 
ENDBRANCH  16  24
ENDBRANCH  15  19
ENDBRANCH   1  15
BRANCH   3  25
ATOM     25  C   UNL     1       3.415  -6.995  -3.669  0.00  0.00    +0.050 C 
BRANCH  25  26
ATOM     26  C   UNL     1       3.150  -7.147  -2.169  0.00  0.00    +0.125 C 
BRANCH  26  27
ATOM     27  C   UNL     1       4.258  -7.954  -1.543  0.00  0.00    +0.308 C 
ATOM     28  O   UNL     1       5.165  -8.366  -2.226  0.00  0.00    -0.251 OA
BRANCH  27  29
ATOM     29  O   UNL     1       4.236  -8.216  -0.227  0.00  0.00    -0.462 OA
BRANCH  29  30
ATOM     30  C   UNL     1       5.318  -8.987   0.299  0.00  0.00    +0.170 C 
ATOM     31  C   UNL     1       6.444  -8.051   0.741  0.00  0.00    +0.052 C 
ATOM     32  C   UNL     1       4.829  -9.799   1.501  0.00  0.00    +0.052 C 
ENDBRANCH  29  30
ENDBRANCH  27  29
ENDBRANCH  26  27
ENDBRANCH  25  26
ENDBRANCH   3  25
TORSDOF 9
