REMARK  Name = ZINC66264880
REMARK  3 active torsions:
REMARK  status: ('A' for Active; 'I' for Inactive)
REMARK    1  A    between atoms: C_5  and  C_7
REMARK    2  A    between atoms: N_12  and  C_14
REMARK    3  A    between atoms: C_14  and  C_15
REMARK                            x       y       z     vdW  Elec       q    Type
REMARK                         _______ _______ _______ _____ _____    ______ ____
ROOT
ATOM      1  C   UNL     1       1.246  -2.165  -0.022  0.00  0.00    +0.094 A 
ATOM      2  C   UNL     1       0.032  -2.892  -0.019  0.00  0.00    +0.035 A 
ATOM      3  C   UNL     1       0.095  -4.254  -0.028  0.00  0.00    +0.074 A 
ATOM      4  C   UNL     1       1.372  -4.856  -0.039  0.00  0.00    +0.268 A 
ATOM      5  O   UNL     1       1.478  -6.072  -0.047  0.00  0.00    -0.266 OA
ATOM      6  N   UNL     1       2.472  -4.080  -0.040  0.00  0.00    -0.225 N 
ATOM      7  N   UNL     1       2.395  -2.799  -0.037  0.00  0.00    -0.168 NA
ENDROOT
BRANCH   1  12
ATOM      8  C   UNL     1      -0.017   1.376   0.010  0.00  0.00    +0.001 A 
ATOM      9  C   UNL     1       1.170   2.087   0.002  0.00  0.00    +0.003 A 
ATOM     10  C   UNL     1       2.382   1.422  -0.013  0.00  0.00    +0.039 A 
ATOM     11  C   UNL     1       2.414   0.040  -0.021  0.00  0.00    +0.133 A 
ATOM     12  C   UNL     1       1.219  -0.682  -0.013  0.00  0.00    +0.037 A 
ATOM     13  C   UNL     1       0.002  -0.004   0.002  0.00  0.00    +0.013 A 
ATOM     14  F   UNL     1       3.598  -0.610  -0.037  0.00  0.00    -0.205 F 
ENDBRANCH   1  12
BRANCH   6  15
ATOM     15  C   UNL     1       3.792  -4.715  -0.051  0.00  0.00    +0.182 C 
BRANCH  15  16
ATOM     16  C   UNL     1       4.237  -4.924  -1.476  0.00  0.00    -0.021 A 
ATOM     17  C   UNL     1       3.917  -6.097  -2.134  0.00  0.00    +0.055 A 
ATOM     18  C   UNL     1       4.324  -6.292  -3.443  0.00  0.00    +0.168 A 
ATOM     19  C   UNL     1       5.056  -5.303  -4.095  0.00  0.00    +0.184 A 
ATOM     20  C   UNL     1       5.375  -4.130  -3.430  0.00  0.00    +0.087 A 
ATOM     21  C   UNL     1       4.960  -3.940  -2.124  0.00  0.00    +0.029 A 
ATOM     22 CL   UNL     1       6.288  -2.894  -4.239  0.00  0.00    -0.080 Cl
ATOM     23  O   UNL     1       5.334  -5.730  -5.362  0.00  0.00    -0.451 OA
ATOM     24  C   UNL     1       5.117  -7.153  -5.345  0.00  0.00    +0.466 C 
ATOM     25  O   UNL     1       4.142  -7.338  -4.301  0.00  0.00    -0.453 OA
ENDBRANCH  15  16
ENDBRANCH   6  15
TORSDOF 3
