REMARK  Name = ZINC02415601
REMARK  10 active torsions:
REMARK  status: ('A' for Active; 'I' for Inactive)
REMARK    1  A    between atoms: C_1  and  C_2
REMARK    2  A    between atoms: C_2  and  O_3
REMARK    3  A    between atoms: O_3  and  C_4
REMARK    4  A    between atoms: C_8  and  C_10
REMARK    5  A    between atoms: N_25  and  C_26
REMARK    6  A    between atoms: C_26  and  C_27
REMARK    7  A    between atoms: C_27  and  C_28
REMARK    8  A    between atoms: C_28  and  N_56
REMARK    9  A    between atoms: C_29  and  N_56
REMARK   10  A    between atoms: C_30  and  N_56
REMARK                            x       y       z     vdW  Elec       q    Type
REMARK                         _______ _______ _______ _____ _____    ______ ____
ROOT
ATOM      1  C   UNL     1       0.469  -2.835   3.789  0.00  0.00    +0.145 C 
ATOM      2  C   UNL     1       1.498  -3.299   4.787  0.00  0.00    +0.072 A 
ATOM      3  C   UNL     1       1.400  -3.743   6.180  0.00  0.00    +0.199 A 
ATOM      4  O   UNL     1       0.332  -3.791   6.763  0.00  0.00    -0.287 OA
ATOM      5  C   UNL     1       2.662  -4.127   6.843  0.00  0.00    +0.064 A 
ATOM      6  C   UNL     1       2.686  -4.564   8.166  0.00  0.00    +0.015 A 
ATOM      7  C   UNL     1       3.876  -4.912   8.742  0.00  0.00    +0.001 A 
ATOM      8  C   UNL     1       5.056  -4.832   8.017  0.00  0.00    +0.004 A 
ATOM      9  C   UNL     1       5.052  -4.402   6.707  0.00  0.00    +0.047 A 
ATOM     10  C   UNL     1       3.852  -4.043   6.099  0.00  0.00    +0.139 A 
ATOM     11  O   UNL     1       3.831  -3.622   4.822  0.00  0.00    -0.450 OA
ATOM     12  C   UNL     1       2.706  -3.259   4.174  0.00  0.00    +0.199 A 
ATOM     13  C   UNL     1       2.508  -2.783   2.782  0.00  0.00    +0.283 C 
ATOM     14  O   UNL     1       3.395  -2.640   1.964  0.00  0.00    -0.267 OA
ATOM     15  N   UNL     1       1.207  -2.530   2.558  0.00  0.00    -0.284 N 
ENDROOT
BRANCH   1  20
ATOM     16  C   UNL     1      -2.717  -4.866   3.873  0.00  0.00    +0.121 A 
ATOM     17  C   UNL     1      -2.379  -5.940   3.062  0.00  0.00    +0.045 A 
ATOM     18  C   UNL     1      -1.123  -6.004   2.491  0.00  0.00    +0.004 A 
ATOM     19  C   UNL     1      -0.205  -4.997   2.722  0.00  0.00    +0.006 A 
ATOM     20  C   UNL     1      -0.537  -3.928   3.534  0.00  0.00    -0.019 A 
ATOM     21  C   UNL     1      -1.792  -3.859   4.108  0.00  0.00    +0.051 A 
BRANCH  16  22
ATOM     22  O   UNL     1      -3.952  -4.800   4.436  0.00  0.00    -0.492 OA
BRANCH  22  24
ATOM     23  C   UNL     1      -6.182  -5.625   4.867  0.00  0.00    +0.048 C 
ATOM     24  C   UNL     1      -4.853  -5.872   4.151  0.00  0.00    +0.225 C 
ENDBRANCH  22  24
ENDBRANCH  16  22
ENDBRANCH   1  20
BRANCH  15  25
ATOM     25  C   UNL     1       0.628  -2.043   1.303  0.00  0.00    +0.107 C 
BRANCH  25  26
ATOM     26  C   UNL     1       0.607  -0.513   1.312  0.00  0.00    +0.000 C 
BRANCH  26  27
ATOM     27  C   UNL     1       0.002  -0.004   0.002  0.00  0.00    -0.078 C 
BRANCH  27  30
ATOM     28  C   UNL     1       1.346   2.010   0.000  0.00  0.00    -0.097 C 
ATOM     29  C   UNL     1      -0.802   1.987  -1.117  0.00  0.00    -0.097 C 
ATOM     30  N   UNL     1      -0.030   1.473   0.034  0.00  0.00    +0.376 N 
ATOM     31  H   UNL     1      -0.486   1.778   0.903  0.00  0.00    -0.083 HD
ENDBRANCH  27  30
ENDBRANCH  26  27
ENDBRANCH  25  26
ENDBRANCH  15  25
TORSDOF 7
