REMARK  Name = ZINC14551132
REMARK  5 active torsions:
REMARK  status: ('A' for Active; 'I' for Inactive)
REMARK    1  A    between atoms: C_1  and  N_2
REMARK    2  A    between atoms: N_2  and  C_3
REMARK    3  A    between atoms: C_9  and  C_11
REMARK    4  A    between atoms: C_24  and  C_27
REMARK    5  A    between atoms: C_30  and  N_33
REMARK                            x       y       z     vdW  Elec       q    Type
REMARK                         _______ _______ _______ _____ _____    ______ ____
ROOT
ATOM      1  C   UNL     1      -0.116  -2.796   0.338  0.00  0.00    +0.038 A 
ATOM      2  C   UNL     1      -0.969  -2.002  -0.435  0.00  0.00    +0.015 A 
ATOM      3  C   UNL     1      -1.039  -0.650  -0.197  0.00  0.00    +0.024 A 
ATOM      4  C   UNL     1      -0.265  -0.074   0.808  0.00  0.00    +0.031 A 
ATOM      5  C   UNL     1       0.585  -0.853   1.583  0.00  0.00    -0.019 A 
ATOM      6  C   UNL     1       0.657  -2.214   1.343  0.00  0.00    +0.019 A 
ATOM      7  C   UNL     1       1.430  -0.274   2.674  0.00  0.00    +0.049 C 
ATOM      8  C   UNL     1       2.879  -0.182   2.258  0.00  0.00    -0.023 C 
ATOM      9  C   UNL     1       3.425   0.903   2.751  0.00  0.00    -0.030 C 
ATOM     10  C   UNL     1       2.413   1.682   3.569  0.00  0.00    +0.033 C 
ATOM     11  C   UNL     1       1.044   1.176   3.026  0.00  0.00    +0.029 C 
ATOM     12  C   UNL     1       0.743   1.961   1.746  0.00  0.00    +0.105 C 
ATOM     13  N   UNL     1      -0.352   1.299   1.029  0.00  0.00    -0.336 N 
ATOM     14  H   UNL     1      -1.116   1.806   0.713  0.00  0.00    +0.147 HD
ENDROOT
BRANCH  12  15
ATOM     15  C   UNL     1       0.336   3.368   2.101  0.00  0.00    -0.027 A 
ATOM     16  C   UNL     1      -0.953   3.628   2.528  0.00  0.00    +0.008 A 
ATOM     17  C   UNL     1      -1.324   4.918   2.857  0.00  0.00    +0.033 A 
ATOM     18  C   UNL     1      -0.410   5.949   2.751  0.00  0.00    +0.126 A 
ATOM     19  C   UNL     1       0.877   5.690   2.319  0.00  0.00    +0.033 A 
ATOM     20  C   UNL     1       1.250   4.399   1.994  0.00  0.00    +0.008 A 
BRANCH  18  21
ATOM     21  N   UNL     1      -0.810   7.331   3.099  0.00  0.00    +0.056 N 
ATOM     22  O   UNL     1      -0.004   8.240   3.005  0.00  0.00    -0.126 OA
ATOM     23  O   UNL     1      -1.944   7.560   3.479  0.00  0.00    -0.126 OA
ENDBRANCH  18  21
ENDBRANCH  12  15
BRANCH   1  26
ATOM     24  C   UNL     1      -2.338  -4.193  -0.694  0.00  0.00    +0.138 C 
ATOM     25  N   UNL     1      -1.116  -4.921  -0.343  0.00  0.00    -0.271 N 
ATOM     26  C   UNL     1      -0.032  -4.247   0.090  0.00  0.00    +0.251 C 
ATOM     27  O   UNL     1       1.016  -4.836   0.276  0.00  0.00    -0.270 OA
BRANCH  25  28
ATOM     28  C   UNL     1      -1.074  -6.314  -0.457  0.00  0.00    +0.036 A 
ATOM     29  C   UNL     1       0.023  -7.019   0.022  0.00  0.00    +0.023 A 
ATOM     30  C   UNL     1       0.058  -8.395  -0.086  0.00  0.00    +0.002 A 
ATOM     31  C   UNL     1      -0.992  -9.070  -0.681  0.00  0.00    +0.000 A 
ATOM     32  C   UNL     1      -2.083  -8.371  -1.164  0.00  0.00    +0.002 A 
ATOM     33  C   UNL     1      -2.127  -6.995  -1.054  0.00  0.00    +0.023 A 
ENDBRANCH  25  28
ENDBRANCH   1  26
TORSDOF 4
