REMARK  Name = ZINC09743426
REMARK  9 active torsions:
REMARK  status: ('A' for Active; 'I' for Inactive)
REMARK    1  A    between atoms: C_4  and  S_7
REMARK    2  A    between atoms: S_7  and  N_10
REMARK    3  A    between atoms: C_15  and  C_17
REMARK    4  A    between atoms: C_17  and  C_18
REMARK    5  A    between atoms: C_18  and  N_19
REMARK    6  A    between atoms: C_20  and  C_22
REMARK    7  A    between atoms: N_24  and  C_25
REMARK    8  A    between atoms: C_25  and  C_26
REMARK    9  A    between atoms: C_26  and  C_27
REMARK                            x       y       z     vdW  Elec       q    Type
REMARK                         _______ _______ _______ _____ _____    ______ ____
ROOT
ATOM      1  N   UNL     1       0.400   2.268  -2.136  0.00  0.00    -0.308 N 
ATOM      2  C   UNL     1       0.087   2.946  -3.257  0.00  0.00    +0.299 C 
ATOM      3  O   UNL     1      -0.896   3.658  -3.282  0.00  0.00    -0.265 OA
ATOM      4  H   UNL     1       1.185   1.699  -2.116  0.00  0.00    +0.149 HD
ENDROOT
BRANCH   2   5
ATOM      5  C   UNL     1       0.951   2.822  -4.471  0.00  0.00    +0.299 C 
ATOM      6  O   UNL     1       1.933   2.111  -4.446  0.00  0.00    -0.265 OA
ATOM      7  N   UNL     1       0.638   3.501  -5.593  0.00  0.00    -0.307 N 
ATOM      8  H   UNL     1      -0.148   4.070  -5.612  0.00  0.00    +0.149 HD
BRANCH   7   9
ATOM      9  C   UNL     1       1.484   3.380  -6.782  0.00  0.00    +0.109 C 
BRANCH   9  10
ATOM     10  C   UNL     1       0.911   4.245  -7.906  0.00  0.00    +0.056 C 
BRANCH  10  11
ATOM     11  C   UNL     1       1.782   4.120  -9.130  0.00  0.00    -0.021 A 
ATOM     12  C   UNL     1       2.776   4.947  -9.490  0.00  0.00    +0.087 A 
ATOM     13  N   UNL     1       3.343   4.514 -10.658  0.00  0.00    -0.360 N 
ATOM     14  H   UNL     1       4.081   4.948 -11.114  0.00  0.00    +0.165 HD
ATOM     15  C   UNL     1       2.706   3.374 -11.093  0.00  0.00    +0.047 A 
ATOM     16  C   UNL     1       1.700   3.077 -10.155  0.00  0.00    +0.003 A 
ATOM     17  C   UNL     1       0.884   1.960 -10.339  0.00  0.00    +0.010 A 
ATOM     18  C   UNL     1       1.066   1.159 -11.431  0.00  0.00    +0.001 A 
ATOM     19  C   UNL     1       2.056   1.448 -12.360  0.00  0.00    +0.002 A 
ATOM     20  C   UNL     1       2.873   2.545 -12.197  0.00  0.00    +0.026 A 
ENDBRANCH  10  11
ENDBRANCH   9  10
ENDBRANCH   7   9
ENDBRANCH   2   5
BRANCH   1  21
ATOM     21  C   UNL     1      -0.447   2.389  -0.946  0.00  0.00    +0.106 C 
BRANCH  21  22
ATOM     22  C   UNL     1       0.126   1.524   0.178  0.00  0.00    +0.039 C 
BRANCH  22  28
ATOM     23  N   UNL     1      -0.066   1.015   2.568  0.00  0.00    -0.173 NA
ATOM     24  C   UNL     1      -0.613   1.195   3.920  0.00  0.00    +0.110 C 
ATOM     25  C   UNL     1      -0.678   2.694   4.230  0.00  0.00    +0.017 C 
ATOM     26  C   UNL     1      -1.473   3.404   3.132  0.00  0.00    +0.003 C 
ATOM     27  C   UNL     1      -0.765   3.219   1.787  0.00  0.00    +0.021 C 
ATOM     28  C   UNL     1      -0.701   1.726   1.449  0.00  0.00    +0.081 C 
BRANCH  23  29
ATOM     29  S   UNL     1       1.239   0.030   2.309  0.00  0.00    +0.061 S 
ATOM     30  O   UNL     1       1.384  -0.767   3.477  0.00  0.00    -0.153 OA
ATOM     31  O   UNL     1       1.072  -0.535   1.017  0.00  0.00    -0.153 OA
BRANCH  29  35
ATOM     32  C   UNL     1       4.899   2.686   2.095  0.00  0.00    +0.000 A 
ATOM     33  C   UNL     1       4.394   2.303   3.324  0.00  0.00    +0.002 A 
ATOM     34  C   UNL     1       3.276   1.491   3.389  0.00  0.00    +0.028 A 
ATOM     35  C   UNL     1       2.664   1.064   2.226  0.00  0.00    +0.105 A 
ATOM     36  C   UNL     1       3.172   1.443   0.998  0.00  0.00    +0.028 A 
ATOM     37  C   UNL     1       4.287   2.257   0.932  0.00  0.00    +0.002 A 
ENDBRANCH  29  35
ENDBRANCH  23  29
ENDBRANCH  22  28
ENDBRANCH  21  22
ENDBRANCH   1  21
TORSDOF 9
