REMARK  Name = ZINC15933864
REMARK  4 active torsions:
REMARK  status: ('A' for Active; 'I' for Inactive)
REMARK    1  A    between atoms: C_2  and  C_9
REMARK    2  A    between atoms: C_4  and  O_8
REMARK    3  A    between atoms: C_6  and  O_7
REMARK    4  A    between atoms: N_11  and  N_12
REMARK                            x       y       z     vdW  Elec       q    Type
REMARK                         _______ _______ _______ _____ _____    ______ ____
ROOT
ATOM      1  C   UNL     1      -0.017   1.381   0.010  0.00  0.00    +0.058 A 
ATOM      2  C   UNL     1       1.183   2.093   0.002  0.00  0.00    +0.045 A 
ATOM      3  C   UNL     1       2.398   1.406  -0.013  0.00  0.00    +0.058 A 
ATOM      4  C   UNL     1       2.407   0.021  -0.021  0.00  0.00    +0.121 A 
ATOM      5  C   UNL     1       1.212  -0.683  -0.013  0.00  0.00    +0.090 A 
ATOM      6  C   UNL     1       0.002  -0.004   0.002  0.00  0.00    +0.121 A 
ENDROOT
BRANCH   2   7
ATOM      7  C   UNL     1       1.168   3.571   0.010  0.00  0.00    +0.263 C 
ATOM      8  O   UNL     1       0.109   4.168   0.022  0.00  0.00    -0.268 OA
ATOM      9  N   UNL     1       2.328   4.257   0.002  0.00  0.00    -0.203 N 
ATOM     10  H   UNL     1       3.173   3.780  -0.008  0.00  0.00    +0.178 HD
BRANCH   9  11
ATOM     11  N   UNL     1       2.314   5.658   0.009  0.00  0.00    -0.189 NA
ATOM     12  C   UNL     1       3.416   6.309   0.002  0.00  0.00    +0.037 C 
ATOM     13  C   UNL     1       4.809   5.716  -0.020  0.00  0.00    +0.052 C 
ATOM     14  C   UNL     1       5.799   6.899  -0.012  0.00  0.00    +0.006 C 
ATOM     15  C   UNL     1       4.980   8.061   0.605  0.00  0.00    +0.006 C 
ATOM     16  C   UNL     1       3.568   7.820   0.009  0.00  0.00    +0.052 C 
ENDBRANCH   9  11
ENDBRANCH   2   7
BRANCH   6  17
ATOM     17  O   UNL     1      -1.166  -0.699   0.009  0.00  0.00    -0.507 OA
ATOM     18  H   UNL     1      -1.513  -0.895  -0.872  0.00  0.00    +0.292 HD
ENDBRANCH   6  17
BRANCH   4  19
ATOM     19  O   UNL     1       3.589  -0.650  -0.036  0.00  0.00    -0.507 OA
ATOM     20  H   UNL     1       3.940  -0.848   0.843  0.00  0.00    +0.292 HD
ENDBRANCH   4  19
TORSDOF 4
