REMARK  Name = ZINC60384184
REMARK  11 active torsions:
REMARK  status: ('A' for Active; 'I' for Inactive)
REMARK    1  A    between atoms: C_1  and  C_2
REMARK    2  A    between atoms: C_4  and  C_28
REMARK    3  A    between atoms: C_5  and  C_9
REMARK    4  A    between atoms: C_7  and  C_8
REMARK    5  A    between atoms: C_9  and  C_11
REMARK    6  A    between atoms: C_11  and  C_13
REMARK    7  A    between atoms: C_11  and  O_14
REMARK    8  A    between atoms: O_14  and  C_15
REMARK    9  A    between atoms: C_15  and  C_17
REMARK   10  A    between atoms: C_19  and  S_24
REMARK   11  A    between atoms: S_24  and  N_27
REMARK                            x       y       z     vdW  Elec       q    Type
REMARK                         _______ _______ _______ _____ _____    ______ ____
ROOT
ATOM      1  C   UNL     1       2.169  -6.513   2.349  0.00  0.00    +0.341 C 
ATOM      2  O   UNL     1       2.257  -5.839   3.355  0.00  0.00    -0.245 OA
ENDROOT
BRANCH   1   3
ATOM      3  C   UNL     1       2.907  -7.788   2.247  0.00  0.00    +0.075 A 
ATOM      4  C   UNL     1       2.812  -8.564   1.089  0.00  0.00    +0.044 A 
ATOM      5  C   UNL     1       3.504  -9.753   1.001  0.00  0.00    +0.106 A 
ATOM      6  C   UNL     1       4.292 -10.180   2.056  0.00  0.00    +0.029 A 
ATOM      7  C   UNL     1       4.391  -9.418   3.206  0.00  0.00    +0.018 A 
ATOM      8  C   UNL     1       3.709  -8.222   3.306  0.00  0.00    +0.032 A 
ATOM      9 BR   UNL     1       3.852  -7.177   4.876  0.00  0.00    -0.049 Br
BRANCH   5  10
ATOM     10  S   UNL     1       3.385 -10.732  -0.459  0.00  0.00    +0.056 S 
ATOM     11  O   UNL     1       3.695 -12.066  -0.080  0.00  0.00    -0.153 OA
ATOM     12  O   UNL     1       2.156 -10.384  -1.083  0.00  0.00    -0.153 OA
BRANCH  10  13
ATOM     13  N   UNL     1       4.591 -10.238  -1.481  0.00  0.00    -0.204 NA
ATOM     14  H   UNL     1       4.988 -10.867  -2.103  0.00  0.00    +0.144 HD
ATOM     15  H   UNL     1       4.900  -9.319  -1.457  0.00  0.00    +0.144 HD
ENDBRANCH  10  13
ENDBRANCH   5  10
ENDBRANCH   1   3
BRANCH   1  16
ATOM     16  O   UNL     1       1.397  -6.098   1.325  0.00  0.00    -0.450 OA
BRANCH  16  17
ATOM     17  C   UNL     1       0.711  -4.856   1.492  0.00  0.00    +0.244 C 
ATOM     18  C   UNL     1      -0.661  -5.111   2.119  0.00  0.00    +0.061 C 
BRANCH  17  19
ATOM     19  C   UNL     1       0.535  -4.195   0.150  0.00  0.00    +0.203 C 
ATOM     20  O   UNL     1       0.611  -4.854  -0.865  0.00  0.00    -0.288 OA
BRANCH  19  25
ATOM     21  C   UNL     1      -0.497   1.452  -0.162  0.00  0.00    +0.044 C 
ATOM     22  C   UNL     1      -0.227  -0.028  -0.080  0.00  0.00    -0.047 A 
ATOM     23  C   UNL     1      -0.264  -0.800  -1.229  0.00  0.00    +0.007 A 
ATOM     24  C   UNL     1      -0.018  -2.154  -1.163  0.00  0.00    -0.040 A 
ATOM     25  C   UNL     1       0.271  -2.749   0.070  0.00  0.00    +0.024 A 
ATOM     26  C   UNL     1       0.308  -1.964   1.226  0.00  0.00    +0.015 A 
ATOM     27  C   UNL     1       0.064  -0.609   1.142  0.00  0.00    -0.047 A 
ATOM     28  C   UNL     1       0.109   0.241   2.386  0.00  0.00    +0.044 C 
ATOM     29  C   UNL     1      -0.060  -2.992  -2.414  0.00  0.00    +0.044 C 
ENDBRANCH  19  25
ENDBRANCH  17  19
ENDBRANCH  16  17
ENDBRANCH   1  16
TORSDOF 7
