REMARK  Name = ZINC50550561
REMARK  6 active torsions:
REMARK  status: ('A' for Active; 'I' for Inactive)
REMARK    1  A    between atoms: C_4  and  C_8
REMARK    2  A    between atoms: N_10  and  N_11
REMARK    3  A    between atoms: C_12  and  C_14
REMARK    4  A    between atoms: C_14  and  N_15
REMARK    5  A    between atoms: N_18  and  C_19
REMARK    6  A    between atoms: C_19  and  C_20
REMARK                            x       y       z     vdW  Elec       q    Type
REMARK                         _______ _______ _______ _____ _____    ______ ____
ROOT
ATOM      1  N   UNL     1       4.942  -2.714  -0.061  0.00  0.00    -0.233 N 
ATOM      2  C   UNL     1       4.963  -4.061  -0.068  0.00  0.00    +0.246 C 
ATOM      3  O   UNL     1       3.923  -4.684  -0.061  0.00  0.00    -0.273 OA
ATOM      4  H   UNL     1       5.774  -2.215  -0.066  0.00  0.00    +0.173 HD
ENDROOT
BRANCH   1   7
ATOM      5  C   UNL     1       3.696  -0.685  -0.037  0.00  0.00    +0.262 C 
ATOM      6  O   UNL     1       4.738  -0.061  -0.044  0.00  0.00    -0.269 OA
ATOM      7  N   UNL     1       3.717  -2.033  -0.045  0.00  0.00    -0.230 N 
ATOM      8  H   UNL     1       2.885  -2.531  -0.039  0.00  0.00    +0.173 HD
BRANCH   5  12
ATOM      9  C   UNL     1      -0.017   1.381   0.010  0.00  0.00    +0.021 A 
ATOM     10  C   UNL     1       1.168   2.095   0.002  0.00  0.00    +0.022 A 
ATOM     11  C   UNL     1       2.378   1.430  -0.013  0.00  0.00    +0.053 A 
ATOM     12  C   UNL     1       2.404   0.033  -0.021  0.00  0.00    +0.058 A 
ATOM     13  C   UNL     1       1.205  -0.681  -0.013  0.00  0.00    +0.034 A 
ATOM     14  C   UNL     1       0.002  -0.004   0.002  0.00  0.00    +0.042 A 
ATOM     15 CL   UNL     1      -1.491  -0.890   0.012  0.00  0.00    -0.084 Cl
ATOM     16 CL   UNL     1       3.864   2.328  -0.023  0.00  0.00    -0.083 Cl
ENDBRANCH   5  12
ENDBRANCH   1   7
BRANCH   2  17
ATOM     17  C   UNL     1       6.280  -4.794  -0.085  0.00  0.00    +0.203 C 
BRANCH  17  18
ATOM     18  N   UNL     1       6.036  -6.238  -0.091  0.00  0.00    -0.291 N 
ATOM     19  C   UNL     1       7.074  -7.097  -0.105  0.00  0.00    +0.300 C 
ATOM     20  O   UNL     1       8.213  -6.674  -0.115  0.00  0.00    -0.253 OA
ATOM     21  N   UNL     1       6.849  -8.426  -0.110  0.00  0.00    -0.299 N 
ATOM     22  H   UNL     1       5.127  -6.576  -0.083  0.00  0.00    +0.151 HD
ATOM     23  H   UNL     1       5.940  -8.764  -0.103  0.00  0.00    +0.150 HD
BRANCH  21  24
ATOM     24  C   UNL     1       7.978  -9.360  -0.127  0.00  0.00    +0.109 C 
BRANCH  24  25
ATOM     25  C   UNL     1       7.451 -10.797  -0.129  0.00  0.00    +0.006 C 
ATOM     26  C   UNL     1       6.769 -11.112   1.218  0.00  0.00    +0.005 C 
ATOM     27  C   UNL     1       7.146 -12.588   1.499  0.00  0.00    +0.000 C 
ATOM     28  C   UNL     1       8.608 -12.669   0.993  0.00  0.00    +0.000 C 
ATOM     29  C   UNL     1       8.620 -11.787  -0.272  0.00  0.00    +0.005 C 
ENDBRANCH  24  25
ENDBRANCH  21  24
ENDBRANCH  17  18
ENDBRANCH   2  17
TORSDOF 6
