REMARK  Name = ZINC21237692
REMARK  7 active torsions:
REMARK  status: ('A' for Active; 'I' for Inactive)
REMARK    1  A    between atoms: C_1  and  C_2
REMARK    2  A    between atoms: C_2  and  N_3
REMARK    3  A    between atoms: C_9  and  C_11
REMARK    4  A    between atoms: C_11  and  C_13
REMARK    5  A    between atoms: C_11  and  S_14
REMARK    6  A    between atoms: S_14  and  C_15
REMARK    7  A    between atoms: C_25  and  C_29
REMARK                            x       y       z     vdW  Elec       q    Type
REMARK                         _______ _______ _______ _____ _____    ______ ____
ROOT
ATOM      1  C   UNL     1      -1.943   1.188   6.239  0.00  0.00    +0.192 A 
ATOM      2  N   UNL     1      -2.545   2.338   5.960  0.00  0.00    -0.207 NA
ATOM      3  C   UNL     1      -3.455   2.868   6.761  0.00  0.00    +0.129 A 
ATOM      4  C   UNL     1      -3.804   2.188   7.961  0.00  0.00    +0.051 A 
ATOM      5  C   UNL     1      -4.773   2.583   8.987  0.00  0.00    -0.025 A 
ATOM      6  C   UNL     1      -4.921   1.754  10.040  0.00  0.00    -0.004 A 
ATOM      7  S   UNL     1      -3.795   0.418   9.738  0.00  0.00    -0.073 S 
ATOM      8  C   UNL     1      -3.127   0.975   8.193  0.00  0.00    +0.115 A 
ATOM      9  N   UNL     1      -2.233   0.509   7.341  0.00  0.00    -0.214 NA
ATOM     10  C   UNL     1      -5.839   1.929  11.211  0.00  0.00    +0.046 C 
ATOM     11  C   UNL     1      -6.868   3.014  10.862  0.00  0.00    -0.009 C 
ATOM     12  C   UNL     1      -6.130   4.220  10.273  0.00  0.00    +0.008 C 
ATOM     13  C   UNL     1      -5.588   3.869   8.886  0.00  0.00    +0.037 C 
ATOM     14  C   UNL     1      -7.615   3.439  12.128  0.00  0.00    +0.008 C 
ATOM     15  N   UNL     1      -4.060   4.068   6.435  0.00  0.00    -0.343 N 
ATOM     16  H   UNL     1      -4.816   4.503   7.105  0.00  0.00    +0.144 HD
ATOM     17  H   UNL     1      -3.785   4.588   5.505  0.00  0.00    +0.144 HD
ENDROOT
BRANCH   1  18
ATOM     18  S   UNL     1      -0.740   0.549   5.122  0.00  0.00    -0.073 S 
BRANCH  18  19
ATOM     19  C   UNL     1      -0.769   1.842   3.856  0.00  0.00    +0.137 C 
ATOM     20  C   UNL     1      -2.140   1.861   3.177  0.00  0.00    +0.029 C 
BRANCH  19  27
ATOM     21  N   UNL     1       1.117   4.388   0.006  0.00  0.00    -0.300 NA
ATOM     22  C   UNL     1       1.427   2.971  -0.228  0.00  0.00    +0.103 C 
ATOM     23  C   UNL     1       1.855   2.321   1.093  0.00  0.00    +0.123 C 
ATOM     24  N   UNL     1       0.814   2.572   2.101  0.00  0.00    -0.298 N 
ATOM     25  C   UNL     1       0.349   3.955   2.291  0.00  0.00    +0.123 C 
ATOM     26  C   UNL     1      -0.020   4.541   0.924  0.00  0.00    +0.103 C 
ATOM     27  C   UNL     1       0.297   1.562   2.828  0.00  0.00    +0.229 C 
ATOM     28  O   UNL     1       0.689   0.427   2.654  0.00  0.00    -0.274 OA
BRANCH  21  30
ATOM     29  C   UNL     1       0.310   6.483  -0.972  0.00  0.00    +0.020 C 
ATOM     30  C   UNL     1       0.869   5.088  -1.261  0.00  0.00    +0.081 C 
ENDBRANCH  21  30
ENDBRANCH  19  27
ENDBRANCH  18  19
ENDBRANCH   1  18
TORSDOF 4
