REMARK  Name = ZINC36207484
REMARK  17 active torsions:
REMARK  status: ('A' for Active; 'I' for Inactive)
REMARK    1  A    between atoms: C_1  and  C_2
REMARK    2  A    between atoms: C_8  and  C_19
REMARK    3  A    between atoms: C_12  and  C_13
REMARK    4  A    between atoms: C_13  and  O_15
REMARK    5  A    between atoms: O_15  and  C_16
REMARK    6  A    between atoms: C_16  and  C_17
REMARK    7  A    between atoms: C_16  and  C_18
REMARK    8  A    between atoms: C_19  and  N_20
REMARK    9  A    between atoms: N_20  and  C_21
REMARK   10  A    between atoms: N_20  and  C_24
REMARK   11  A    between atoms: C_21  and  C_22
REMARK   12  A    between atoms: C_24  and  C_25
REMARK   13  A    between atoms: C_25  and  C_27
REMARK   14  A    between atoms: C_25  and  O_32
REMARK   15  A    between atoms: C_27  and  O_28
REMARK   16  A    between atoms: O_28  and  C_29
REMARK   17  A    between atoms: C_29  and  C_30
REMARK                            x       y       z     vdW  Elec       q    Type
REMARK                         _______ _______ _______ _____ _____    ______ ____
ROOT
ATOM      1  C   UNL     1      -0.692   1.824  -0.540  0.00  0.00    +0.046 C 
ATOM      2  C   UNL     1      -0.459   0.339  -0.437  0.00  0.00    -0.015 A 
ATOM      3  C   UNL     1      -0.356  -0.435  -1.595  0.00  0.00    +0.076 A 
ATOM      4  C   UNL     1      -0.443  -0.015  -3.012  0.00  0.00    +0.260 A 
ATOM      5  O   UNL     1      -0.629   1.152  -3.308  0.00  0.00    -0.267 OA
ATOM      6  N   UNL     1      -0.310  -0.957  -3.967  0.00  0.00    -0.312 N 
ATOM      7  H   UNL     1      -0.364  -0.698  -4.900  0.00  0.00    +0.170 HD
ATOM      8  C   UNL     1      -0.103  -2.258  -3.650  0.00  0.00    +0.094 A 
ATOM      9  N   UNL     1      -0.021  -2.662  -2.411  0.00  0.00    -0.229 NA
ATOM     10  C   UNL     1      -0.137  -1.818  -1.395  0.00  0.00    +0.116 A 
ATOM     11  S   UNL     1      -0.087  -1.970   0.373  0.00  0.00    -0.062 S 
ATOM     12  C   UNL     1      -0.342  -0.253   0.787  0.00  0.00    +0.102 A 
ENDROOT
BRANCH  12  13
ATOM     13  C   UNL     1      -0.411   0.367   2.112  0.00  0.00    +0.346 C 
ATOM     14  O   UNL     1      -0.596   1.565   2.214  0.00  0.00    -0.244 OA
BRANCH  13  15
ATOM     15  O   UNL     1      -0.271  -0.390   3.220  0.00  0.00    -0.458 OA
BRANCH  15  16
ATOM     16  C   UNL     1      -0.350   0.281   4.479  0.00  0.00    +0.171 C 
ATOM     17  C   UNL     1      -1.803   0.299   4.957  0.00  0.00    +0.052 C 
ATOM     18  C   UNL     1       0.515  -0.455   5.504  0.00  0.00    +0.052 C 
ENDBRANCH  15  16
ENDBRANCH  13  15
ENDBRANCH  12  13
BRANCH   8  19
ATOM     19  C   UNL     1       0.038  -3.268  -4.759  0.00  0.00    -0.003 C 
BRANCH  19  20
ATOM     20  N   UNL     1       0.118  -4.618  -4.186  0.00  0.00    +0.388 N 
ATOM     21  H   UNL     1       0.851  -4.646  -3.493  0.00  0.00    -0.081 HD
BRANCH  20  22
ATOM     22  C   UNL     1       0.412  -5.586  -5.251  0.00  0.00    -0.051 C 
BRANCH  22  23
ATOM     23  C   UNL     1       1.790  -5.324  -5.801  0.00  0.00    -0.053 C 
ATOM     24  C   UNL     1       2.678  -6.287  -5.832  0.00  0.00    +0.002 C 
ENDBRANCH  22  23
ENDBRANCH  20  22
BRANCH  20  25
ATOM     25  C   UNL     1      -1.164  -4.959  -3.555  0.00  0.00    -0.044 C 
BRANCH  25  26
ATOM     26  C   UNL     1      -1.042  -6.311  -2.850  0.00  0.00    +0.124 C 
BRANCH  26  27
ATOM     27  O   UNL     1      -0.108  -6.205  -1.774  0.00  0.00    -0.391 OA
ATOM     28  H   UNL     1      -0.354  -5.555  -1.102  0.00  0.00    +0.210 HD
ENDBRANCH  26  27
BRANCH  26  29
ATOM     29  C   UNL     1      -2.409  -6.725  -2.300  0.00  0.00    +0.190 C 
BRANCH  29  30
ATOM     30  O   UNL     1      -2.321  -8.039  -1.745  0.00  0.00    -0.365 OA
BRANCH  30  31
ATOM     31  C   UNL     1      -3.550  -8.523  -1.200  0.00  0.00    +0.248 C 
BRANCH  31  32
ATOM     32  C   UNL     1      -3.347  -9.877  -0.658  0.00  0.00    -0.077 C 
ATOM     33  C   UNL     1      -3.185 -10.956  -0.226  0.00  0.00    +0.006 C 
ENDBRANCH  31  32
ENDBRANCH  30  31
ENDBRANCH  29  30
ENDBRANCH  26  29
ENDBRANCH  25  26
ENDBRANCH  20  25
ENDBRANCH  19  20
ENDBRANCH   8  19
TORSDOF 14
