REMARK  Name = ZINC34831357
REMARK  12 active torsions:
REMARK  status: ('A' for Active; 'I' for Inactive)
REMARK    1  A    between atoms: C_1  and  C_2
REMARK    2  A    between atoms: C_2  and  C_3
REMARK    3  A    between atoms: C_3  and  C_4
REMARK    4  A    between atoms: C_4  and  N_5
REMARK    5  A    between atoms: N_8  and  C_9
REMARK    6  A    between atoms: N_8  and  C_30
REMARK    7  A    between atoms: C_9  and  C_10
REMARK    8  A    between atoms: C_11  and  C_29
REMARK    9  A    between atoms: N_13  and  C_23
REMARK   10  A    between atoms: C_14  and  N_15
REMARK   11  A    between atoms: N_18  and  C_21
REMARK   12  A    between atoms: C_21  and  C_22
REMARK                            x       y       z     vdW  Elec       q    Type
REMARK                         _______ _______ _______ _____ _____    ______ ____
ROOT
ATOM      1  C   UNL     1      -4.315  -5.924   0.965  0.00  0.00    +0.032 A 
ATOM      2  C   UNL     1      -3.763  -5.908   2.249  0.00  0.00    +0.067 A 
ATOM      3  N   UNL     1      -4.736  -5.986   3.121  0.00  0.00    -0.170 NA
ATOM      4  N   UNL     1      -5.949  -6.055   2.425  0.00  0.00    -0.218 N 
ATOM      5  C   UNL     1      -5.668  -6.009   1.094  0.00  0.00    +0.130 A 
ATOM      6  C   UNL     1      -2.294  -5.818   2.575  0.00  0.00    +0.068 C 
ENDROOT
BRANCH   5   7
ATOM      7  N   UNL     1      -6.593  -6.046   0.055  0.00  0.00    -0.318 N 
ATOM      8  C   UNL     1      -7.125  -7.325  -0.440  0.00  0.00    +0.088 C 
ATOM      9  C   UNL     1      -8.654  -7.233  -0.479  0.00  0.00    -0.060 C 
ATOM     10  N   UNL     1      -9.052  -6.064  -1.274  0.00  0.00    +0.382 N 
ATOM     11  C   UNL     1      -8.599  -4.833  -0.614  0.00  0.00    -0.060 C 
ATOM     12  C   UNL     1      -7.072  -4.806  -0.577  0.00  0.00    +0.088 C 
ATOM     13  H   UNL     1      -8.637  -6.125  -2.191  0.00  0.00    -0.082 HD
BRANCH  10  14
ATOM     14  C   UNL     1     -10.515  -6.038  -1.403  0.00  0.00    -0.082 C 
ATOM     15  C   UNL     1     -10.924  -4.894  -2.333  0.00  0.00    -0.017 C 
ENDBRANCH  10  14
ENDBRANCH   5   7
BRANCH   4  16
ATOM     16  C   UNL     1      -7.226  -6.147   2.996  0.00  0.00    +0.067 A 
ATOM     17  C   UNL     1      -8.236  -5.288   2.586  0.00  0.00    +0.028 A 
ATOM     18  C   UNL     1      -9.493  -5.383   3.151  0.00  0.00    +0.002 A 
ATOM     19  C   UNL     1      -9.745  -6.331   4.125  0.00  0.00    +0.000 A 
ATOM     20  C   UNL     1      -8.741  -7.188   4.536  0.00  0.00    +0.002 A 
ATOM     21  C   UNL     1      -7.484  -7.103   3.970  0.00  0.00    +0.028 A 
ENDBRANCH   4  16
BRANCH   1  22
ATOM     22  C   UNL     1      -3.550  -5.853  -0.331  0.00  0.00    +0.150 C 
BRANCH  22  26
ATOM     23  N   UNL     1      -1.883  -2.578  -0.344  0.00  0.00    -0.299 N 
ATOM     24  C   UNL     1      -2.115  -3.891  -0.152  0.00  0.00    +0.303 C 
ATOM     25  O   UNL     1      -1.312  -4.568   0.461  0.00  0.00    -0.253 OA
ATOM     26  N   UNL     1      -3.239  -4.455  -0.638  0.00  0.00    -0.278 N 
ATOM     27  H   UNL     1      -2.486  -2.054  -0.893  0.00  0.00    +0.150 HD
BRANCH  26  28
ATOM     28  C   UNL     1      -4.149  -3.669  -1.475  0.00  0.00    +0.078 C 
ATOM     29  C   UNL     1      -4.639  -4.306  -2.777  0.00  0.00    +0.024 C 
ATOM     30  C   UNL     1      -3.618  -3.168  -2.819  0.00  0.00    +0.024 C 
ENDBRANCH  26  28
BRANCH  23  31
ATOM     31  C   UNL     1      -0.718  -1.942   0.277  0.00  0.00    +0.106 C 
BRANCH  31  32
ATOM     32  C   UNL     1      -0.687  -0.459  -0.097  0.00  0.00    +0.018 C 
BRANCH  32  34
ATOM     33  C   UNL     1       0.561   1.689   0.177  0.00  0.00    +0.004 C 
ATOM     34  C   UNL     1       0.530   0.205   0.551  0.00  0.00    -0.002 C 
ENDBRANCH  32  34
ENDBRANCH  31  32
ENDBRANCH  23  31
ENDBRANCH  22  26
ENDBRANCH   1  22
TORSDOF 9
