REMARK  Name = ZINC62191152
REMARK  5 active torsions:
REMARK  status: ('A' for Active; 'I' for Inactive)
REMARK    1  A    between atoms: C_1  and  C_2
REMARK    2  A    between atoms: C_10  and  O_24
REMARK    3  A    between atoms: C_12  and  N_14
REMARK    4  A    between atoms: C_15  and  C_23
REMARK    5  A    between atoms: C_20  and  C_22
REMARK                            x       y       z     vdW  Elec       q    Type
REMARK                         _______ _______ _______ _____ _____    ______ ____
ROOT
ATOM      1  C   UNL     1      -0.284   0.457   6.128  0.00  0.00    +0.047 C 
ATOM      2  C   UNL     1      -1.135  -0.486   5.316  0.00  0.00    -0.007 A 
ATOM      3  C   UNL     1      -2.474  -0.634   5.614  0.00  0.00    +0.027 A 
ATOM      4  C   UNL     1      -3.256  -1.498   4.869  0.00  0.00    +0.042 A 
ATOM      5  C   UNL     1      -2.695  -2.211   3.825  0.00  0.00    +0.025 A 
ATOM      6  C   UNL     1      -1.352  -2.065   3.522  0.00  0.00    -0.015 A 
ATOM      7  C   UNL     1      -0.568  -1.200   4.265  0.00  0.00    +0.125 A 
ATOM      8  O   UNL     1       0.755  -1.032   4.006  0.00  0.00    -0.489 OA
ATOM      9  C   UNL     1       1.246  -1.460   2.735  0.00  0.00    +0.259 C 
ATOM     10  C   UNL     1       0.745  -2.887   2.478  0.00  0.00    +0.143 C 
ATOM     11  C   UNL     1      -0.779  -2.856   2.373  0.00  0.00    -0.001 C 
ATOM     12 CL   UNL     1      -4.941  -1.688   5.244  0.00  0.00    -0.084 Cl
ENDROOT
BRANCH  11  13
ATOM     13  N   UNL     1      -1.309  -4.225   2.409  0.00  0.00    +0.389 N 
ATOM     14  C   UNL     1      -0.925  -4.929   1.179  0.00  0.00    -0.070 C 
ATOM     15  C   UNL     1      -1.543  -6.329   1.174  0.00  0.00    -0.016 C 
ATOM     16  C   UNL     1      -1.037  -7.109   2.391  0.00  0.00    -0.003 C 
ATOM     17  C   UNL     1      -1.378  -6.329   3.664  0.00  0.00    -0.016 C 
ATOM     18  C   UNL     1      -0.766  -4.929   3.576  0.00  0.00    -0.070 C 
ATOM     19  C   UNL     1      -1.103  -4.145   4.846  0.00  0.00    -0.013 C 
ATOM     20  C   UNL     1      -1.429  -4.146  -0.035  0.00  0.00    -0.013 C 
ATOM     21  H   UNL     1      -2.316  -4.193   2.475  0.00  0.00    -0.080 HD
ENDBRANCH  11  13
BRANCH  10  22
ATOM     22  O   UNL     1       1.129  -3.735   3.562  0.00  0.00    -0.390 OA
ATOM     23  H   UNL     1       2.084  -3.790   3.699  0.00  0.00    +0.210 HD
ENDBRANCH  10  22
TORSDOF 2
