REMARK  Name = ZINC49235025
REMARK  5 active torsions:
REMARK  status: ('A' for Active; 'I' for Inactive)
REMARK    1  A    between atoms: C_1  and  C_2
REMARK    2  A    between atoms: C_2  and  C_3
REMARK    3  A    between atoms: C_2  and  C_4
REMARK    4  A    between atoms: C_10  and  C_12
REMARK    5  A    between atoms: C_18  and  C_20
REMARK                            x       y       z     vdW  Elec       q    Type
REMARK                         _______ _______ _______ _____ _____    ______ ____
ROOT
ATOM      1  C   UNL     1       0.731  -0.503   1.223  0.00  0.00    +0.053 A 
ATOM      2  C   UNL     1       2.081  -0.621   1.242  0.00  0.00    +0.072 A 
ATOM      3  S   UNL     1       2.338  -1.237   2.898  0.00  0.00    -0.060 S 
ATOM      4  C   UNL     1       0.726  -1.279   3.383  0.00  0.00    +0.165 A 
ATOM      5  N   UNL     1       0.083  -0.840   2.323  0.00  0.00    -0.229 NA
ATOM      6  N   UNL     1       0.203  -1.677   4.608  0.00  0.00    -0.264 N 
ATOM      7  C   UNL     1       1.026  -2.097   5.588  0.00  0.00    +0.223 C 
ATOM      8  O   UNL     1       2.224  -2.128   5.402  0.00  0.00    -0.275 OA
ATOM      9  H   UNL     1      -0.755  -1.652   4.757  0.00  0.00    +0.157 HD
ENDROOT
BRANCH   7  10
ATOM     10  C   UNL     1       0.459  -2.528   6.916  0.00  0.00    +0.093 C 
ATOM     11  C   UNL     1      -0.296  -1.361   7.556  0.00  0.00    +0.040 C 
ATOM     12  C   UNL     1      -0.637  -1.685   8.981  0.00  0.00    -0.030 C 
ATOM     13  C   UNL     1      -0.075  -2.631   9.664  0.00  0.00    -0.030 C 
ATOM     14  C   UNL     1       0.989  -3.540   9.124  0.00  0.00    +0.042 C 
ATOM     15  C   UNL     1       1.599  -2.947   7.853  0.00  0.00    +0.118 C 
BRANCH  15  16
ATOM     16  C   UNL     1       2.462  -3.978   7.171  0.00  0.00    +0.360 C 
ATOM     17  O   UNL     1       3.674  -3.938   7.297  0.00  0.00    -0.246 OA
ATOM     18  O   UNL     1       1.948  -4.852   6.495  0.00  0.00    -0.246 OA
ENDBRANCH  15  16
ENDBRANCH   7  10
BRANCH   1  20
ATOM     19  C   UNL     1      -0.019   1.526   0.010  0.00  0.00    +0.014 C 
ATOM     20  C   UNL     1       0.002  -0.004   0.002  0.00  0.00    +0.032 C 
ATOM     21  C   UNL     1       0.718  -0.497  -1.257  0.00  0.00    +0.014 C 
ENDBRANCH   1  20
TORSDOF 3
