REMARK  Name = ZINC20413205
REMARK  10 active torsions:
REMARK  status: ('A' for Active; 'I' for Inactive)
REMARK    1  A    between atoms: C_1  and  C_2
REMARK    2  A    between atoms: C_3  and  C_22
REMARK    3  A    between atoms: C_4  and  C_14
REMARK    4  A    between atoms: C_9  and  S_11
REMARK    5  A    between atoms: S_11  and  C_12
REMARK    6  A    between atoms: C_22  and  O_24
REMARK    7  A    between atoms: O_24  and  C_25
REMARK    8  A    between atoms: C_25  and  C_26
REMARK    9  A    between atoms: C_26  and  O_27
REMARK   10  A    between atoms: O_27  and  C_28
REMARK                            x       y       z     vdW  Elec       q    Type
REMARK                         _______ _______ _______ _____ _____    ______ ____
ROOT
ATOM      1  C   UNL     1       5.596  -0.509   0.262  0.00  0.00    +0.061 C 
ATOM      2  C   UNL     1       4.097  -0.478   0.114  0.00  0.00    +0.020 C 
ATOM      3  C   UNL     1       3.429  -1.640   0.034  0.00  0.00    +0.082 C 
ATOM      4  C   UNL     1       1.935  -1.719  -0.128  0.00  0.00    +0.180 C 
ATOM      5  N   UNL     1       1.349  -0.403   0.111  0.00  0.00    -0.220 N 
ATOM      6  C   UNL     1       2.077   0.738   0.193  0.00  0.00    +0.219 A 
ATOM      7  N   UNL     1       1.255   1.730   0.403  0.00  0.00    -0.187 NA
ATOM      8  C   UNL     1      -0.002   1.264   0.465  0.00  0.00    +0.210 A 
ATOM      9  N   UNL     1       0.016  -0.040   0.291  0.00  0.00    -0.141 NA
ATOM     10  N   UNL     1       3.460   0.736   0.064  0.00  0.00    -0.287 N 
ATOM     11  H   UNL     1       4.043   1.658  -0.073  0.00  0.00    +0.155 HD
ENDROOT
BRANCH   4  12
ATOM     12  C   UNL     1       1.604  -2.170  -1.527  0.00  0.00    +0.001 A 
ATOM     13  C   UNL     1       2.013  -1.416  -2.611  0.00  0.00    +0.007 A 
ATOM     14  C   UNL     1       1.715  -1.831  -3.896  0.00  0.00    +0.002 A 
ATOM     15  C   UNL     1       0.998  -2.996  -4.097  0.00  0.00    +0.021 A 
ATOM     16  C   UNL     1       0.583  -3.748  -3.014  0.00  0.00    +0.060 A 
ATOM     17  C   UNL     1       0.886  -3.335  -1.727  0.00  0.00    +0.065 A 
ATOM     18 CL   UNL     1       0.366  -4.279  -0.366  0.00  0.00    -0.082 Cl
ATOM     19 CL   UNL     1      -0.318  -5.211  -3.266  0.00  0.00    -0.082 Cl
ENDBRANCH   4  12
BRANCH   8  20
ATOM     20  S   UNL     1      -1.443   2.243   0.728  0.00  0.00    -0.088 S 
ATOM     21  C   UNL     1      -0.803   3.932   0.890  0.00  0.00    +0.093 C 
ENDBRANCH   8  20
BRANCH   3  22
ATOM     22  C   UNL     1       4.164  -2.845   0.105  0.00  0.00    +0.339 C 
ATOM     23  O   UNL     1       4.130  -3.520   1.117  0.00  0.00    -0.245 OA
BRANCH  22  24
ATOM     24  O   UNL     1       4.903  -3.247  -0.950  0.00  0.00    -0.459 OA
BRANCH  24  25
ATOM     25  C   UNL     1       5.620  -4.475  -0.809  0.00  0.00    +0.260 C 
BRANCH  25  26
ATOM     26  C   UNL     1       6.394  -4.765  -2.097  0.00  0.00    +0.200 C 
BRANCH  26  27
ATOM     27  O   UNL     1       7.395  -3.763  -2.287  0.00  0.00    -0.380 OA
ATOM     28  C   UNL     1       8.179  -3.941  -3.468  0.00  0.00    +0.194 C 
ENDBRANCH  26  27
ENDBRANCH  25  26
ENDBRANCH  24  25
ENDBRANCH  22  24
ENDBRANCH   3  22
TORSDOF 7
