REMARK  Name = ZINC21695235
REMARK  8 active torsions:
REMARK  status: ('A' for Active; 'I' for Inactive)
REMARK    1  A    between atoms: C_4  and  N_7
REMARK    2  A    between atoms: C_13  and  C_15
REMARK    3  A    between atoms: C_15  and  S_16
REMARK    4  A    between atoms: S_16  and  C_17
REMARK    5  A    between atoms: C_20  and  C_23
REMARK    6  A    between atoms: N_21  and  N_22
REMARK    7  A    between atoms: C_26  and  O_29
REMARK    8  A    between atoms: O_29  and  C_30
REMARK                            x       y       z     vdW  Elec       q    Type
REMARK                         _______ _______ _______ _____ _____    ______ ____
ROOT
ATOM      1  C   UNL     1       1.022  -0.174  -1.461  0.00  0.00    +0.209 A 
ATOM      2  N   UNL     1       1.508   0.632  -2.377  0.00  0.00    -0.121 NA
ATOM      3  N   UNL     1       1.859  -0.039  -3.416  0.00  0.00    -0.127 NA
ATOM      4  C   UNL     1       1.610  -1.314  -3.230  0.00  0.00    +0.182 A 
ATOM      5  N   UNL     1       1.066  -1.441  -1.972  0.00  0.00    -0.224 N 
ENDROOT
BRANCH   4   6
ATOM      6  C   UNL     1       1.865  -2.408  -4.191  0.00  0.00    +0.021 A 
ATOM      7  C   UNL     1       2.727  -2.205  -5.270  0.00  0.00    +0.015 A 
ATOM      8  C   UNL     1       2.966  -3.229  -6.161  0.00  0.00    +0.046 A 
ATOM      9  C   UNL     1       2.343  -4.459  -5.992  0.00  0.00    +0.127 A 
ATOM     10  C   UNL     1       1.481  -4.663  -4.923  0.00  0.00    +0.046 A 
ATOM     11  C   UNL     1       1.241  -3.646  -4.024  0.00  0.00    +0.015 A 
BRANCH   9  12
ATOM     12  O   UNL     1       2.577  -5.464  -6.876  0.00  0.00    -0.434 OA
BRANCH  12  13
ATOM     13  C   UNL     1       3.474  -5.185  -7.953  0.00  0.00    +0.541 C 
ATOM     14  F   UNL     1       2.973  -4.124  -8.715  0.00  0.00    -0.166 F 
ATOM     15  F   UNL     1       4.727  -4.838  -7.438  0.00  0.00    -0.166 F 
ENDBRANCH  12  13
ENDBRANCH   9  12
ENDBRANCH   4   6
BRANCH   5  16
ATOM     16  N   UNL     1       0.656  -2.592  -1.362  0.00  0.00    -0.295 N 
ATOM     17  H   UNL     1       0.747  -3.555  -1.887  0.00  0.00    +0.163 HD
ATOM     18  H   UNL     1       0.236  -2.556  -0.346  0.00  0.00    +0.163 HD
ENDBRANCH   5  16
BRANCH   1  19
ATOM     19  S   UNL     1       0.418   0.291   0.127  0.00  0.00    -0.075 S 
BRANCH  19  20
ATOM     20  C   UNL     1       0.689   2.079   0.055  0.00  0.00    +0.173 C 
BRANCH  20  27
ATOM     21  N   UNL     1      -0.366   6.737   1.475  0.00  0.00    -0.327 N 
ATOM     22  C   UNL     1      -1.037   5.840   2.424  0.00  0.00    +0.124 C 
ATOM     23  C   UNL     1      -0.102   4.676   2.771  0.00  0.00    +0.126 C 
ATOM     24  N   UNL     1       0.338   4.042   1.520  0.00  0.00    -0.298 N 
ATOM     25  C   UNL     1       0.902   4.898   0.465  0.00  0.00    +0.126 C 
ATOM     26  C   UNL     1      -0.078   6.053   0.207  0.00  0.00    +0.124 C 
ATOM     27  C   UNL     1       0.232   2.709   1.345  0.00  0.00    +0.226 C 
ATOM     28  O   UNL     1      -0.231   2.017   2.227  0.00  0.00    -0.275 OA
BRANCH  21  32
ATOM     29  C   UNL     1      -2.614  10.183   0.834  0.00  0.00    +0.000 A 
ATOM     30  C   UNL     1      -1.407  10.016   0.181  0.00  0.00    +0.002 A 
ATOM     31  C   UNL     1      -0.658   8.874   0.392  0.00  0.00    +0.023 A 
ATOM     32  C   UNL     1      -1.120   7.893   1.260  0.00  0.00    +0.030 A 
ATOM     33  C   UNL     1      -2.336   8.062   1.910  0.00  0.00    +0.023 A 
ATOM     34  C   UNL     1      -3.077   9.208   1.699  0.00  0.00    +0.002 A 
ENDBRANCH  21  32
ENDBRANCH  20  27
ENDBRANCH  19  20
ENDBRANCH   1  19
TORSDOF 8
