REMARK  Name = ZINC63491646
REMARK  2 active torsions:
REMARK  status: ('A' for Active; 'I' for Inactive)
REMARK    1  A    between atoms: C_4  and  N_7
REMARK    2  A    between atoms: C_23  and  C_25
REMARK                            x       y       z     vdW  Elec       q    Type
REMARK                         _______ _______ _______ _____ _____    ______ ____
ROOT
ATOM      1  N   UNL     1       4.243  -0.510  -0.275  0.00  0.00    -0.269 N 
ATOM      2  C   UNL     1       4.035  -1.825  -0.064  0.00  0.00    +0.307 C 
ATOM      3  O   UNL     1       2.903  -2.249   0.062  0.00  0.00    -0.252 OA
ATOM      4  N   UNL     1       5.083  -2.669   0.008  0.00  0.00    -0.276 N 
ATOM      5  C   UNL     1       6.449  -2.136  -0.036  0.00  0.00    +0.114 C 
ATOM      6  C   UNL     1       7.210  -2.774  -1.212  0.00  0.00    +0.052 C 
ATOM      7  C   UNL     1       6.919  -4.254  -1.165  0.00  0.00    -0.035 C 
ATOM      8  C   UNL     1       7.726  -5.308  -1.170  0.00  0.00    -0.001 A 
ATOM      9  C   UNL     1       9.184  -5.425  -1.333  0.00  0.00    +0.010 A 
ATOM     10  C   UNL     1       9.695  -6.682  -1.265  0.00  0.00    +0.001 A 
ATOM     11  C   UNL     1       8.912  -7.821  -1.053  0.00  0.00    +0.002 A 
ATOM     12  C   UNL     1       7.564  -7.807  -0.901  0.00  0.00    +0.026 A 
ATOM     13  C   UNL     1       6.910  -6.543  -0.962  0.00  0.00    +0.043 A 
ATOM     14  N   UNL     1       5.647  -6.243  -0.873  0.00  0.00    -0.375 N 
ATOM     15  C   UNL     1       5.500  -4.801  -1.074  0.00  0.00    +0.131 C 
ATOM     16  C   UNL     1       4.845  -4.116   0.136  0.00  0.00    +0.135 C 
ATOM     17  H   UNL     1       5.142  -0.179  -0.427  0.00  0.00    +0.156 HD
ATOM     18  H   UNL     1       4.926  -6.869  -0.702  0.00  0.00    +0.160 HD
ENDROOT
BRANCH   1  22
ATOM     19  C   UNL     1       1.023   2.134  -0.270  0.00  0.00    +0.000 A 
ATOM     20  C   UNL     1       2.231   2.517   0.284  0.00  0.00    +0.002 A 
ATOM     21  C   UNL     1       3.300   1.643   0.284  0.00  0.00    +0.023 A 
ATOM     22  C   UNL     1       3.161   0.378  -0.273  0.00  0.00    +0.035 A 
ATOM     23  C   UNL     1       1.947  -0.003  -0.828  0.00  0.00    +0.023 A 
ATOM     24  C   UNL     1       0.881   0.876  -0.825  0.00  0.00    +0.002 A 
ENDBRANCH   1  22
BRANCH  16  25
ATOM     25  C   UNL     1       5.464  -4.624   1.412  0.00  0.00    -0.007 A 
ATOM     26  C   UNL     1       6.796  -4.363   1.699  0.00  0.00    +0.008 A 
ATOM     27  C   UNL     1       7.323  -4.851   2.885  0.00  0.00    +0.020 A 
ATOM     28  C   UNL     1       6.510  -5.576   3.736  0.00  0.00    +0.111 A 
ATOM     29  N   UNL     1       5.248  -5.806   3.430  0.00  0.00    -0.263 NA
ATOM     30  C   UNL     1       4.711  -5.352   2.314  0.00  0.00    +0.116 A 
ENDBRANCH  16  25
TORSDOF 2
