REMARK  Name = ZINC09610900
REMARK  12 active torsions:
REMARK  status: ('A' for Active; 'I' for Inactive)
REMARK    1  A    between atoms: C_1  and  C_2
REMARK    2  A    between atoms: C_7  and  S_11
REMARK    3  A    between atoms: S_11  and  N_14
REMARK    4  A    between atoms: N_14  and  C_15
REMARK    5  A    between atoms: C_15  and  C_17
REMARK    6  A    between atoms: C_15  and  C_21
REMARK    7  A    between atoms: C_17  and  C_18
REMARK    8  A    between atoms: C_18  and  C_19
REMARK    9  A    between atoms: C_18  and  C_20
REMARK   10  A    between atoms: N_23  and  C_24
REMARK   11  A    between atoms: C_29  and  C_34
REMARK   12  A    between atoms: C_31  and  C_33
REMARK                            x       y       z     vdW  Elec       q    Type
REMARK                         _______ _______ _______ _____ _____    ______ ____
ROOT
ATOM      1  C   UNL     1      -3.369   1.704   2.548  0.00  0.00    +0.162 C 
ENDROOT
BRANCH   1   2
ATOM      2  C   UNL     1      -4.308   1.297   3.655  0.00  0.00    +0.232 C 
ATOM      3  O   UNL     1      -4.777   0.179   3.672  0.00  0.00    -0.274 OA
ATOM      4  N   UNL     1      -4.626   2.177   4.626  0.00  0.00    -0.311 N 
ATOM      5  H   UNL     1      -4.250   3.071   4.612  0.00  0.00    +0.149 HD
BRANCH   4   6
ATOM      6  C   UNL     1      -5.538   1.782   5.702  0.00  0.00    +0.076 C 
ATOM      7  C   UNL     1      -6.984   1.987   5.245  0.00  0.00    +0.022 C 
ATOM      8  C   UNL     1      -7.937   1.575   6.369  0.00  0.00    +0.002 C 
ATOM      9  C   UNL     1      -7.667   2.432   7.607  0.00  0.00    +0.003 C 
ATOM     10  C   UNL     1      -6.221   2.227   8.064  0.00  0.00    -0.009 C 
ATOM     11  C   UNL     1      -5.268   2.639   6.940  0.00  0.00    +0.009 C 
ATOM     12  C   UNL     1      -5.490   4.114   6.598  0.00  0.00    +0.009 C 
ATOM     13  C   UNL     1      -5.950   3.084   9.302  0.00  0.00    +0.008 C 
ENDBRANCH   4   6
ENDBRANCH   1   2
BRANCH   1  14
ATOM     14  N   UNL     1      -3.186   0.580   1.627  0.00  0.00    -0.178 NA
ATOM     15  H   UNL     1      -2.513  -0.094   1.812  0.00  0.00    +0.149 HD
BRANCH  14  16
ATOM     16  S   UNL     1      -4.127   0.460   0.269  0.00  0.00    +0.059 S 
ATOM     17  O   UNL     1      -5.473   0.631   0.692  0.00  0.00    -0.153 OA
ATOM     18  O   UNL     1      -3.689  -0.699  -0.427  0.00  0.00    -0.153 OA
BRANCH  16  25
ATOM     19  C   UNL     1      -1.132   5.842  -5.005  0.00  0.00    +0.073 C 
ATOM     20  C   UNL     1      -1.709   4.863  -4.015  0.00  0.00    +0.076 A 
ATOM     21  N   UNL     1      -2.738   5.018  -3.230  0.00  0.00    -0.244 NA
ATOM     22  C   UNL     1      -3.155   4.055  -2.382  0.00  0.00    +0.079 A 
ATOM     23  C   UNL     1      -4.240   4.073  -1.478  0.00  0.00    +0.031 A 
ATOM     24  C   UNL     1      -4.510   2.994  -0.696  0.00  0.00    +0.030 A 
ATOM     25  C   UNL     1      -3.741   1.840  -0.756  0.00  0.00    +0.106 A 
ATOM     26  C   UNL     1      -2.666   1.785  -1.623  0.00  0.00    +0.045 A 
ATOM     27  C   UNL     1      -2.386   2.869  -2.418  0.00  0.00    +0.041 A 
ATOM     28  S   UNL     1      -1.163   3.256  -3.646  0.00  0.00    -0.072 S 
ENDBRANCH  16  25
ENDBRANCH  14  16
ENDBRANCH   1  14
BRANCH   1  29
ATOM     29  C   UNL     1      -2.018   2.099   3.146  0.00  0.00    +0.032 C 
BRANCH  29  30
ATOM     30  C   UNL     1      -1.106   2.630   2.037  0.00  0.00    -0.015 C 
ATOM     31  C   UNL     1      -1.677   3.939   1.490  0.00  0.00    +0.007 C 
ATOM     32  C   UNL     1       0.293   2.881   2.604  0.00  0.00    +0.007 C 
ENDBRANCH  29  30
ENDBRANCH   1  29
TORSDOF 7
