REMARK  Name = ZINC48555861
REMARK  12 active torsions:
REMARK  status: ('A' for Active; 'I' for Inactive)
REMARK    1  A    between atoms: C_1  and  C_2
REMARK    2  A    between atoms: C_2  and  C_3
REMARK    3  A    between atoms: C_3  and  C_4
REMARK    4  A    between atoms: C_4  and  S_5
REMARK    5  A    between atoms: S_5  and  N_8
REMARK    6  A    between atoms: C_9  and  C_11
REMARK    7  A    between atoms: C_14  and  O_25
REMARK    8  A    between atoms: C_16  and  O_23
REMARK    9  A    between atoms: C_17  and  O_21
REMARK   10  A    between atoms: O_21  and  C_22
REMARK   11  A    between atoms: O_23  and  C_24
REMARK   12  A    between atoms: O_25  and  C_26
REMARK                            x       y       z     vdW  Elec       q    Type
REMARK                         _______ _______ _______ _____ _____    ______ ____
ROOT
ATOM      1  C   UNL     1      -3.886  -6.560   0.004  0.00  0.00    +0.109 A 
ATOM      2  C   UNL     1      -2.711  -7.240  -0.005  0.00  0.00    +0.045 A 
ATOM      3  C   UNL     1      -3.011  -8.623  -0.012  0.00  0.00    +0.046 A 
ATOM      4  C   UNL     1      -2.215  -9.782  -0.022  0.00  0.00    +0.133 A 
ATOM      5  C   UNL     1      -2.813 -11.024  -0.028  0.00  0.00    +0.095 A 
ATOM      6  C   UNL     1      -4.201 -11.137  -0.023  0.00  0.00    +0.167 A 
ATOM      7  C   UNL     1      -5.000 -10.004  -0.013  0.00  0.00    +0.186 A 
ATOM      8  C   UNL     1      -4.414  -8.740  -0.007  0.00  0.00    +0.096 A 
ATOM      9  N   UNL     1      -4.932  -7.463   0.009  0.00  0.00    -0.347 N 
ATOM     10  H   UNL     1      -5.875  -7.236   0.019  0.00  0.00    +0.166 HD
ENDROOT
BRANCH   1  12
ATOM     11  N   UNL     1      -2.960  -4.340   0.007  0.00  0.00    -0.089 NA
ATOM     12  C   UNL     1      -4.023  -5.095   0.013  0.00  0.00    +0.311 C 
ATOM     13  O   UNL     1      -5.253  -4.530   0.028  0.00  0.00    -0.262 OA
BRANCH  11  14
ATOM     14  S   UNL     1      -3.114  -2.691   0.017  0.00  0.00    +0.073 S 
ATOM     15  O   UNL     1      -3.737  -2.393   1.260  0.00  0.00    -0.151 OA
ATOM     16  O   UNL     1      -3.760  -2.380  -1.210  0.00  0.00    -0.151 OA
BRANCH  14  17
ATOM     17  C   UNL     1      -1.413  -2.063   0.004  0.00  0.00    +0.193 C 
BRANCH  17  18
ATOM     18  C   UNL     1      -1.433  -0.534   0.013  0.00  0.00    +0.024 C 
BRANCH  18  20
ATOM     19  C   UNL     1      -0.019   1.526   0.010  0.00  0.00    +0.004 C 
ATOM     20  C   UNL     1       0.002  -0.004   0.002  0.00  0.00    -0.002 C 
ENDBRANCH  18  20
ENDBRANCH  17  18
ENDBRANCH  14  17
ENDBRANCH  11  14
ENDBRANCH   1  12
BRANCH   7  21
ATOM     21  O   UNL     1      -6.356 -10.127  -0.007  0.00  0.00    -0.490 OA
ATOM     22  C   UNL     1      -6.997 -10.193   1.268  0.00  0.00    +0.277 C 
ENDBRANCH   7  21
BRANCH   6  23
ATOM     23  O   UNL     1      -4.778 -12.368  -0.029  0.00  0.00    -0.491 OA
ATOM     24  C   UNL     1      -3.900 -13.495  -0.040  0.00  0.00    +0.277 C 
ENDBRANCH   6  23
BRANCH   4  25
ATOM     25  O   UNL     1      -0.860  -9.678  -0.028  0.00  0.00    -0.494 OA
ATOM     26  C   UNL     1      -0.115 -10.898  -0.039  0.00  0.00    +0.277 C 
ENDBRANCH   4  25
TORSDOF 8
