REMARK  Name = ZINC39674530
REMARK  12 active torsions:
REMARK  status: ('A' for Active; 'I' for Inactive)
REMARK    1  A    between atoms: C_1  and  C_2
REMARK    2  A    between atoms: C_4  and  C_9
REMARK    3  A    between atoms: C_5  and  C_8
REMARK    4  A    between atoms: C_9  and  C_11
REMARK    5  A    between atoms: C_9  and  N_12
REMARK    6  A    between atoms: C_13  and  C_15
REMARK    7  A    between atoms: C_26  and  C_28
REMARK    8  A    between atoms: C_28  and  C_30
REMARK    9  A    between atoms: C_28  and  O_33
REMARK   10  A    between atoms: C_30  and  C_31
REMARK   11  A    between atoms: C_30  and  C_32
REMARK   12  A    between atoms: O_33  and  C_34
REMARK                            x       y       z     vdW  Elec       q    Type
REMARK                         _______ _______ _______ _____ _____    ______ ____
ROOT
ATOM      1  C   UNL     1      -3.700   3.428  -2.420  0.00  0.00    +0.100 C 
ATOM      2  C   UNL     1      -3.295   4.106  -1.092  0.00  0.00    +0.121 C 
ATOM      3  N   UNL     1      -4.504   4.853  -0.670  0.00  0.00    -0.297 N 
ATOM      4  C   UNL     1      -5.631   3.952  -1.010  0.00  0.00    +0.115 C 
ATOM      5  C   UNL     1      -5.233   3.328  -2.362  0.00  0.00    -0.004 C 
ATOM      6  C   UNL     1      -5.670   1.867  -2.416  0.00  0.00    -0.010 C 
ATOM      7  C   UNL     1      -7.199   1.796  -2.416  0.00  0.00    -0.082 C 
ATOM      8  N   UNL     1      -7.726   2.528  -3.574  0.00  0.00    +0.379 N 
ATOM      9  C   UNL     1      -7.380   3.951  -3.466  0.00  0.00    -0.082 C 
ATOM     10  C   UNL     1      -5.858   4.113  -3.511  0.00  0.00    -0.010 C 
ATOM     11  C   UNL     1      -4.564   6.076  -0.106  0.00  0.00    +0.257 C 
ATOM     12  O   UNL     1      -5.627   6.512   0.283  0.00  0.00    -0.272 OA
ATOM     13  H   UNL     1      -7.326   2.150  -4.420  0.00  0.00    -0.086 HD
ATOM     14  H   UNL     1      -8.729   2.429  -3.606  0.00  0.00    -0.086 HD
ENDROOT
BRANCH   1  16
ATOM     15  N   UNL     1      -2.925   1.470  -3.719  0.00  0.00    -0.309 N 
ATOM     16  C   UNL     1      -3.087   2.054  -2.515  0.00  0.00    +0.219 C 
ATOM     17  O   UNL     1      -2.741   1.474  -1.508  0.00  0.00    -0.275 OA
ATOM     18  H   UNL     1      -3.202   1.935  -4.524  0.00  0.00    +0.149 HD
BRANCH  15  19
ATOM     19  C   UNL     1      -2.329   0.135  -3.811  0.00  0.00    +0.100 C 
ATOM     20  C   UNL     1      -3.429  -0.923  -3.695  0.00  0.00    +0.033 C 
BRANCH  19  23
ATOM     21  C   UNL     1      -2.760   1.548  -6.741  0.00  0.00    +0.039 C 
ATOM     22  C   UNL     1      -2.218   0.133  -6.528  0.00  0.00    +0.154 C 
ATOM     23  C   UNL     1      -1.628  -0.012  -5.137  0.00  0.00    -0.001 C 
ATOM     24  C   UNL     1      -0.344  -0.300  -5.361  0.00  0.00    +0.063 C 
ATOM     25  N   UNL     1      -0.087  -0.346  -6.686  0.00  0.00    -0.159 NA
ATOM     26  N   UNL     1      -1.066  -0.121  -7.409  0.00  0.00    -0.180 NA
ATOM     27  C   UNL     1       0.679  -0.541  -4.281  0.00  0.00    +0.067 C 
ENDBRANCH  19  23
ENDBRANCH  15  19
ENDBRANCH   1  16
BRANCH  11  28
ATOM     28  C   UNL     1      -3.312   6.901   0.041  0.00  0.00    +0.261 C 
BRANCH  28  29
ATOM     29  C   UNL     1      -3.103   7.740  -1.222  0.00  0.00    +0.033 C 
ATOM     30  C   UNL     1      -1.788   8.513  -1.109  0.00  0.00    +0.011 C 
ATOM     31  C   UNL     1      -3.051   6.821  -2.443  0.00  0.00    +0.011 C 
ENDBRANCH  28  29
BRANCH  28  32
ATOM     32  O   UNL     1      -3.440   7.765   1.171  0.00  0.00    -0.479 OA
BRANCH  32  33
ATOM     33  C   UNL     1      -2.321   7.986   1.909  0.00  0.00    +0.122 A 
ATOM     34  C   UNL     1      -2.362   8.853   2.992  0.00  0.00    +0.045 A 
ATOM     35  C   UNL     1      -1.222   9.075   3.740  0.00  0.00    +0.004 A 
ATOM     36  C   UNL     1      -0.041   8.436   3.411  0.00  0.00    +0.000 A 
ATOM     37  C   UNL     1       0.003   7.573   2.332  0.00  0.00    +0.004 A 
ATOM     38  C   UNL     1      -1.136   7.342   1.584  0.00  0.00    +0.045 A 
ENDBRANCH  32  33
ENDBRANCH  28  32
ENDBRANCH  11  28
TORSDOF 7
