REMARK  Name = ZINC65882705
REMARK  8 active torsions:
REMARK  status: ('A' for Active; 'I' for Inactive)
REMARK    1  A    between atoms: C_1  and  C_2
REMARK    2  A    between atoms: C_2  and  C_3
REMARK    3  A    between atoms: C_2  and  C_4
REMARK    4  A    between atoms: C_2  and  C_5
REMARK    5  A    between atoms: C_7  and  C_10
REMARK    6  A    between atoms: C_13  and  N_16
REMARK    7  A    between atoms: C_17  and  C_19
REMARK    8  A    between atoms: N_23  and  C_25
REMARK                            x       y       z     vdW  Elec       q    Type
REMARK                         _______ _______ _______ _____ _____    ______ ____
ROOT
ATOM      1  C   UNL     1       3.563  -0.769  -3.411  0.00  0.00    +0.023 A 
ATOM      2  C   UNL     1       4.068  -1.890  -4.068  0.00  0.00    +0.013 A 
ATOM      3  C   UNL     1       5.285  -1.821  -4.712  0.00  0.00    +0.024 A 
ATOM      4  C   UNL     1       6.008  -0.633  -4.706  0.00  0.00    +0.033 A 
ATOM      5  C   UNL     1       5.506   0.485  -4.051  0.00  0.00    +0.024 A 
ATOM      6  C   UNL     1       4.288   0.422  -3.411  0.00  0.00    +0.013 A 
ENDROOT
BRANCH   1   9
ATOM      7  C   UNL     1       0.387  -1.652  -1.964  0.00  0.00    +0.233 A 
ATOM      8  N   UNL     1       1.462  -1.927  -2.646  0.00  0.00    -0.191 NA
ATOM      9  C   UNL     1       2.254  -0.842  -2.717  0.00  0.00    +0.202 A 
ATOM     10  N   UNL     1       1.675   0.141  -2.072  0.00  0.00    -0.056 NA
ATOM     11  O   UNL     1       0.447  -0.371  -1.577  0.00  0.00    -0.337 OA
BRANCH   7  13
ATOM     12  C   UNL     1      -0.196  -3.800  -0.873  0.00  0.00    +0.020 C 
ATOM     13  C   UNL     1      -0.737  -2.610  -1.668  0.00  0.00    +0.041 C 
ATOM     14  C   UNL     1      -1.343  -3.108  -2.982  0.00  0.00    +0.020 C 
ATOM     15  C   UNL     1      -1.813  -1.896  -0.848  0.00  0.00    +0.020 C 
ENDBRANCH   7  13
ENDBRANCH   1   9
BRANCH   4  16
ATOM     16  N   UNL     1       7.242  -0.565  -5.359  0.00  0.00    -0.285 N 
ATOM     17  C   UNL     1       7.450  -1.281  -6.482  0.00  0.00    +0.222 C 
ATOM     18  O   UNL     1       6.540  -1.909  -6.978  0.00  0.00    -0.275 OA
ATOM     19  H   UNL     1       7.947  -0.002  -5.005  0.00  0.00    +0.155 HD
BRANCH  17  20
ATOM     20  C   UNL     1       8.816  -1.302  -7.120  0.00  0.00    +0.101 C 
ATOM     21  C   UNL     1       9.176   0.086  -7.698  0.00  0.00    +0.110 C 
ATOM     22  C   UNL     1       9.929  -0.228  -8.973  0.00  0.00    +0.217 C 
ATOM     23  O   UNL     1      10.624   0.559  -9.581  0.00  0.00    -0.276 OA
ATOM     24  N   UNL     1       9.716  -1.505  -9.333  0.00  0.00    -0.298 N 
ATOM     25  C   UNL     1       8.820  -2.183  -8.388  0.00  0.00    +0.121 C 
BRANCH  24  26
ATOM     26  C   UNL     1      10.303  -2.139 -10.516  0.00  0.00    +0.076 C 
ATOM     27  C   UNL     1      11.841  -2.043 -10.459  0.00  0.00    +0.022 C 
ATOM     28  C   UNL     1      12.262  -1.808 -11.930  0.00  0.00    +0.002 C 
ATOM     29  C   UNL     1      11.149  -0.868 -12.458  0.00  0.00    +0.002 C 
ATOM     30  C   UNL     1       9.863  -1.392 -11.787  0.00  0.00    +0.022 C 
ENDBRANCH  24  26
ENDBRANCH  17  20
ENDBRANCH   4  16
TORSDOF 5
