REMARK  Name = ZINC13065525
REMARK  11 active torsions:
REMARK  status: ('A' for Active; 'I' for Inactive)
REMARK    1  A    between atoms: C_1  and  C_2
REMARK    2  A    between atoms: C_12  and  C_14
REMARK    3  A    between atoms: C_14  and  N_64
REMARK    4  A    between atoms: C_15  and  C_16
REMARK    5  A    between atoms: C_15  and  N_64
REMARK    6  A    between atoms: C_19  and  O_22
REMARK    7  A    between atoms: O_22  and  C_23
REMARK    8  A    between atoms: C_24  and  C_25
REMARK    9  A    between atoms: C_24  and  N_64
REMARK   10  A    between atoms: N_29  and  C_30
REMARK   11  A    between atoms: C_30  and  C_31
REMARK                            x       y       z     vdW  Elec       q    Type
REMARK                         _______ _______ _______ _____ _____    ______ ____
ROOT
ATOM      1  N   UNL     1       1.315  -2.074  -1.230  0.00  0.00    +0.390 N 
ATOM      2  H   UNL     1       0.626  -1.824  -1.948  0.00  0.00    -0.080 HD
ENDROOT
BRANCH   1   3
ATOM      3  C   UNL     1       1.099  -3.479  -0.824  0.00  0.00    -0.036 C 
BRANCH   3  15
ATOM      4  C   UNL     1      -5.178  -4.040   1.046  0.00  0.00    +0.046 C 
ATOM      5  C   UNL     1      -4.495  -4.361  -0.259  0.00  0.00    -0.026 A 
ATOM      6  C   UNL     1      -5.224  -4.867  -1.314  0.00  0.00    +0.005 A 
ATOM      7  C   UNL     1      -4.607  -5.166  -2.521  0.00  0.00    +0.001 A 
ATOM      8  C   UNL     1      -3.266  -4.965  -2.686  0.00  0.00    +0.010 A 
ATOM      9  C   UNL     1      -2.507  -4.452  -1.629  0.00  0.00    -0.001 A 
ATOM     10  C   UNL     1      -3.129  -4.147  -0.403  0.00  0.00    +0.052 A 
ATOM     11  N   UNL     1      -2.376  -3.643   0.636  0.00  0.00    -0.322 N 
ATOM     12  H   UNL     1      -2.806  -3.433   1.480  0.00  0.00    +0.169 HD
ATOM     13  C   UNL     1      -1.055  -3.437   0.496  0.00  0.00    +0.251 A 
ATOM     14  O   UNL     1      -0.420  -2.988   1.435  0.00  0.00    -0.268 OA
ATOM     15  C   UNL     1      -0.384  -3.725  -0.712  0.00  0.00    +0.001 A 
ATOM     16  C   UNL     1      -1.069  -4.219  -1.772  0.00  0.00    +0.017 A 
ENDBRANCH   3  15
ENDBRANCH   1   3
BRANCH   1  17
ATOM     17  C   UNL     1       2.673  -1.914  -1.791  0.00  0.00    -0.042 C 
BRANCH  17  18
ATOM     18  C   UNL     1       2.710  -2.549  -3.158  0.00  0.00    -0.064 A 
ATOM     19  C   UNL     1       3.186  -3.838  -3.307  0.00  0.00    +0.005 A 
ATOM     20  C   UNL     1       3.216  -4.425  -4.557  0.00  0.00    +0.046 A 
ATOM     21  C   UNL     1       2.778  -3.715  -5.665  0.00  0.00    +0.120 A 
ATOM     22  C   UNL     1       2.306  -2.419  -5.514  0.00  0.00    +0.046 A 
ATOM     23  C   UNL     1       2.273  -1.839  -4.261  0.00  0.00    +0.005 A 
BRANCH  21  24
ATOM     24  O   UNL     1       2.811  -4.287  -6.897  0.00  0.00    -0.495 OA
ATOM     25  C   UNL     1       3.203  -5.660  -6.964  0.00  0.00    +0.277 C 
ENDBRANCH  21  24
ENDBRANCH  17  18
ENDBRANCH   1  17
BRANCH   1  26
ATOM     26  C   UNL     1       1.141  -1.180  -0.066  0.00  0.00    +0.001 C 
BRANCH  26  27
ATOM     27  C   UNL     1       1.214   0.251  -0.536  0.00  0.00    +0.135 A 
ATOM     28  N   UNL     1       2.300   0.967  -0.697  0.00  0.00    -0.115 NA
ATOM     29  N   UNL     1       1.948   2.135  -1.110  0.00  0.00    -0.023 NA
ATOM     30  N   UNL     1       0.666   2.183  -1.216  0.00  0.00    -0.044 NA
ATOM     31  N   UNL     1       0.177   1.040  -0.871  0.00  0.00    -0.227 N 
BRANCH  31  32
ATOM     32  C   UNL     1      -1.241   0.671  -0.848  0.00  0.00    +0.182 C 
BRANCH  32  33
ATOM     33  C   UNL     1      -1.674   0.256  -2.231  0.00  0.00    -0.026 A 
ATOM     34  C   UNL     1      -2.071   1.212  -3.147  0.00  0.00    +0.008 A 
ATOM     35  C   UNL     1      -2.463   0.833  -4.416  0.00  0.00    +0.038 A 
ATOM     36  C   UNL     1      -2.469  -0.506  -4.767  0.00  0.00    +0.123 A 
ATOM     37  C   UNL     1      -2.077  -1.464  -3.848  0.00  0.00    +0.038 A 
ATOM     38  C   UNL     1      -1.679  -1.082  -2.580  0.00  0.00    +0.008 A 
ATOM     39  F   UNL     1      -2.858  -0.878  -6.007  0.00  0.00    -0.205 F 
ENDBRANCH  32  33
ENDBRANCH  31  32
ENDBRANCH  26  27
ENDBRANCH   1  26
TORSDOF 9
