REMARK  Name = ZINC22929699
REMARK  9 active torsions:
REMARK  status: ('A' for Active; 'I' for Inactive)
REMARK    1  A    between atoms: C_1  and  C_2
REMARK    2  A    between atoms: C_2  and  O_3
REMARK    3  A    between atoms: O_3  and  C_4
REMARK    4  A    between atoms: C_7  and  C_10
REMARK    5  A    between atoms: C_10  and  C_12
REMARK    6  A    between atoms: C_10  and  N_27
REMARK    7  A    between atoms: N_16  and  C_17
REMARK    8  A    between atoms: C_17  and  C_18
REMARK    9  A    between atoms: N_30  and  C_33
REMARK                            x       y       z     vdW  Elec       q    Type
REMARK                         _______ _______ _______ _____ _____    ______ ____
ROOT
ATOM      1  C   UNL     1      -2.001  -6.092  -0.011  0.00  0.00    +0.157 C 
ENDROOT
BRANCH   1   2
ATOM      2  N   UNL     1      -3.108  -6.458   0.883  0.00  0.00    -0.293 NA
ATOM      3  C   UNL     1      -2.880  -5.945   2.241  0.00  0.00    +0.067 C 
ATOM      4  C   UNL     1      -4.080  -6.295   3.123  0.00  0.00    -0.063 C 
ATOM      5  N   UNL     1      -4.255  -7.753   3.156  0.00  0.00    +0.383 N 
ATOM      6  C   UNL     1      -4.507  -8.247   1.796  0.00  0.00    -0.063 C 
ATOM      7  C   UNL     1      -3.310  -7.913   0.902  0.00  0.00    +0.067 C 
ATOM      8  H   UNL     1      -3.420  -8.184   3.521  0.00  0.00    -0.081 HD
BRANCH   5   9
ATOM      9  C   UNL     1      -5.396  -8.089   4.017  0.00  0.00    -0.068 C 
ATOM     10  C   UNL     1      -5.115  -7.640   5.466  0.00  0.00    -0.015 C 
ATOM     11  C   UNL     1      -5.743  -8.755   6.338  0.00  0.00    -0.002 C 
ATOM     12  C   UNL     1      -5.423 -10.039   5.534  0.00  0.00    -0.002 C 
ATOM     13  C   UNL     1      -5.592  -9.615   4.060  0.00  0.00    -0.015 C 
ENDBRANCH   5   9
ENDBRANCH   1   2
BRANCH   1  17
ATOM     14  C   UNL     1      -1.498  -1.848   0.006  0.00  0.00    +0.121 A 
ATOM     15  C   UNL     1      -0.388  -2.679  -0.003  0.00  0.00    +0.046 A 
ATOM     16  C   UNL     1      -0.553  -4.051  -0.008  0.00  0.00    +0.009 A 
ATOM     17  C   UNL     1      -1.823  -4.596  -0.005  0.00  0.00    -0.023 A 
ATOM     18  C   UNL     1      -2.932  -3.769   0.004  0.00  0.00    +0.009 A 
ATOM     19  C   UNL     1      -2.772  -2.397   0.016  0.00  0.00    +0.046 A 
BRANCH  14  20
ATOM     20  O   UNL     1      -1.339  -0.499   0.012  0.00  0.00    -0.492 OA
BRANCH  20  22
ATOM     21  C   UNL     1      -0.019   1.526   0.010  0.00  0.00    +0.048 C 
ATOM     22  C   UNL     1       0.002  -0.004   0.002  0.00  0.00    +0.225 C 
ENDBRANCH  20  22
ENDBRANCH  14  20
ENDBRANCH   1  17
BRANCH   1  23
ATOM     23  C   UNL     1      -2.311  -6.555  -1.411  0.00  0.00    +0.173 A 
ATOM     24  N   UNL     1      -3.449  -6.417  -2.047  0.00  0.00    -0.111 NA
ATOM     25  N   UNL     1      -3.318  -6.940  -3.217  0.00  0.00    -0.023 NA
ATOM     26  N   UNL     1      -2.126  -7.409  -3.344  0.00  0.00    -0.044 NA
ATOM     27  N   UNL     1      -1.472  -7.186  -2.254  0.00  0.00    -0.223 N 
BRANCH  27  28
ATOM     28  C   UNL     1      -0.081  -7.554  -1.982  0.00  0.00    +0.182 C 
BRANCH  28  29
ATOM     29  C   UNL     1      -0.034  -8.934  -1.379  0.00  0.00    -0.022 A 
ATOM     30  C   UNL     1      -0.106  -9.090  -0.008  0.00  0.00    +0.009 A 
ATOM     31  C   UNL     1      -0.065 -10.354   0.550  0.00  0.00    +0.050 A 
ATOM     32  C   UNL     1       0.050 -11.469  -0.265  0.00  0.00    +0.166 A 
ATOM     33  C   UNL     1       0.123 -11.311  -1.647  0.00  0.00    +0.167 A 
ATOM     34  C   UNL     1       0.075 -10.042  -2.199  0.00  0.00    +0.055 A 
ATOM     35  O   UNL     1       0.231 -12.545  -2.221  0.00  0.00    -0.453 OA
ATOM     36  C   UNL     1       0.634 -13.430  -1.159  0.00  0.00    +0.466 C 
ATOM     37  O   UNL     1       0.113 -12.801   0.026  0.00  0.00    -0.453 OA
ENDBRANCH  28  29
ENDBRANCH  27  28
ENDBRANCH   1  23
TORSDOF 8
