REMARK  Name = ZINC11758951
REMARK  9 active torsions:
REMARK  status: ('A' for Active; 'I' for Inactive)
REMARK    1  A    between atoms: C_1  and  C_2
REMARK    2  A    between atoms: C_5  and  S_8
REMARK    3  A    between atoms: S_8  and  N_11
REMARK    4  A    between atoms: C_15  and  C_17
REMARK    5  A    between atoms: C_17  and  O_19
REMARK    6  A    between atoms: O_19  and  C_20
REMARK    7  A    between atoms: C_20  and  C_21
REMARK    8  A    between atoms: N_26  and  C_27
REMARK    9  A    between atoms: C_33  and  C_35
REMARK                            x       y       z     vdW  Elec       q    Type
REMARK                         _______ _______ _______ _____ _____    ______ ____
ROOT
ATOM      1  C   UNL     1      -1.060   3.985  -1.531  0.00  0.00    +0.327 C 
ATOM      2  O   UNL     1      -0.192   3.861  -2.362  0.00  0.00    -0.249 OA
ENDROOT
BRANCH   1   7
ATOM      3  N   UNL     1      -0.768   1.595  -1.151  0.00  0.00    -0.163 NA
ATOM      4  C   UNL     1      -0.013   1.086   0.008  0.00  0.00    +0.110 C 
ATOM      5  C   UNL     1      -0.783   1.608   1.247  0.00  0.00    +0.019 C 
ATOM      6  C   UNL     1      -1.232   3.013   0.763  0.00  0.00    +0.033 C 
ATOM      7  C   UNL     1      -1.519   2.789  -0.737  0.00  0.00    +0.188 C 
BRANCH   3   8
ATOM      8  S   UNL     1      -0.769   0.932  -2.669  0.00  0.00    +0.062 S 
ATOM      9  O   UNL     1      -1.126   1.975  -3.567  0.00  0.00    -0.153 OA
ATOM     10  O   UNL     1       0.442   0.200  -2.793  0.00  0.00    -0.153 OA
BRANCH   8  15
ATOM     11  C   UNL     1      -5.250  -3.105  -2.848  0.00  0.00    +0.044 C 
ATOM     12  C   UNL     1      -4.131  -2.096  -2.804  0.00  0.00    -0.050 A 
ATOM     13  C   UNL     1      -4.371  -0.781  -3.154  0.00  0.00    +0.005 A 
ATOM     14  C   UNL     1      -3.345   0.144  -3.113  0.00  0.00    +0.029 A 
ATOM     15  C   UNL     1      -2.078  -0.246  -2.721  0.00  0.00    +0.106 A 
ATOM     16  C   UNL     1      -1.836  -1.563  -2.376  0.00  0.00    +0.029 A 
ATOM     17  C   UNL     1      -2.864  -2.487  -2.412  0.00  0.00    +0.005 A 
ENDBRANCH   8  15
ENDBRANCH   3   8
ENDBRANCH   1   7
BRANCH   1  18
ATOM     18  O   UNL     1      -1.615   5.188  -1.314  0.00  0.00    -0.454 OA
BRANCH  18  19
ATOM     19  C   UNL     1      -1.123   6.294  -2.115  0.00  0.00    +0.328 C 
BRANCH  19  20
ATOM     20  C   UNL     1      -1.858   7.554  -1.736  0.00  0.00    +0.258 C 
ATOM     21  O   UNL     1      -2.711   7.523  -0.876  0.00  0.00    -0.272 OA
ATOM     22  N   UNL     1      -1.566   8.716  -2.353  0.00  0.00    -0.237 N 
ATOM     23  C   UNL     1      -2.223   9.843  -2.014  0.00  0.00    +0.306 C 
ATOM     24  O   UNL     1      -3.079   9.811  -1.152  0.00  0.00    -0.252 OA
ATOM     25  N   UNL     1      -1.931  11.005  -2.631  0.00  0.00    -0.296 N 
ATOM     26  H   UNL     1      -0.883   8.742  -3.042  0.00  0.00    +0.159 HD
ATOM     27  H   UNL     1      -1.248  11.030  -3.320  0.00  0.00    +0.151 HD
BRANCH  25  28
ATOM     28  C   UNL     1      -2.645  12.230  -2.263  0.00  0.00    +0.077 C 
ATOM     29  C   UNL     1      -3.956  12.312  -3.047  0.00  0.00    +0.022 C 
ATOM     30  C   UNL     1      -3.653  12.330  -4.547  0.00  0.00    +0.002 C 
ATOM     31  C   UNL     1      -2.784  13.546  -4.877  0.00  0.00    +0.000 C 
ATOM     32  C   UNL     1      -1.473  13.464  -4.092  0.00  0.00    +0.005 C 
ATOM     33  C   UNL     1      -1.777  13.445  -2.593  0.00  0.00    +0.006 C 
ATOM     34  C   UNL     1      -0.466  13.364  -1.808  0.00  0.00    +0.009 C 
ENDBRANCH  25  28
ENDBRANCH  19  20
ENDBRANCH  18  19
ENDBRANCH   1  18
TORSDOF 7
