REMARK  Name = ZINC09869487
REMARK  10 active torsions:
REMARK  status: ('A' for Active; 'I' for Inactive)
REMARK    1  A    between atoms: C_1  and  C_2
REMARK    2  A    between atoms: C_8  and  N_10
REMARK    3  A    between atoms: C_11  and  C_13
REMARK    4  A    between atoms: C_13  and  C_15
REMARK    5  A    between atoms: C_13  and  O_16
REMARK    6  A    between atoms: O_16  and  C_17
REMARK    7  A    between atoms: C_17  and  C_19
REMARK    8  A    between atoms: C_22  and  N_28
REMARK    9  A    between atoms: C_23  and  N_25
REMARK   10  A    between atoms: N_28  and  C_29
REMARK                            x       y       z     vdW  Elec       q    Type
REMARK                         _______ _______ _______ _____ _____    ______ ____
ROOT
ATOM      1  C   UNL     1       4.836   1.233   0.896  0.00  0.00    +0.340 C 
ATOM      2  O   UNL     1       5.028   0.130   1.367  0.00  0.00    -0.245 OA
ENDROOT
BRANCH   1   3
ATOM      3  C   UNL     1       5.899   2.252   0.948  0.00  0.00    +0.061 A 
ATOM      4  C   UNL     1       5.679   3.523   0.406  0.00  0.00    +0.017 A 
ATOM      5  C   UNL     1       6.665   4.467   0.454  0.00  0.00    +0.026 A 
ATOM      6  C   UNL     1       7.893   4.169   1.041  0.00  0.00    +0.058 A 
ATOM      7  C   UNL     1       8.120   2.906   1.583  0.00  0.00    +0.148 A 
ATOM      8  C   UNL     1       7.129   1.953   1.544  0.00  0.00    +0.049 A 
BRANCH   7   9
ATOM      9  N   UNL     1       9.426   2.593   2.205  0.00  0.00    +0.058 N 
ATOM     10  O   UNL     1       9.664   1.459   2.583  0.00  0.00    -0.126 OA
ATOM     11  O   UNL     1      10.262   3.468   2.341  0.00  0.00    -0.126 OA
ENDBRANCH   7   9
BRANCH   6  12
ATOM     12  N   UNL     1       8.892   5.134   1.086  0.00  0.00    -0.339 N 
ATOM     13  H   UNL     1       9.717   4.956   1.565  0.00  0.00    +0.146 HD
BRANCH  12  14
ATOM     14  C   UNL     1       8.701   6.419   0.409  0.00  0.00    +0.071 C 
ATOM     15  C   UNL     1       9.831   6.918  -0.493  0.00  0.00    +0.024 C 
ATOM     16  C   UNL     1       9.577   7.590   0.857  0.00  0.00    +0.024 C 
ENDBRANCH  12  14
ENDBRANCH   6  12
ENDBRANCH   1   3
BRANCH   1  17
ATOM     17  O   UNL     1       3.650   1.526   0.327  0.00  0.00    -0.449 OA
BRANCH  17  18
ATOM     18  C   UNL     1       2.649   0.474   0.312  0.00  0.00    +0.259 C 
ATOM     19  C   UNL     1       2.797  -0.352  -0.968  0.00  0.00    +0.062 C 
BRANCH  18  21
ATOM     20  N   UNL     1       0.186   0.298   0.454  0.00  0.00    -0.309 N 
ATOM     21  C   UNL     1       1.274   1.088   0.357  0.00  0.00    +0.254 C 
ATOM     22  O   UNL     1       1.146   2.293   0.306  0.00  0.00    -0.272 OA
ATOM     23  H   UNL     1       0.288  -0.665   0.494  0.00  0.00    +0.149 HD
BRANCH  20  30
ATOM     24  C   UNL     1      -1.632  -0.315   2.624  0.00  0.00    +0.009 C 
ATOM     25  C   UNL     1      -2.117  -0.060   1.195  0.00  0.00    +0.006 C 
ATOM     26  C   UNL     1      -3.514   0.563   1.235  0.00  0.00    +0.005 C 
ATOM     27  C   UNL     1      -3.999   0.818  -0.194  0.00  0.00    +0.000 C 
ATOM     28  C   UNL     1      -3.034   1.774  -0.897  0.00  0.00    +0.002 C 
ATOM     29  C   UNL     1      -1.637   1.150  -0.937  0.00  0.00    +0.022 C 
ATOM     30  C   UNL     1      -1.152   0.896   0.491  0.00  0.00    +0.076 C 
ENDBRANCH  20  30
ENDBRANCH  18  21
ENDBRANCH  17  18
ENDBRANCH   1  17
TORSDOF 8
