REMARK  Name = ZINC02858914
REMARK  8 active torsions:
REMARK  status: ('A' for Active; 'I' for Inactive)
REMARK    1  A    between atoms: C_4  and  C_7
REMARK    2  A    between atoms: C_7  and  C_9
REMARK    3  A    between atoms: C_7  and  S_25
REMARK    4  A    between atoms: N_11  and  N_12
REMARK    5  A    between atoms: N_12  and  C_13
REMARK    6  A    between atoms: C_13  and  N_15
REMARK    7  A    between atoms: N_15  and  C_16
REMARK    8  A    between atoms: S_25  and  C_26
REMARK                            x       y       z     vdW  Elec       q    Type
REMARK                         _______ _______ _______ _____ _____    ______ ____
ROOT
ATOM      1  C   UNL     1      -5.949  -0.985  -0.278  0.00  0.00    +0.247 C 
ATOM      2  O   UNL     1      -5.934  -2.194  -0.376  0.00  0.00    -0.273 OA
ATOM      3  N   UNL     1      -4.791  -0.303  -0.179  0.00  0.00    -0.234 N 
ATOM      4  H   UNL     1      -4.802   0.664  -0.101  0.00  0.00    +0.173 HD
ENDROOT
BRANCH   3   5
ATOM      5  N   UNL     1      -3.570  -0.990  -0.189  0.00  0.00    -0.246 N 
ATOM      6  H   UNL     1      -3.558  -1.957  -0.267  0.00  0.00    +0.172 HD
BRANCH   5   7
ATOM      7  C   UNL     1      -2.412  -0.308  -0.089  0.00  0.00    +0.151 C 
ATOM      8  S   UNL     1      -0.920  -1.148  -0.101  0.00  0.00    -0.017 S 
BRANCH   7   9
ATOM      9  N   UNL     1      -2.428   1.035   0.019  0.00  0.00    -0.296 N 
ATOM     10  H   UNL     1      -3.273   1.506   0.089  0.00  0.00    +0.154 HD
BRANCH   9  11
ATOM     11  C   UNL     1      -1.224   1.752   0.032  0.00  0.00    +0.036 A 
ATOM     12  C   UNL     1      -0.167   1.319   0.822  0.00  0.00    +0.027 A 
ATOM     13  C   UNL     1       1.023   2.021   0.831  0.00  0.00    +0.051 A 
ATOM     14  C   UNL     1       1.163   3.162   0.058  0.00  0.00    +0.166 A 
ATOM     15  C   UNL     1       0.102   3.602  -0.731  0.00  0.00    +0.168 A 
ATOM     16  C   UNL     1      -1.090   2.897  -0.739  0.00  0.00    +0.072 A 
ATOM     17  O   UNL     1       0.488   4.734  -1.389  0.00  0.00    -0.453 OA
ATOM     18  C   UNL     1       1.926   4.752  -1.313  0.00  0.00    +0.466 C 
ATOM     19  O   UNL     1       2.214   4.019  -0.107  0.00  0.00    -0.453 OA
ENDBRANCH   9  11
ENDBRANCH   7   9
ENDBRANCH   5   7
ENDBRANCH   3   5
BRANCH   1  20
ATOM     20  C   UNL     1      -7.262  -0.245  -0.268  0.00  0.00    +0.168 C 
BRANCH  20  24
ATOM     21  C   UNL     1      -8.179   1.083  -4.223  0.00  0.00    +0.000 A 
ATOM     22  C   UNL     1      -8.037   2.002  -3.200  0.00  0.00    +0.000 A 
ATOM     23  C   UNL     1      -7.740   1.573  -1.921  0.00  0.00    +0.005 A 
ATOM     24  C   UNL     1      -7.586   0.223  -1.663  0.00  0.00    -0.025 A 
ATOM     25  C   UNL     1      -7.723  -0.696  -2.687  0.00  0.00    +0.005 A 
ATOM     26  C   UNL     1      -8.024  -0.266  -3.966  0.00  0.00    +0.000 A 
ENDBRANCH  20  24
BRANCH  20  27
ATOM     27  S   UNL     1      -8.574  -1.352   0.318  0.00  0.00    -0.108 S 
BRANCH  27  28
ATOM     28  C   UNL     1      -9.995  -0.315   0.414  0.00  0.00    +0.009 A 
ATOM     29  C   UNL     1      -9.901   1.029   0.073  0.00  0.00    +0.015 A 
ATOM     30  C   UNL     1     -11.018   1.838   0.145  0.00  0.00    +0.001 A 
ATOM     31  C   UNL     1     -12.227   1.314   0.565  0.00  0.00    +0.000 A 
ATOM     32  C   UNL     1     -12.324  -0.022   0.909  0.00  0.00    +0.001 A 
ATOM     33  C   UNL     1     -11.212  -0.838   0.836  0.00  0.00    +0.015 A 
ENDBRANCH  27  28
ENDBRANCH  20  27
ENDBRANCH   1  20
TORSDOF 8
