REMARK  Name = ZINC09375899
REMARK  5 active torsions:
REMARK  status: ('A' for Active; 'I' for Inactive)
REMARK    1  A    between atoms: C_3  and  C_6
REMARK    2  A    between atoms: C_11  and  N_21
REMARK    3  A    between atoms: C_13  and  C_15
REMARK    4  A    between atoms: C_15  and  N_52
REMARK    5  A    between atoms: C_25  and  C_27
REMARK                            x       y       z     vdW  Elec       q    Type
REMARK                         _______ _______ _______ _____ _____    ______ ____
ROOT
ATOM      1  C   UNL     1      -4.089  -1.848  -0.448  0.00  0.00    +0.008 A 
ATOM      2  C   UNL     1      -5.121  -2.613  -0.880  0.00  0.00    +0.057 A 
ATOM      3  S   UNL     1      -5.008  -2.500  -2.656  0.00  0.00    -0.076 S 
ATOM      4  C   UNL     1      -3.585  -1.449  -2.781  0.00  0.00    +0.114 A 
ATOM      5  C   UNL     1      -3.232  -1.202  -1.438  0.00  0.00    +0.056 A 
ATOM      6  C   UNL     1      -2.103  -0.363  -1.248  0.00  0.00    +0.134 A 
ATOM      7  N   UNL     1      -1.466   0.112  -2.307  0.00  0.00    -0.219 NA
ATOM      8  C   UNL     1      -1.849  -0.165  -3.540  0.00  0.00    +0.116 A 
ATOM      9  N   UNL     1      -2.893  -0.934  -3.779  0.00  0.00    -0.227 NA
ENDROOT
BRANCH   1  12
ATOM     10  C   UNL     1      -4.216  -1.126   3.267  0.00  0.00    +0.008 A 
ATOM     11  C   UNL     1      -4.678  -1.199   1.969  0.00  0.00    +0.016 A 
ATOM     12  C   UNL     1      -3.837  -1.671   0.997  0.00  0.00    +0.021 A 
ATOM     13  S   UNL     1      -2.352  -2.009   1.929  0.00  0.00    -0.097 S 
ATOM     14  C   UNL     1      -2.944  -1.512   3.538  0.00  0.00    +0.046 A 
ENDBRANCH   1  12
BRANCH   6  15
ATOM     15  N   UNL     1      -1.669  -0.051   0.028  0.00  0.00    -0.303 N 
ATOM     16  C   UNL     1      -0.317  -0.611   0.283  0.00  0.00    +0.107 C 
ATOM     17  C   UNL     1       0.202   0.243   1.467  0.00  0.00    +0.021 C 
ATOM     18  C   UNL     1      -0.346   1.652   1.145  0.00  0.00    +0.033 C 
ATOM     19  C   UNL     1      -1.538   1.413   0.200  0.00  0.00    +0.160 C 
BRANCH  19  20
ATOM     20  C   UNL     1      -2.798   1.972   0.809  0.00  0.00    +0.231 C 
ATOM     21  O   UNL     1      -3.730   1.237   1.058  0.00  0.00    -0.274 OA
ATOM     22  N   UNL     1      -2.890   3.291   1.073  0.00  0.00    -0.328 N 
ATOM     23  H   UNL     1      -2.146   3.880   0.870  0.00  0.00    +0.145 HD
ATOM     24  H   UNL     1      -3.701   3.651   1.466  0.00  0.00    +0.145 HD
ENDBRANCH  19  20
ENDBRANCH   6  15
BRANCH   8  25
ATOM     25  C   UNL     1      -1.077   0.411  -4.699  0.00  0.00    -0.001 C 
BRANCH  25  31
ATOM     26  C   UNL     1       1.004  -0.623  -4.017  0.00  0.00    -0.050 C 
ATOM     27  C   UNL     1       2.070  -1.641  -4.431  0.00  0.00    +0.141 C 
ATOM     28  O   UNL     1       2.642  -1.244  -5.680  0.00  0.00    -0.383 OA
ATOM     29  C   UNL     1       1.688  -1.131  -6.740  0.00  0.00    +0.141 C 
ATOM     30  C   UNL     1       0.619  -0.107  -6.349  0.00  0.00    -0.050 C 
ATOM     31  N   UNL     1      -0.013  -0.541  -5.086  0.00  0.00    +0.387 N 
ATOM     32  H   UNL     1      -0.430  -1.469  -5.222  0.00  0.00    -0.081 HD
ENDBRANCH  25  31
ENDBRANCH   8  25
TORSDOF 5
