REMARK  Name = ZINC61115331
REMARK  7 active torsions:
REMARK  status: ('A' for Active; 'I' for Inactive)
REMARK    1  A    between atoms: C_1  and  C_2
REMARK    2  A    between atoms: C_2  and  C_3
REMARK    3  A    between atoms: C_3  and  C_4
REMARK    4  A    between atoms: C_4  and  C_5
REMARK    5  A    between atoms: C_5  and  C_6
REMARK    6  A    between atoms: C_6  and  N_7
REMARK    7  A    between atoms: C_13  and  C_15
REMARK                            x       y       z     vdW  Elec       q    Type
REMARK                         _______ _______ _______ _____ _____    ______ ____
ROOT
ATOM      1  N   UNL     1      -4.187  -4.647  -0.146  0.00  0.00    -0.263 NA
ATOM      2  C   UNL     1      -4.580  -5.524  -1.026  0.00  0.00    +0.159 C 
ATOM      3  N   UNL     1      -5.840  -6.088  -1.163  0.00  0.00    -0.245 N 
ATOM      4  C   UNL     1      -6.194  -6.544  -2.504  0.00  0.00    +0.127 C 
ATOM      5  C   UNL     1      -4.961  -7.222  -3.161  0.00  0.00    +0.096 C 
ATOM      6  S   UNL     1      -3.620  -6.267  -2.337  0.00  0.00    -0.089 S 
ATOM      7  C   UNL     1      -6.686  -6.208  -0.121  0.00  0.00    +0.271 C 
ATOM      8  O   UNL     1      -6.312  -5.927   1.000  0.00  0.00    -0.268 OA
ENDROOT
BRANCH   7   9
ATOM      9  C   UNL     1      -8.071  -6.681  -0.343  0.00  0.00    +0.127 A 
ATOM     10  C   UNL     1      -8.892  -6.952   0.750  0.00  0.00    +0.053 A 
ATOM     11  C   UNL     1     -10.187  -7.396   0.526  0.00  0.00    +0.045 A 
ATOM     12  C   UNL     1     -10.615  -7.552  -0.785  0.00  0.00    +0.040 A 
ATOM     13  C   UNL     1      -9.744  -7.263  -1.822  0.00  0.00    +0.113 A 
ATOM     14  N   UNL     1      -8.523  -6.839  -1.581  0.00  0.00    -0.250 NA
ATOM     15 CL   UNL     1     -11.248  -7.747   1.855  0.00  0.00    -0.083 Cl
ENDBRANCH   7   9
BRANCH   1  16
ATOM     16  C   UNL     1      -2.805  -4.160  -0.163  0.00  0.00    +0.144 C 
BRANCH  16  17
ATOM     17  C   UNL     1      -2.796  -2.667  -0.495  0.00  0.00    +0.023 C 
BRANCH  17  18
ATOM     18  C   UNL     1      -1.353  -2.158  -0.513  0.00  0.00    +0.002 C 
BRANCH  18  19
ATOM     19  C   UNL     1      -1.343  -0.664  -0.845  0.00  0.00    -0.000 C 
BRANCH  19  21
ATOM     20  C   UNL     1       0.110   1.338  -1.195  0.00  0.00    +0.004 C 
ATOM     21  C   UNL     1       0.100  -0.155  -0.863  0.00  0.00    -0.003 C 
ENDBRANCH  19  21
ENDBRANCH  18  19
ENDBRANCH  17  18
ENDBRANCH  16  17
ENDBRANCH   1  16
TORSDOF 6
