REMARK  Name = ZINC33706400
REMARK  15 active torsions:
REMARK  status: ('A' for Active; 'I' for Inactive)
REMARK    1  A    between atoms: C_1  and  C_2
REMARK    2  A    between atoms: C_2  and  C_4
REMARK    3  A    between atoms: C_2  and  C_10
REMARK    4  A    between atoms: C_4  and  C_5
REMARK    5  A    between atoms: C_5  and  C_6
REMARK    6  A    between atoms: C_6  and  C_7
REMARK    7  A    between atoms: C_7  and  C_8
REMARK    8  A    between atoms: C_7  and  C_9
REMARK    9  A    between atoms: C_16  and  C_45
REMARK   10  A    between atoms: C_23  and  N_38
REMARK   11  A    between atoms: C_27  and  C_37
REMARK   12  A    between atoms: C_30  and  O_33
REMARK   13  A    between atoms: O_33  and  C_34
REMARK   14  A    between atoms: C_34  and  C_36
REMARK   15  A    between atoms: N_38  and  C_39
REMARK                            x       y       z     vdW  Elec       q    Type
REMARK                         _______ _______ _______ _____ _____    ______ ____
ROOT
ATOM      1  C   UNL     1       1.383  -0.629  -1.370  0.00  0.00    -0.002 C 
ATOM      2  C   UNL     1       0.641  -0.105  -2.627  0.00  0.00    +0.004 C 
ATOM      3  C   UNL     1      -0.339  -1.235  -3.058  0.00  0.00    +0.004 C 
ATOM      4  C   UNL     1      -0.437  -2.101  -1.792  0.00  0.00    -0.003 C 
ATOM      5  C   UNL     1       1.041  -2.132  -1.346  0.00  0.00    -0.026 C 
ATOM      6  C   UNL     1       1.187  -2.831  -0.026  0.00  0.00    +0.007 C 
ATOM      7  C   UNL     1       0.451  -4.175  -0.011  0.00  0.00    +0.005 C 
ATOM      8  C   UNL     1      -0.150  -4.557  -1.355  0.00  0.00    +0.001 C 
ATOM      9  C   UNL     1      -1.058  -3.460  -1.911  0.00  0.00    -0.014 C 
ATOM     10  C   UNL     1      -1.452  -3.824  -3.344  0.00  0.00    -0.044 C 
ATOM     11  C   UNL     1      -1.995  -5.229  -3.368  0.00  0.00    -0.042 C 
ATOM     12  C   UNL     1      -1.792  -6.106  -2.442  0.00  0.00    -0.065 C 
ATOM     13  C   UNL     1      -0.928  -5.865  -1.231  0.00  0.00    -0.008 C 
ATOM     14  C   UNL     1      -1.818  -5.911   0.004  0.00  0.00    +0.015 C 
ATOM     15  C   UNL     1      -3.199  -6.453  -0.365  0.00  0.00    +0.046 C 
ATOM     16  C   UNL     1      -3.126  -7.736  -1.185  0.00  0.00    +0.180 C 
ATOM     17  C   UNL     1      -2.447  -7.473  -2.536  0.00  0.00    +0.075 C 
ATOM     18  C   UNL     1       0.100  -6.999  -1.138  0.00  0.00    +0.016 C 
ATOM     19  C   UNL     1       1.954  -2.773  -2.402  0.00  0.00    +0.012 C 
ENDROOT
BRANCH  10  20
ATOM     20  N   UNL     1      -2.540  -2.939  -3.802  0.00  0.00    +0.385 N 
ATOM     21  H   UNL     1      -3.374  -3.126  -3.266  0.00  0.00    -0.085 HD
ATOM     22  H   UNL     1      -2.267  -1.976  -3.674  0.00  0.00    -0.085 HD
BRANCH  20  23
ATOM     23  C   UNL     1      -2.807  -3.188  -5.225  0.00  0.00    -0.071 C 
ATOM     24  C   UNL     1      -1.583  -2.785  -6.051  0.00  0.00    -0.016 C 
ATOM     25  C   UNL     1      -1.861  -3.044  -7.533  0.00  0.00    -0.002 C 
ATOM     26  C   UNL     1      -3.070  -2.218  -7.977  0.00  0.00    -0.000 C 
ATOM     27  C   UNL     1      -4.293  -2.620  -7.151  0.00  0.00    -0.002 C 
ATOM     28  C   UNL     1      -4.015  -2.361  -5.669  0.00  0.00    -0.016 C 
ENDBRANCH  20  23
ENDBRANCH  10  20
BRANCH   1  30
ATOM     29  C   UNL     1      -0.638   0.117  -0.117  0.00  0.00    +0.008 C 
ATOM     30  C   UNL     1       0.892   0.096  -0.124  0.00  0.00    -0.010 C 
BRANCH  30  31
ATOM     31  C   UNL     1       1.422   1.531  -0.126  0.00  0.00    +0.003 C 
BRANCH  31  32
ATOM     32  C   UNL     1       1.044   2.216   1.188  0.00  0.00    +0.001 C 
BRANCH  32  33
ATOM     33  C   UNL     1       1.574   3.651   1.186  0.00  0.00    +0.003 C 
BRANCH  33  34
ATOM     34  C   UNL     1       1.195   4.337   2.501  0.00  0.00    -0.017 C 
ATOM     35  C   UNL     1       1.830   5.728   2.552  0.00  0.00    +0.007 C 
ATOM     36  C   UNL     1      -0.327   4.468   2.587  0.00  0.00    +0.007 C 
ENDBRANCH  33  34
ENDBRANCH  32  33
ENDBRANCH  31  32
ENDBRANCH  30  31
ENDBRANCH   1  30
BRANCH  16  37
ATOM     37  O   UNL     1      -2.407  -8.737  -0.464  0.00  0.00    -0.461 OA
BRANCH  37  38
ATOM     38  C   UNL     1      -3.122  -9.540   0.340  0.00  0.00    +0.304 C 
ATOM     39  O   UNL     1      -4.318  -9.397   0.428  0.00  0.00    -0.251 OA
ATOM     40  C   UNL     1      -2.432 -10.621   1.132  0.00  0.00    +0.136 C 
ENDBRANCH  37  38
ENDBRANCH  16  37
TORSDOF 9
