REMARK  Name = ZINC23192607
REMARK  6 active torsions:
REMARK  status: ('A' for Active; 'I' for Inactive)
REMARK    1  A    between atoms: C_1  and  N_2
REMARK    2  A    between atoms: N_2  and  C_3
REMARK    3  A    between atoms: N_2  and  C_12
REMARK    4  A    between atoms: C_3  and  C_4
REMARK    5  A    between atoms: C_5  and  C_6
REMARK    6  A    between atoms: C_21  and  O_23
REMARK                            x       y       z     vdW  Elec       q    Type
REMARK                         _______ _______ _______ _____ _____    ______ ____
ROOT
ATOM      1  C   UNL     1      -0.007   5.406  -0.010  0.00  0.00    -0.007 C 
ATOM      2  C   UNL     1      -0.432   3.953  -0.063  0.00  0.00    -0.055 A 
ATOM      3  C   UNL     1      -1.689   3.382   0.041  0.00  0.00    +0.002 A 
ATOM      4  C   UNL     1      -1.839   2.012  -0.042  0.00  0.00    +0.000 A 
ATOM      5  C   UNL     1      -0.730   1.206  -0.220  0.00  0.00    +0.000 A 
ATOM      6  C   UNL     1       0.524   1.773  -0.324  0.00  0.00    +0.004 A 
ATOM      7  C   UNL     1       0.678   3.147  -0.246  0.00  0.00    -0.037 A 
ATOM      8  C   UNL     1       1.918   4.005  -0.330  0.00  0.00    +0.017 C 
ATOM      9  C   UNL     1       1.416   5.433  -0.611  0.00  0.00    +0.116 C 
ATOM     10  C   UNL     1       2.815   3.533  -1.470  0.00  0.00    -0.005 C 
ATOM     11  C   UNL     1       4.078   4.398  -1.513  0.00  0.00    -0.082 C 
ATOM     12  N   UNL     1       4.777   4.307  -0.225  0.00  0.00    +0.379 N 
ATOM     13  C   UNL     1       3.946   4.821   0.871  0.00  0.00    -0.082 C 
ATOM     14  C   UNL     1       2.679   3.970   0.993  0.00  0.00    -0.005 C 
ATOM     15  H   UNL     1       5.022   3.255  -0.014  0.00  0.00    -0.086 HD
ATOM     16  H   UNL     1       5.704   4.898  -0.268  0.00  0.00    -0.086 HD
ENDROOT
BRANCH   1  18
ATOM     17  C   UNL     1       0.464   7.279   1.450  0.00  0.00    -0.095 C 
ATOM     18  N   UNL     1       0.017   5.881   1.379  0.00  0.00    +0.386 N 
ATOM     19  H   UNL     1       0.742   5.267   1.935  0.00  0.00    -0.081 HD
BRANCH  18  20
ATOM     20  C   UNL     1      -1.296   5.715   2.015  0.00  0.00    -0.050 C 
BRANCH  20  21
ATOM     21  C   UNL     1      -1.175   5.979   3.494  0.00  0.00    -0.045 C 
ATOM     22  C   UNL     1      -1.952   6.886   4.071  0.00  0.00    +0.002 C 
BRANCH  22  23
ATOM     23  C   UNL     1      -1.833   7.144   5.522  0.00  0.00    -0.025 A 
ATOM     24  C   UNL     1      -0.909   6.432   6.287  0.00  0.00    +0.008 A 
ATOM     25  C   UNL     1      -0.799   6.683   7.640  0.00  0.00    +0.001 A 
ATOM     26  C   UNL     1      -1.611   7.630   8.239  0.00  0.00    +0.000 A 
ATOM     27  C   UNL     1      -2.533   8.335   7.487  0.00  0.00    +0.001 A 
ATOM     28  C   UNL     1      -2.649   8.098   6.132  0.00  0.00    +0.008 A 
ENDBRANCH  22  23
ENDBRANCH  20  21
ENDBRANCH  18  20
ENDBRANCH   1  18
BRANCH   9  29
ATOM     29  O   UNL     1       1.370   5.689  -2.016  0.00  0.00    -0.392 OA
ATOM     30  H   UNL     1       2.303   5.740  -2.596  0.00  0.00    +0.210 HD
ENDBRANCH   9  29
TORSDOF 5
