REMARK  Name = ZINC40554605
REMARK  3 active torsions:
REMARK  status: ('A' for Active; 'I' for Inactive)
REMARK    1  A    between atoms: C_1  and  C_2
REMARK    2  A    between atoms: C_5  and  N_8
REMARK    3  A    between atoms: C_9  and  C_11
REMARK                            x       y       z     vdW  Elec       q    Type
REMARK                         _______ _______ _______ _____ _____    ______ ____
ROOT
ATOM      1  N   UNL     1      -1.358  -2.098   2.449  0.00  0.00    -0.307 N 
ATOM      2  C   UNL     1      -1.235  -2.779   3.606  0.00  0.00    +0.265 C 
ATOM      3  O   UNL     1      -0.555  -3.786   3.648  0.00  0.00    -0.268 OA
ATOM      4  H   UNL     1      -1.901  -1.294   2.415  0.00  0.00    +0.149 HD
ENDROOT
BRANCH   1   9
ATOM      5  C   UNL     1      -0.019   1.526   0.010  0.00  0.00    +0.007 C 
ATOM      6  C   UNL     1       0.002  -0.004   0.002  0.00  0.00    -0.014 C 
ATOM      7  C   UNL     1      -1.433  -0.534   0.013  0.00  0.00    +0.005 C 
ATOM      8  C   UNL     1      -1.413  -2.063   0.004  0.00  0.00    +0.022 C 
ATOM      9  C   UNL     1      -0.673  -2.570   1.244  0.00  0.00    +0.073 C 
ATOM     10  C   UNL     1       0.763  -2.041   1.233  0.00  0.00    +0.022 C 
ATOM     11  C   UNL     1       0.742  -0.511   1.242  0.00  0.00    +0.005 C 
ENDBRANCH   1   9
BRANCH   2  12
ATOM     12  C   UNL     1      -1.927  -2.303   4.821  0.00  0.00    +0.154 A 
ATOM     13  C   UNL     1      -1.835  -2.959   6.043  0.00  0.00    +0.155 A 
ATOM     14  N   UNL     1      -2.507  -2.407   7.020  0.00  0.00    -0.198 NA
ATOM     15  S   UNL     1      -3.208  -1.113   6.357  0.00  0.00    +0.116 S 
ATOM     16  N   UNL     1      -2.679  -1.215   4.835  0.00  0.00    -0.186 NA
ENDBRANCH   2  12
TORSDOF 2
