REMARK  Name = ZINC64652763
REMARK  10 active torsions:
REMARK  status: ('A' for Active; 'I' for Inactive)
REMARK    1  A    between atoms: C_1  and  C_2
REMARK    2  A    between atoms: C_2  and  C_3
REMARK    3  A    between atoms: C_3  and  C_4
REMARK    4  A    between atoms: C_4  and  C_5
REMARK    5  A    between atoms: C_7  and  C_10
REMARK    6  A    between atoms: C_10  and  S_11
REMARK    7  A    between atoms: S_11  and  C_12
REMARK    8  A    between atoms: C_15  and  C_17
REMARK    9  A    between atoms: C_20  and  O_23
REMARK   10  A    between atoms: O_23  and  C_24
REMARK                            x       y       z     vdW  Elec       q    Type
REMARK                         _______ _______ _______ _____ _____    ______ ____
ROOT
ATOM      1  C   UNL     1      -7.074  -5.784  -3.061  0.00  0.00    +0.278 A 
ATOM      2  N   UNL     1      -7.957  -4.906  -3.478  0.00  0.00    -0.101 NA
ATOM      3  N   UNL     1      -8.800  -5.484  -4.259  0.00  0.00    -0.106 NA
ATOM      4  C   UNL     1      -8.491  -6.753  -4.372  0.00  0.00    +0.249 A 
ATOM      5  O   UNL     1      -7.388  -6.968  -3.620  0.00  0.00    -0.411 OA
ENDROOT
BRANCH   4   6
ATOM      6  C   UNL     1      -9.211  -7.760  -5.177  0.00  0.00    +0.039 A 
ATOM      7  C   UNL     1      -8.769  -9.085  -5.199  0.00  0.00    +0.017 A 
ATOM      8  C   UNL     1      -9.445 -10.022  -5.951  0.00  0.00    +0.046 A 
ATOM      9  C   UNL     1     -10.563  -9.651  -6.686  0.00  0.00    +0.127 A 
ATOM     10  C   UNL     1     -11.006  -8.335  -6.666  0.00  0.00    +0.046 A 
ATOM     11  C   UNL     1     -10.340  -7.392  -5.913  0.00  0.00    +0.017 A 
BRANCH   9  12
ATOM     12  O   UNL     1     -11.226 -10.578  -7.426  0.00  0.00    -0.434 OA
BRANCH  12  13
ATOM     13  C   UNL     1     -12.369 -10.128  -8.157  0.00  0.00    +0.541 C 
ATOM     14  F   UNL     1     -13.316  -9.608  -7.268  0.00  0.00    -0.166 F 
ATOM     15  F   UNL     1     -11.982  -9.132  -9.060  0.00  0.00    -0.166 F 
ENDBRANCH  12  13
ENDBRANCH   9  12
ENDBRANCH   4   6
BRANCH   1  16
ATOM     16  S   UNL     1      -5.722  -5.468  -1.976  0.00  0.00    -0.058 S 
BRANCH  16  17
ATOM     17  C   UNL     1      -5.868  -3.701  -1.596  0.00  0.00    +0.158 C 
BRANCH  17  20
ATOM     18  C   UNL     1      -2.826  -2.585   0.015  0.00  0.00    +0.227 A 
ATOM     19  N   UNL     1      -3.552  -2.849  -1.036  0.00  0.00    -0.195 NA
ATOM     20  C   UNL     1      -4.756  -3.295  -0.663  0.00  0.00    +0.182 A 
ATOM     21  N   UNL     1      -4.812  -3.320   0.638  0.00  0.00    -0.060 NA
ATOM     22  O   UNL     1      -3.552  -2.863   1.106  0.00  0.00    -0.338 OA
BRANCH  18  23
ATOM     23  C   UNL     1      -1.413  -2.063   0.004  0.00  0.00    +0.099 C 
BRANCH  23  24
ATOM     24  C   UNL     1      -1.433  -0.534   0.013  0.00  0.00    +0.009 C 
BRANCH  24  26
ATOM     25  C   UNL     1      -0.019   1.526   0.010  0.00  0.00    +0.004 C 
ATOM     26  C   UNL     1       0.002  -0.004   0.002  0.00  0.00    -0.003 C 
ENDBRANCH  24  26
ENDBRANCH  23  24
ENDBRANCH  18  23
ENDBRANCH  17  20
ENDBRANCH  16  17
ENDBRANCH   1  16
TORSDOF 9
