REMARK  Name = ZINC49472688
REMARK  7 active torsions:
REMARK  status: ('A' for Active; 'I' for Inactive)
REMARK    1  A    between atoms: C_1  and  C_2
REMARK    2  A    between atoms: C_3  and  C_11
REMARK    3  A    between atoms: N_13  and  C_14
REMARK    4  A    between atoms: C_18  and  C_26
REMARK    5  A    between atoms: C_26  and  C_27
REMARK    6  A    between atoms: C_26  and  C_28
REMARK    7  A    between atoms: C_26  and  C_29
REMARK                            x       y       z     vdW  Elec       q    Type
REMARK                         _______ _______ _______ _____ _____    ______ ____
ROOT
ATOM      1  C   UNL     1      -0.503  -0.782  -4.868  0.00  0.00    +0.036 A 
ATOM      2  C   UNL     1      -0.340   0.576  -5.147  0.00  0.00    +0.024 A 
ATOM      3  C   UNL     1      -0.049   0.992  -6.413  0.00  0.00    +0.012 A 
ATOM      4  C   UNL     1       0.088   0.051  -7.441  0.00  0.00    +0.002 A 
ATOM      5  C   UNL     1       0.401   0.466  -8.808  0.00  0.00    -0.028 A 
ATOM      6  C   UNL     1       0.522  -0.489  -9.764  0.00  0.00    +0.075 A 
ATOM      7  C   UNL     1       0.349  -1.849  -9.437  0.00  0.00    +0.249 A 
ATOM      8  O   UNL     1       0.463  -2.690 -10.312  0.00  0.00    -0.268 OA
ATOM      9  N   UNL     1       0.062  -2.242  -8.184  0.00  0.00    -0.322 N 
ATOM     10  H   UNL     1      -0.051  -3.186  -7.992  0.00  0.00    +0.169 HD
ATOM     11  C   UNL     1      -0.075  -1.322  -7.166  0.00  0.00    +0.051 A 
ATOM     12  C   UNL     1      -0.367  -1.729  -5.870  0.00  0.00    +0.049 A 
ENDROOT
BRANCH   1  15
ATOM     13  C   UNL     1      -1.574  -0.417  -2.779  0.00  0.00    +0.267 C 
ATOM     14  O   UNL     1      -2.090   0.590  -3.231  0.00  0.00    -0.268 OA
ATOM     15  N   UNL     1      -0.801  -1.190  -3.568  0.00  0.00    -0.280 N 
ATOM     16  H   UNL     1      -0.451  -2.029  -3.231  0.00  0.00    +0.155 HD
BRANCH  13  19
ATOM     17  C   UNL     1      -4.072  -1.936  -1.692  0.00  0.00    +0.068 C 
ATOM     18  C   UNL     1      -2.881  -1.449  -0.906  0.00  0.00    +0.069 A 
ATOM     19  C   UNL     1      -1.786  -0.775  -1.425  0.00  0.00    +0.131 A 
ATOM     20  N   UNL     1      -0.943  -0.523  -0.358  0.00  0.00    -0.295 N 
ATOM     21  C   UNL     1       0.263   0.100  -0.271  0.00  0.00    +0.093 A 
ATOM     22  C   UNL     1       0.894   0.217   0.919  0.00  0.00    +0.018 A 
ATOM     23  C   UNL     1       0.307  -0.305   2.081  0.00  0.00    +0.005 A 
ATOM     24  C   UNL     1      -0.902  -0.930   2.002  0.00  0.00    +0.047 A 
ATOM     25  C   UNL     1      -1.541  -1.042   0.754  0.00  0.00    +0.138 A 
ATOM     26  N   UNL     1      -2.704  -1.585   0.398  0.00  0.00    -0.232 NA
ENDBRANCH  13  19
ENDBRANCH   1  15
BRANCH   5  27
ATOM     27  C   UNL     1       0.583   1.923  -9.147  0.00  0.00    -0.012 C 
ATOM     28  C   UNL     1       0.845   2.068 -10.647  0.00  0.00    +0.015 C 
ATOM     29  C   UNL     1      -0.683   2.696  -8.772  0.00  0.00    +0.015 C 
ATOM     30  C   UNL     1       1.773   2.483  -8.365  0.00  0.00    +0.015 C 
ENDBRANCH   5  27
TORSDOF 3
