REMARK  Name = ZINC41258707
REMARK  5 active torsions:
REMARK  status: ('A' for Active; 'I' for Inactive)
REMARK    1  A    between atoms: C_1  and  C_2
REMARK    2  A    between atoms: C_5  and  C_8
REMARK    3  A    between atoms: C_8  and  C_10
REMARK    4  A    between atoms: C_8  and  N_12
REMARK    5  A    between atoms: N_20  and  C_21
REMARK                            x       y       z     vdW  Elec       q    Type
REMARK                         _______ _______ _______ _____ _____    ______ ____
ROOT
ATOM      1  N   UNL     1       0.898  -4.860   1.032  0.00  0.00    -0.281 NA
ATOM      2  C   UNL     1       0.334  -4.622   2.367  0.00  0.00    +0.105 C 
ATOM      3  C   UNL     1       1.331  -5.095   3.431  0.00  0.00    +0.124 C 
ATOM      4  N   UNL     1       1.689  -6.493   3.147  0.00  0.00    -0.283 N 
ATOM      5  C   UNL     1       2.133  -6.835   1.787  0.00  0.00    +0.124 C 
ATOM      6  C   UNL     1       1.105  -6.294   0.788  0.00  0.00    +0.105 C 
ATOM      7  C   UNL     1       1.612  -7.435   4.107  0.00  0.00    +0.302 C 
ATOM      8  O   UNL     1       1.149  -7.157   5.197  0.00  0.00    -0.253 OA
ATOM      9  N   UNL     1       2.048  -8.686   3.860  0.00  0.00    -0.296 N 
ATOM     10  H   UNL     1       2.350  -8.928   2.971  0.00  0.00    +0.151 HD
ENDROOT
BRANCH   9  11
ATOM     11  C   UNL     1       2.066  -9.682   4.935  0.00  0.00    +0.074 C 
ATOM     12  C   UNL     1       3.363  -9.545   5.735  0.00  0.00    +0.022 C 
ATOM     13  C   UNL     1       3.382 -10.585   6.858  0.00  0.00    +0.002 C 
ATOM     14  C   UNL     1       3.300 -11.988   6.254  0.00  0.00    +0.000 C 
ATOM     15  C   UNL     1       2.003 -12.125   5.454  0.00  0.00    +0.002 C 
ATOM     16  C   UNL     1       1.984 -11.085   4.332  0.00  0.00    +0.022 C 
ENDBRANCH   9  11
BRANCH   1  17
ATOM     17  C   UNL     1       0.051  -4.265  -0.011  0.00  0.00    +0.191 C 
BRANCH  17  22
ATOM     18  C   UNL     1       2.379  -5.296  -5.199  0.00  0.00    +0.044 C 
ATOM     19  C   UNL     1       1.772  -5.027  -3.846  0.00  0.00    -0.050 A 
ATOM     20  C   UNL     1       2.570  -4.592  -2.804  0.00  0.00    +0.004 A 
ATOM     21  C   UNL     1       2.013  -4.345  -1.563  0.00  0.00    +0.006 A 
ATOM     22  C   UNL     1       0.658  -4.533  -1.364  0.00  0.00    -0.016 A 
ATOM     23  C   UNL     1      -0.140  -4.968  -2.406  0.00  0.00    +0.006 A 
ATOM     24  C   UNL     1       0.416  -5.210  -3.648  0.00  0.00    +0.004 A 
ENDBRANCH  17  22
BRANCH  17  25
ATOM     25  C   UNL     1      -0.045  -2.812   0.205  0.00  0.00    +0.086 C 
ATOM     26  N   UNL     1      -0.120  -1.691   0.371  0.00  0.00    -0.195 NA
ENDBRANCH  17  25
ENDBRANCH   1  17
TORSDOF 4
