REMARK  Name = ZINC36066432
REMARK  11 active torsions:
REMARK  status: ('A' for Active; 'I' for Inactive)
REMARK    1  A    between atoms: C_1  and  C_2
REMARK    2  A    between atoms: C_8  and  N_10
REMARK    3  A    between atoms: C_11  and  C_13
REMARK    4  A    between atoms: C_21  and  C_32
REMARK    5  A    between atoms: N_27  and  C_28
REMARK    6  A    between atoms: C_28  and  C_29
REMARK    7  A    between atoms: C_29  and  O_30
REMARK    8  A    between atoms: O_30  and  C_31
REMARK    9  A    between atoms: N_34  and  C_35
REMARK   10  A    between atoms: C_39  and  O_41
REMARK   11  A    between atoms: O_41  and  C_42
REMARK                            x       y       z     vdW  Elec       q    Type
REMARK                         _______ _______ _______ _____ _____    ______ ____
ROOT
ATOM      1  C   UNL     1       0.694   0.079   4.417  0.00  0.00    +0.198 C 
ATOM      2  C   UNL     1       0.416   1.545   4.533  0.00  0.00    +0.127 C 
ATOM      3  C   UNL     1       1.618   2.402   4.180  0.00  0.00    +0.009 C 
ATOM      4  C   UNL     1       1.218   3.658   4.320  0.00  0.00    +0.004 C 
ATOM      5  C   UNL     1      -0.227   3.560   4.824  0.00  0.00    +0.155 C 
ATOM      6  O   UNL     1      -0.691   2.322   4.141  0.00  0.00    -0.358 OA
ATOM      7  C   UNL     1      -0.028   3.084   6.315  0.00  0.00    +0.123 C 
ATOM      8  C   UNL     1       0.207   1.589   6.100  0.00  0.00    +0.128 C 
ATOM      9  C   UNL     1       1.375   0.805   6.543  0.00  0.00    +0.223 C 
ATOM     10  O   UNL     1       2.018   0.977   7.556  0.00  0.00    -0.275 OA
ATOM     11  N   UNL     1       1.594  -0.160   5.588  0.00  0.00    -0.284 N 
ENDROOT
BRANCH   1  13
ATOM     12  N   UNL     1       0.689  -0.629   2.047  0.00  0.00    -0.311 N 
ATOM     13  C   UNL     1       1.399  -0.235   3.123  0.00  0.00    +0.237 C 
ATOM     14  O   UNL     1       2.605  -0.133   3.049  0.00  0.00    -0.274 OA
ATOM     15  H   UNL     1      -0.276  -0.711   2.105  0.00  0.00    +0.149 HD
BRANCH  12  22
ATOM     16  C   UNL     1      -0.084   0.706  -0.404  0.00  0.00    +0.009 C 
ATOM     17  C   UNL     1       0.406  -0.743  -0.380  0.00  0.00    +0.006 C 
ATOM     18  C   UNL     1      -0.789  -1.683  -0.210  0.00  0.00    +0.005 C 
ATOM     19  C   UNL     1      -0.300  -3.132  -0.185  0.00  0.00    +0.000 C 
ATOM     20  C   UNL     1       0.669  -3.323   0.983  0.00  0.00    +0.002 C 
ATOM     21  C   UNL     1       1.865  -2.384   0.813  0.00  0.00    +0.022 C 
ATOM     22  C   UNL     1       1.375  -0.934   0.789  0.00  0.00    +0.076 C 
ENDBRANCH  12  22
ENDBRANCH   1  13
BRANCH   7  23
ATOM     23  C   UNL     1       1.168   3.754   6.942  0.00  0.00    +0.224 C 
ATOM     24  O   UNL     1       2.103   3.087   7.330  0.00  0.00    -0.275 OA
ATOM     25  N   UNL     1       1.198   5.095   7.071  0.00  0.00    -0.285 N 
ATOM     26  H   UNL     1       0.482   5.635   6.699  0.00  0.00    +0.155 HD
BRANCH  25  27
ATOM     27  C   UNL     1       2.260   5.710   7.743  0.00  0.00    +0.037 A 
ATOM     28  C   UNL     1       2.709   6.960   7.336  0.00  0.00    +0.023 A 
ATOM     29  C   UNL     1       3.759   7.567   7.999  0.00  0.00    +0.005 A 
ATOM     30  C   UNL     1       4.364   6.932   9.067  0.00  0.00    +0.046 A 
ATOM     31  C   UNL     1       3.920   5.683   9.477  0.00  0.00    +0.122 A 
ATOM     32  C   UNL     1       2.863   5.074   8.818  0.00  0.00    +0.069 A 
BRANCH  31  33
ATOM     33  O   UNL     1       4.517   5.060  10.527  0.00  0.00    -0.495 OA
ATOM     34  C   UNL     1       5.596   5.749  11.162  0.00  0.00    +0.277 C 
ENDBRANCH  31  33
ENDBRANCH  25  27
ENDBRANCH   7  23
BRANCH  11  35
ATOM     35  C   UNL     1       2.561  -1.254   5.700  0.00  0.00    +0.136 C 
BRANCH  35  36
ATOM     36  C   UNL     1       1.869  -2.489   6.282  0.00  0.00    +0.178 C 
BRANCH  36  37
ATOM     37  O   UNL     1       0.876  -2.954   5.366  0.00  0.00    -0.381 OA
ATOM     38  C   UNL     1       0.167  -4.111   5.816  0.00  0.00    +0.194 C 
ENDBRANCH  36  37
ENDBRANCH  35  36
ENDBRANCH  11  35
TORSDOF 8
