REMARK  Name = ZINC46581268
REMARK  11 active torsions:
REMARK  status: ('A' for Active; 'I' for Inactive)
REMARK    1  A    between atoms: C_1  and  C_2
REMARK    2  A    between atoms: C_3  and  C_32
REMARK    3  A    between atoms: C_7  and  N_31
REMARK    4  A    between atoms: C_9  and  S_11
REMARK    5  A    between atoms: S_11  and  C_12
REMARK    6  A    between atoms: C_12  and  C_13
REMARK    7  A    between atoms: N_15  and  C_16
REMARK    8  A    between atoms: N_15  and  C_17
REMARK    9  A    between atoms: C_17  and  C_18
REMARK   10  A    between atoms: N_20  and  C_21
REMARK   11  A    between atoms: C_26  and  C_27
REMARK                            x       y       z     vdW  Elec       q    Type
REMARK                         _______ _______ _______ _____ _____    ______ ____
ROOT
ATOM      1  C   UNL     1       3.245  -3.973   6.436  0.00  0.00    +0.226 C 
ATOM      2  O   UNL     1       3.324  -5.159   6.677  0.00  0.00    -0.275 OA
ATOM      3  N   UNL     1       3.876  -3.081   7.226  0.00  0.00    -0.295 N 
ATOM      4  C   UNL     1       3.780  -1.648   6.935  0.00  0.00    +0.132 C 
ENDROOT
BRANCH   1   5
ATOM      5  C   UNL     1       2.441  -3.496   5.254  0.00  0.00    +0.173 C 
BRANCH   5   6
ATOM      6  S   UNL     1       1.721  -4.923   4.397  0.00  0.00    -0.077 S 
BRANCH   6  15
ATOM      7  C   UNL     1      -1.484  -1.226  -0.511  0.00  0.00    +0.045 C 
ATOM      8  C   UNL     1      -1.347  -2.684  -0.159  0.00  0.00    -0.028 A 
ATOM      9  C   UNL     1      -1.947  -3.621  -0.908  0.00  0.00    -0.008 A 
ATOM     10  S   UNL     1      -1.496  -5.148  -0.104  0.00  0.00    -0.073 S 
ATOM     11  C   UNL     1      -0.514  -4.486   1.216  0.00  0.00    +0.115 A 
ATOM     12  C   UNL     1      -0.560  -3.092   0.992  0.00  0.00    +0.050 A 
ATOM     13  C   UNL     1       0.165  -2.298   1.923  0.00  0.00    +0.129 A 
ATOM     14  N   UNL     1       0.819  -2.890   2.908  0.00  0.00    -0.207 NA
ATOM     15  C   UNL     1       0.824  -4.210   3.059  0.00  0.00    +0.191 A 
ATOM     16  N   UNL     1       0.159  -4.999   2.226  0.00  0.00    -0.214 NA
ATOM     17  C   UNL     1      -2.798  -3.430  -2.136  0.00  0.00    +0.052 C 
BRANCH  13  18
ATOM     18  N   UNL     1       0.185  -0.921   1.801  0.00  0.00    -0.343 N 
ATOM     19  H   UNL     1       0.024  -0.508   0.938  0.00  0.00    +0.144 HD
ATOM     20  H   UNL     1       0.360  -0.367   2.578  0.00  0.00    +0.144 HD
ENDBRANCH  13  18
ENDBRANCH   6  15
ENDBRANCH   5   6
ENDBRANCH   1   5
BRANCH   3  21
ATOM     21  C   UNL     1       4.657  -3.545   8.375  0.00  0.00    +0.203 C 
BRANCH  21  22
ATOM     22  C   UNL     1       6.081  -3.793   7.947  0.00  0.00    +0.235 C 
ATOM     23  O   UNL     1       6.410  -3.602   6.795  0.00  0.00    -0.274 OA
ATOM     24  N   UNL     1       6.988  -4.228   8.844  0.00  0.00    -0.284 N 
ATOM     25  H   UNL     1       6.711  -4.445   9.748  0.00  0.00    +0.155 HD
BRANCH  24  26
ATOM     26  C   UNL     1       8.330  -4.366   8.471  0.00  0.00    +0.045 A 
ATOM     27  C   UNL     1       8.671  -4.481   7.130  0.00  0.00    +0.024 A 
ATOM     28  C   UNL     1       9.996  -4.617   6.765  0.00  0.00    +0.002 A 
ATOM     29  C   UNL     1      10.983  -4.640   7.734  0.00  0.00    +0.001 A 
ATOM     30  C   UNL     1      10.646  -4.526   9.070  0.00  0.00    +0.014 A 
ATOM     31  C   UNL     1       9.323  -4.383   9.441  0.00  0.00    +0.076 A 
BRANCH  31  32
ATOM     32  C   UNL     1       8.958  -4.252  10.897  0.00  0.00    +0.419 C 
ATOM     33  F   UNL     1      10.120  -4.296  11.675  0.00  0.00    -0.166 F 
ATOM     34  F   UNL     1       8.303  -3.033  11.106  0.00  0.00    -0.166 F 
ATOM     35  F   UNL     1       8.111  -5.304  11.262  0.00  0.00    -0.166 F 
ENDBRANCH  31  32
ENDBRANCH  24  26
ENDBRANCH  21  22
ENDBRANCH   3  21
TORSDOF 8
