REMARK  Name = ZINC02645920
REMARK  11 active torsions:
REMARK  status: ('A' for Active; 'I' for Inactive)
REMARK    1  A    between atoms: C_1  and  C_2
REMARK    2  A    between atoms: C_2  and  C_3
REMARK    3  A    between atoms: C_3  and  C_5
REMARK    4  A    between atoms: C_3  and  C_6
REMARK    5  A    between atoms: C_6  and  C_8
REMARK    6  A    between atoms: C_6  and  N_26
REMARK    7  A    between atoms: N_10  and  C_11
REMARK    8  A    between atoms: C_14  and  S_17
REMARK    9  A    between atoms: S_17  and  C_18
REMARK   10  A    between atoms: C_20  and  C_25
REMARK   11  A    between atoms: C_23  and  C_24
REMARK                            x       y       z     vdW  Elec       q    Type
REMARK                         _______ _______ _______ _____ _____    ______ ____
ROOT
ATOM      1  C   UNL     1       1.071   8.420  -0.129  0.00  0.00    +0.238 C 
ATOM      2  O   UNL     1       1.767   7.661  -0.771  0.00  0.00    -0.273 OA
ATOM      3  N   UNL     1       0.004   7.948   0.545  0.00  0.00    -0.284 N 
ATOM      4  H   UNL     1      -0.519   8.545   1.104  0.00  0.00    +0.155 HD
ENDROOT
BRANCH   3   5
ATOM      5  C   UNL     1      -0.351   6.597   0.440  0.00  0.00    +0.034 A 
ATOM      6  C   UNL     1      -1.689   6.227   0.457  0.00  0.00    +0.024 A 
ATOM      7  C   UNL     1      -2.039   4.896   0.352  0.00  0.00    +0.017 A 
ATOM      8  C   UNL     1      -1.052   3.926   0.229  0.00  0.00    +0.013 A 
ATOM      9  C   UNL     1       0.288   4.296   0.218  0.00  0.00    +0.017 A 
ATOM     10  C   UNL     1       0.636   5.628   0.317  0.00  0.00    +0.024 A 
BRANCH   8  11
ATOM     11  S   UNL     1      -1.498   2.227   0.095  0.00  0.00    -0.089 S 
BRANCH  11  12
ATOM     12  C   UNL     1       0.047   1.378   0.106  0.00  0.00    +0.016 A 
ATOM     13  C   UNL     1       0.486   0.747   1.263  0.00  0.00    +0.018 A 
ATOM     14  C   UNL     1       1.700   0.088   1.270  0.00  0.00    -0.049 A 
ATOM     15  C   UNL     1       2.478   0.056   0.127  0.00  0.00    +0.004 A 
ATOM     16  C   UNL     1       2.043   0.683  -1.027  0.00  0.00    +0.005 A 
ATOM     17  C   UNL     1       0.831   1.344  -1.041  0.00  0.00    -0.037 A 
ATOM     18  C   UNL     1       0.359   2.028  -2.298  0.00  0.00    +0.045 C 
ATOM     19  C   UNL     1       2.178  -0.597   2.525  0.00  0.00    +0.044 C 
ENDBRANCH  11  12
ENDBRANCH   8  11
ENDBRANCH   3   5
BRANCH   1  20
ATOM     20  C   UNL     1       1.400   9.890  -0.087  0.00  0.00    +0.163 C 
BRANCH  20  21
ATOM     21  N   UNL     1       2.259  10.231  -1.224  0.00  0.00    -0.288 N 
ATOM     22  H   UNL     1       1.964  10.888  -1.874  0.00  0.00    +0.151 HD
ATOM     23  C   UNL     1       3.458   9.633  -1.367  0.00  0.00    +0.298 C 
ATOM     24  O   UNL     1       3.828   8.810  -0.552  0.00  0.00    -0.253 OA
ATOM     25  N   UNL     1       4.247   9.947  -2.413  0.00  0.00    -0.313 N 
ATOM     26  H   UNL     1       3.952  10.604  -3.063  0.00  0.00    +0.146 HD
ATOM     27  H   UNL     1       5.110   9.517  -2.516  0.00  0.00    +0.146 HD
ENDBRANCH  20  21
BRANCH  20  28
ATOM     28  C   UNL     1       2.131  10.211   1.218  0.00  0.00    +0.015 C 
ATOM     29  C   UNL     1       1.235   9.854   2.406  0.00  0.00    +0.010 C 
BRANCH  28  31
ATOM     30  C   UNL     1       3.304  12.003   2.506  0.00  0.00    +0.004 C 
ATOM     31  C   UNL     1       2.466  11.704   1.262  0.00  0.00    +0.002 C 
ENDBRANCH  28  31
ENDBRANCH  20  28
ENDBRANCH   1  20
TORSDOF 7
