REMARK  Name = ZINC12333467
REMARK  13 active torsions:
REMARK  status: ('A' for Active; 'I' for Inactive)
REMARK    1  A    between atoms: C_1  and  C_2
REMARK    2  A    between atoms: C_2  and  C_3
REMARK    3  A    between atoms: C_3  and  C_4
REMARK    4  A    between atoms: C_3  and  C_6
REMARK    5  A    between atoms: C_4  and  C_5
REMARK    6  A    between atoms: N_8  and  C_9
REMARK    7  A    between atoms: N_8  and  C_18
REMARK    8  A    between atoms: C_9  and  C_10
REMARK    9  A    between atoms: C_13  and  O_16
REMARK   10  A    between atoms: O_16  and  C_17
REMARK   11  A    between atoms: C_18  and  C_19
REMARK   12  A    between atoms: C_27  and  N_28
REMARK   13  A    between atoms: C_31  and  O_34
REMARK                            x       y       z     vdW  Elec       q    Type
REMARK                         _______ _______ _______ _____ _____    ______ ____
ROOT
ATOM      1  C   UNL     1      -1.158   5.382   2.342  0.00  0.00    +0.008 A 
ATOM      2  C   UNL     1      -1.318   5.836   1.067  0.00  0.00    +0.018 A 
ATOM      3  C   UNL     1      -1.950   7.081   0.876  0.00  0.00    -0.001 A 
ATOM      4  C   UNL     1      -2.147   7.608  -0.410  0.00  0.00    +0.013 A 
ATOM      5  C   UNL     1      -2.761   8.814  -0.558  0.00  0.00    +0.039 A 
ATOM      6  C   UNL     1      -3.199   9.534   0.553  0.00  0.00    +0.125 A 
ATOM      7  C   UNL     1      -3.024   9.051   1.817  0.00  0.00    +0.064 A 
ATOM      8  C   UNL     1      -2.394   7.810   2.007  0.00  0.00    +0.050 A 
ATOM      9  C   UNL     1      -1.623   6.147   3.420  0.00  0.00    +0.104 A 
ATOM     10  F   UNL     1      -3.806  10.728   0.376  0.00  0.00    -0.205 F 
ATOM     11  N   UNL     1      -2.233   7.353   3.296  0.00  0.00    -0.343 N 
ATOM     12  H   UNL     1      -2.554   7.889   4.111  0.00  0.00    +0.167 HD
ENDROOT
BRANCH   9  13
ATOM     13  N   UNL     1      -1.458   5.669   4.711  0.00  0.00    -0.316 N 
ATOM     14  C   UNL     1      -0.666   6.603   5.521  0.00  0.00    +0.109 C 
ATOM     15  C   UNL     1      -0.381   5.980   6.889  0.00  0.00    +0.050 C 
ATOM     16  C   UNL     1      -1.707   5.667   7.588  0.00  0.00    +0.118 C 
ATOM     17  C   UNL     1      -2.534   4.731   6.702  0.00  0.00    +0.050 C 
ATOM     18  C   UNL     1      -2.756   5.391   5.339  0.00  0.00    +0.109 C 
BRANCH  16  19
ATOM     19  O   UNL     1      -1.448   5.033   8.842  0.00  0.00    -0.392 OA
ATOM     20  H   UNL     1      -0.927   5.570   9.455  0.00  0.00    +0.210 HD
ENDBRANCH  16  19
ENDBRANCH   9  13
BRANCH   1  21
ATOM     21  C   UNL     1      -0.488   4.055   2.591  0.00  0.00    +0.146 C 
BRANCH  21  24
ATOM     22  C   UNL     1       1.242   3.827   0.891  0.00  0.00    +0.219 C 
ATOM     23  O   UNL     1       1.679   3.320  -0.120  0.00  0.00    -0.275 OA
ATOM     24  N   UNL     1       0.006   3.511   1.324  0.00  0.00    -0.292 N 
BRANCH  22  25
ATOM     25  C   UNL     1       2.083   4.811   1.663  0.00  0.00    +0.075 C 
BRANCH  25  27
ATOM     26  C   UNL     1       2.489   3.207   3.535  0.00  0.00    +0.004 C 
ATOM     27  C   UNL     1       3.155   4.058   2.452  0.00  0.00    +0.009 C 
ENDBRANCH  25  27
BRANCH  25  28
ATOM     28  C   UNL     1       2.753   5.783   0.691  0.00  0.00    +0.009 C 
ATOM     29  C   UNL     1       1.685   6.644   0.012  0.00  0.00    +0.004 C 
ENDBRANCH  25  28
ENDBRANCH  22  25
BRANCH  24  30
ATOM     30  C   UNL     1      -0.845   2.623   0.527  0.00  0.00    +0.143 C 
BRANCH  30  31
ATOM     31  C   UNL     1      -0.608   1.194   0.943  0.00  0.00    -0.030 A 
ATOM     32  C   UNL     1      -1.367   0.634   1.954  0.00  0.00    +0.009 A 
ATOM     33  C   UNL     1      -1.151  -0.675   2.336  0.00  0.00    +0.046 A 
ATOM     34  C   UNL     1      -0.173  -1.429   1.705  0.00  0.00    +0.120 A 
ATOM     35  C   UNL     1       0.588  -0.865   0.691  0.00  0.00    +0.046 A 
ATOM     36  C   UNL     1       0.369   0.445   0.312  0.00  0.00    +0.009 A 
BRANCH  34  37
ATOM     37  O   UNL     1       0.042  -2.718   2.080  0.00  0.00    -0.495 OA
ATOM     38  C   UNL     1       1.066  -3.433   1.387  0.00  0.00    +0.277 C 
ENDBRANCH  34  37
ENDBRANCH  30  31
ENDBRANCH  24  30
ENDBRANCH  21  24
ENDBRANCH   1  21
TORSDOF 10
