REMARK  Name = ZINC63848477
REMARK  7 active torsions:
REMARK  status: ('A' for Active; 'I' for Inactive)
REMARK    1  A    between atoms: C_1  and  C_2
REMARK    2  A    between atoms: C_5  and  C_8
REMARK    3  A    between atoms: C_11  and  C_13
REMARK    4  A    between atoms: C_15  and  C_20
REMARK    5  A    between atoms: C_20  and  O_22
REMARK    6  A    between atoms: O_22  and  C_23
REMARK    7  A    between atoms: C_24  and  C_26
REMARK                            x       y       z     vdW  Elec       q    Type
REMARK                         _______ _______ _______ _____ _____    ______ ____
ROOT
ATOM      1  C   UNL     1       0.202  -7.956  -0.842  0.00  0.00    +0.145 C 
ATOM      2  C   UNL     1       1.566  -8.556  -1.129  0.00  0.00    +0.050 C 
ATOM      3  C   UNL     1       1.875  -8.827  -2.485  0.00  0.00    +0.148 C 
ATOM      4  N   UNL     1       1.005  -8.563  -3.435  0.00  0.00    -0.186 NA
ATOM      5  C   UNL     1      -0.201  -8.038  -3.231  0.00  0.00    +0.155 C 
ATOM      6  S   UNL     1      -1.209  -7.759  -4.586  0.00  0.00    -0.017 S 
ATOM      7  N   UNL     1      -0.665  -7.716  -2.009  0.00  0.00    -0.313 N 
ATOM      8  C   UNL     1       2.447  -8.819  -0.137  0.00  0.00    +0.160 C 
ATOM      9  O   UNL     1       3.701  -9.211  -0.436  0.00  0.00    -0.293 OA
ATOM     10  C   UNL     1       2.026  -8.672   1.303  0.00  0.00    +0.091 C 
ATOM     11  H   UNL     1      -1.550  -7.336  -1.899  0.00  0.00    +0.149 HD
ENDROOT
BRANCH   1  15
ATOM     12  C   UNL     1       0.671  -4.533   1.528  0.00  0.00    +0.020 A 
ATOM     13  C   UNL     1       0.882  -4.353   0.187  0.00  0.00    +0.016 A 
ATOM     14  C   UNL     1       0.746  -5.434  -0.655  0.00  0.00    +0.014 A 
ATOM     15  C   UNL     1       0.408  -6.641  -0.133  0.00  0.00    +0.015 A 
ATOM     16  S   UNL     1       0.277  -6.272   1.608  0.00  0.00    -0.091 S 
BRANCH  12  21
ATOM     17  C   UNL     1       0.998  -0.689   5.798  0.00  0.00    +0.044 C 
ATOM     18  C   UNL     1       0.912  -1.696   4.680  0.00  0.00    -0.050 A 
ATOM     19  C   UNL     1       0.586  -3.010   4.960  0.00  0.00    +0.004 A 
ATOM     20  C   UNL     1       0.505  -3.937   3.941  0.00  0.00    +0.009 A 
ATOM     21  C   UNL     1       0.754  -3.545   2.625  0.00  0.00    -0.011 A 
ATOM     22  C   UNL     1       1.083  -2.217   2.349  0.00  0.00    +0.009 A 
ATOM     23  C   UNL     1       1.155  -1.300   3.377  0.00  0.00    +0.004 A 
ENDBRANCH  12  21
ENDBRANCH   1  15
BRANCH   3  24
ATOM     24  C   UNL     1       3.195  -9.415  -2.836  0.00  0.00    +0.356 C 
ATOM     25  O   UNL     1       4.152  -8.692  -3.017  0.00  0.00    -0.243 OA
BRANCH  24  26
ATOM     26  O   UNL     1       3.327 -10.750  -2.954  0.00  0.00    -0.464 OA
ATOM     27  C   UNL     1       4.623 -11.245  -3.294  0.00  0.00    +0.280 C 
ENDBRANCH  24  26
ENDBRANCH   3  24
TORSDOF 4
