REMARK  Name = ZINC58952449
REMARK  11 active torsions:
REMARK  status: ('A' for Active; 'I' for Inactive)
REMARK    1  A    between atoms: C_1  and  C_2
REMARK    2  A    between atoms: C_3  and  C_14
REMARK    3  A    between atoms: C_4  and  C_13
REMARK    4  A    between atoms: C_9  and  S_11
REMARK    5  A    between atoms: S_11  and  C_12
REMARK    6  A    between atoms: C_14  and  C_15
REMARK    7  A    between atoms: N_17  and  C_18
REMARK    8  A    between atoms: C_18  and  C_19
REMARK    9  A    between atoms: C_24  and  C_25
REMARK   10  A    between atoms: C_25  and  N_26
REMARK   11  A    between atoms: C_30  and  C_33
REMARK                            x       y       z     vdW  Elec       q    Type
REMARK                         _______ _______ _______ _____ _____    ______ ____
ROOT
ATOM      1  C   UNL     1      -2.756   0.513   2.186  0.00  0.00    +0.218 C 
ATOM      2  O   UNL     1      -2.172   0.284   3.223  0.00  0.00    -0.275 OA
ATOM      3  N   UNL     1      -3.953   1.132   2.208  0.00  0.00    -0.311 N 
ATOM      4  H   UNL     1      -4.420   1.315   1.378  0.00  0.00    +0.149 HD
ENDROOT
BRANCH   1   5
ATOM      5  C   UNL     1      -2.144   0.104   0.870  0.00  0.00    +0.134 C 
BRANCH   5   8
ATOM      6  C   UNL     1       0.270   1.704   1.171  0.00  0.00    +0.066 C 
ATOM      7  C   UNL     1       0.345   0.202   1.266  0.00  0.00    +0.047 A 
ATOM      8  C   UNL     1      -0.817  -0.564   1.120  0.00  0.00    +0.004 A 
ATOM      9  C   UNL     1      -0.734  -1.918   1.207  0.00  0.00    +0.049 A 
ATOM     10  N   UNL     1       0.476  -2.491   1.433  0.00  0.00    -0.200 N 
ATOM     11  C   UNL     1       1.592  -1.715   1.571  0.00  0.00    +0.254 A 
ATOM     12  N   UNL     1       1.502  -0.383   1.479  0.00  0.00    -0.216 NA
ATOM     13  N   UNL     1       2.620  -2.530   1.780  0.00  0.00    -0.183 NA
ATOM     14  C   UNL     1       2.198  -3.793   1.781  0.00  0.00    +0.211 A 
ATOM     15  N   UNL     1       0.897  -3.821   1.573  0.00  0.00    -0.137 NA
ATOM     16  C   UNL     1      -1.968  -2.770   1.055  0.00  0.00    +0.066 C 
BRANCH  14  17
ATOM     17  S   UNL     1       3.220  -5.208   2.022  0.00  0.00    -0.088 S 
ATOM     18  C   UNL     1       4.881  -4.515   2.252  0.00  0.00    +0.093 C 
ENDBRANCH  14  17
ENDBRANCH   5   8
ENDBRANCH   1   5
BRANCH   3  19
ATOM     19  C   UNL     1      -4.548   1.530   3.487  0.00  0.00    +0.139 C 
BRANCH  19  20
ATOM     20  C   UNL     1      -5.833   2.275   3.233  0.00  0.00    -0.029 A 
ATOM     21  C   UNL     1      -5.841   3.658   3.231  0.00  0.00    +0.005 A 
ATOM     22  C   UNL     1      -7.020   4.341   2.998  0.00  0.00    +0.000 A 
ATOM     23  C   UNL     1      -8.190   3.642   2.767  0.00  0.00    +0.000 A 
ATOM     24  C   UNL     1      -8.181   2.260   2.768  0.00  0.00    +0.002 A 
ATOM     25  C   UNL     1      -7.002   1.576   2.997  0.00  0.00    -0.059 A 
BRANCH  25  26
ATOM     26  C   UNL     1      -6.991   0.069   2.993  0.00  0.00    -0.043 C 
BRANCH  26  27
ATOM     27  N   UNL     1      -6.533  -0.414   1.683  0.00  0.00    +0.383 N 
ATOM     28  C   UNL     1      -7.507  -0.030   0.654  0.00  0.00    -0.078 C 
ATOM     29  C   UNL     1      -6.996  -0.460  -0.723  0.00  0.00    -0.018 C 
ATOM     30  C   UNL     1      -6.806  -1.979  -0.739  0.00  0.00    -0.001 C 
ATOM     31  C   UNL     1      -5.846  -2.376   0.386  0.00  0.00    -0.031 C 
ATOM     32  C   UNL     1      -6.400  -1.875   1.722  0.00  0.00    -0.075 C 
ATOM     33  C   UNL     1      -5.709  -3.899   0.428  0.00  0.00    +0.005 C 
ATOM     34  H   UNL     1      -5.638  -0.001   1.468  0.00  0.00    -0.081 HD
ENDBRANCH  26  27
ENDBRANCH  25  26
ENDBRANCH  19  20
ENDBRANCH   3  19
TORSDOF 7
