REMARK  Name = ZINC16740180
REMARK  7 active torsions:
REMARK  status: ('A' for Active; 'I' for Inactive)
REMARK    1  A    between atoms: C_1  and  C_2
REMARK    2  A    between atoms: C_7  and  N_8
REMARK    3  A    between atoms: C_9  and  C_11
REMARK    4  A    between atoms: C_12  and  C_24
REMARK    5  A    between atoms: C_17  and  C_22
REMARK    6  A    between atoms: C_17  and  C_23
REMARK    7  A    between atoms: C_19  and  O_21
REMARK                            x       y       z     vdW  Elec       q    Type
REMARK                         _______ _______ _______ _____ _____    ______ ____
ROOT
ATOM      1  C   UNL     1      -0.514  -2.761   0.879  0.00  0.00    +0.193 A 
ATOM      2  C   UNL     1      -1.743  -3.362   0.883  0.00  0.00    +0.006 A 
ATOM      3  C   UNL     1      -1.525  -4.714   0.609  0.00  0.00    +0.025 A 
ATOM      4  C   UNL     1      -0.190  -4.886   0.449  0.00  0.00    +0.112 A 
ATOM      5  O   UNL     1       0.413  -3.705   0.609  0.00  0.00    -0.454 OA
ATOM      6  C   UNL     1       0.455  -6.215   0.136  0.00  0.00    +0.081 C 
ATOM      7  C   UNL     1      -0.630  -7.172  -0.370  0.00  0.00    -0.025 C 
ATOM      8  C   UNL     1      -1.815  -7.163   0.600  0.00  0.00    +0.043 C 
ATOM      9  C   UNL     1      -2.545  -5.818   0.500  0.00  0.00    +0.149 C 
ATOM     10  C   UNL     1      -0.058  -8.588  -0.462  0.00  0.00    +0.011 C 
ATOM     11  C   UNL     1      -1.101  -6.722  -1.754  0.00  0.00    +0.011 C 
ATOM     12  C   UNL     1      -3.071  -2.696   1.133  0.00  0.00    +0.048 C 
ENDROOT
BRANCH   1  14
ATOM     13  N   UNL     1       1.014  -0.873   1.088  0.00  0.00    -0.279 N 
ATOM     14  C   UNL     1      -0.251  -1.339   1.120  0.00  0.00    +0.284 C 
ATOM     15  O   UNL     1      -1.174  -0.580   1.350  0.00  0.00    -0.266 OA
ATOM     16  H   UNL     1       1.741  -1.462   0.834  0.00  0.00    +0.155 HD
BRANCH  13  23
ATOM     17  C   UNL     1       3.562  -0.240   2.181  0.00  0.00    +0.045 C 
ATOM     18  C   UNL     1       2.507   0.813   1.957  0.00  0.00    -0.029 A 
ATOM     19  C   UNL     1       2.765   2.130   2.284  0.00  0.00    +0.006 A 
ATOM     20  C   UNL     1       1.798   3.096   2.078  0.00  0.00    +0.020 A 
ATOM     21  C   UNL     1       0.570   2.748   1.543  0.00  0.00    +0.043 A 
ATOM     22  C   UNL     1       0.308   1.433   1.209  0.00  0.00    +0.043 A 
ATOM     23  C   UNL     1       1.276   0.459   1.420  0.00  0.00    +0.038 A 
ATOM     24 CL   UNL     1      -0.641   3.965   1.286  0.00  0.00    -0.083 Cl
ENDBRANCH  13  23
ENDBRANCH   1  14
BRANCH   9  25
ATOM     25  O   UNL     1      -3.492  -5.705   1.565  0.00  0.00    -0.387 OA
ATOM     26  H   UNL     1      -4.087  -4.947   1.483  0.00  0.00    +0.210 HD
ENDBRANCH   9  25
TORSDOF 3
