REMARK  Name = ZINC22313522
REMARK  10 active torsions:
REMARK  status: ('A' for Active; 'I' for Inactive)
REMARK    1  A    between atoms: C_1  and  C_2
REMARK    2  A    between atoms: N_7  and  C_9
REMARK    3  A    between atoms: C_12  and  C_15
REMARK    4  A    between atoms: C_15  and  N_16
REMARK    5  A    between atoms: C_17  and  C_19
REMARK    6  A    between atoms: C_19  and  N_20
REMARK    7  A    between atoms: N_20  and  C_21
REMARK    8  A    between atoms: N_20  and  S_30
REMARK    9  A    between atoms: C_25  and  N_27
REMARK   10  A    between atoms: S_30  and  C_33
REMARK                            x       y       z     vdW  Elec       q    Type
REMARK                         _______ _______ _______ _____ _____    ______ ____
ROOT
ATOM      1  C   UNL     1       1.756   2.379  -0.054  0.00  0.00    +0.227 C 
ENDROOT
BRANCH   1   3
ATOM      2  N   UNL     1      -0.502   3.316   0.321  0.00  0.00    -0.310 N 
ATOM      3  C   UNL     1       0.297   2.231   0.292  0.00  0.00    +0.232 C 
ATOM      4  O   UNL     1      -0.160   1.134   0.538  0.00  0.00    -0.274 OA
ATOM      5  H   UNL     1      -0.088   4.310   0.098  0.00  0.00    +0.149 HD
BRANCH   2   6
ATOM      6  C   UNL     1      -1.922   3.171   0.651  0.00  0.00    +0.139 C 
BRANCH   6  10
ATOM      7  C   UNL     1      -3.807   7.006   0.551  0.00  0.00    +0.030 A 
ATOM      8  C   UNL     1      -3.755   6.225  -0.597  0.00  0.00    +0.023 A 
ATOM      9  C   UNL     1      -3.145   4.987  -0.561  0.00  0.00    +0.007 A 
ATOM     10  C   UNL     1      -2.587   4.523   0.616  0.00  0.00    -0.030 A 
ATOM     11  C   UNL     1      -2.642   5.295   1.762  0.00  0.00    +0.007 A 
ATOM     12  C   UNL     1      -3.245   6.537   1.732  0.00  0.00    +0.023 A 
BRANCH   7  18
ATOM     13  C   UNL     1      -4.864  11.007   3.097  0.00  0.00    +0.009 C 
ATOM     14  C   UNL     1      -4.910  10.335   1.724  0.00  0.00    +0.003 C 
ATOM     15  C   UNL     1      -6.359  10.279   1.231  0.00  0.00    +0.006 C 
ATOM     16  C   UNL     1      -6.404   9.552  -0.116  0.00  0.00    +0.019 C 
ATOM     17  C   UNL     1      -5.809   8.152   0.046  0.00  0.00    +0.105 C 
ATOM     18  N   UNL     1      -4.423   8.259   0.518  0.00  0.00    -0.330 N 
ATOM     19  C   UNL     1      -4.359   8.911   1.832  0.00  0.00    +0.108 C 
ENDBRANCH   7  18
ENDBRANCH   6  10
ENDBRANCH   2   6
ENDBRANCH   1   3
BRANCH   1  20
ATOM     20  N   UNL     1       2.401   1.063  -0.025  0.00  0.00    -0.194 N 
BRANCH  20  21
ATOM     21  C   UNL     1       2.877   0.546   1.182  0.00  0.00    +0.054 A 
ATOM     22  C   UNL     1       4.215   0.196   1.309  0.00  0.00    +0.025 A 
ATOM     23  C   UNL     1       4.684  -0.311   2.505  0.00  0.00    +0.004 A 
ATOM     24  C   UNL     1       3.820  -0.480   3.572  0.00  0.00    +0.033 A 
ATOM     25  C   UNL     1       2.486  -0.138   3.447  0.00  0.00    +0.128 A 
ATOM     26  C   UNL     1       2.012   0.375   2.255  0.00  0.00    +0.057 A 
BRANCH  25  27
ATOM     27  N   UNL     1       1.565  -0.321   4.591  0.00  0.00    +0.056 N 
ATOM     28  O   UNL     1       0.391  -0.019   4.482  0.00  0.00    -0.126 OA
ATOM     29  O   UNL     1       1.983  -0.773   5.643  0.00  0.00    -0.126 OA
ENDBRANCH  25  27
ENDBRANCH  20  21
BRANCH  20  30
ATOM     30  S   UNL     1       2.565   0.191  -1.422  0.00  0.00    +0.075 S 
ATOM     31  O   UNL     1       2.816  -1.153  -1.035  0.00  0.00    -0.150 OA
ATOM     32  O   UNL     1       1.473   0.551  -2.257  0.00  0.00    -0.150 OA
BRANCH  30  33
ATOM     33  C   UNL     1       4.024   0.764  -2.226  0.00  0.00    +0.109 A 
ATOM     34  C   UNL     1       3.972   1.879  -3.041  0.00  0.00    +0.029 A 
ATOM     35  C   UNL     1       5.118   2.332  -3.667  0.00  0.00    +0.002 A 
ATOM     36  C   UNL     1       6.314   1.663  -3.488  0.00  0.00    +0.000 A 
ATOM     37  C   UNL     1       6.365   0.544  -2.678  0.00  0.00    +0.002 A 
ATOM     38  C   UNL     1       5.220   0.095  -2.047  0.00  0.00    +0.029 A 
ENDBRANCH  30  33
ENDBRANCH  20  30
ENDBRANCH   1  20
TORSDOF 9
