REMARK  Name = ZINC50306834
REMARK  7 active torsions:
REMARK  status: ('A' for Active; 'I' for Inactive)
REMARK    1  A    between atoms: C_1  and  C_2
REMARK    2  A    between atoms: C_2  and  C_3
REMARK    3  A    between atoms: C_4  and  N_20
REMARK    4  A    between atoms: C_5  and  C_9
REMARK    5  A    between atoms: N_11  and  C_12
REMARK    6  A    between atoms: N_11  and  C_14
REMARK    7  A    between atoms: C_12  and  C_13
REMARK                            x       y       z     vdW  Elec       q    Type
REMARK                         _______ _______ _______ _____ _____    ______ ____
ROOT
ATOM      1  C   UNL     1       0.836   0.344  -1.633  0.00  0.00    +0.057 A 
ATOM      2  C   UNL     1       2.151   0.008  -1.708  0.00  0.00    +0.078 A 
ATOM      3  C   UNL     1       2.293  -0.688  -2.936  0.00  0.00    +0.168 A 
ATOM      4  N   UNL     1       1.100  -0.725  -3.500  0.00  0.00    -0.167 NA
ATOM      5  N   UNL     1       0.237  -0.134  -2.755  0.00  0.00    -0.279 N 
ATOM      6  H   UNL     1      -0.705  -0.041  -2.964  0.00  0.00    +0.189 HD
ENDROOT
BRANCH   3   7
ATOM      7  C   UNL     1       3.538  -1.260  -3.481  0.00  0.00    +0.269 C 
ATOM      8  O   UNL     1       4.595  -1.070  -2.910  0.00  0.00    -0.268 OA
ATOM      9  N   UNL     1       3.504  -1.995  -4.610  0.00  0.00    -0.293 N 
BRANCH   9  10
ATOM     10  C   UNL     1       4.724  -2.643  -5.099  0.00  0.00    +0.076 C 
ATOM     11  C   UNL     1       5.244  -3.617  -4.040  0.00  0.00    +0.022 C 
ATOM     12  C   UNL     1       6.518  -4.293  -4.551  0.00  0.00    +0.002 C 
ATOM     13  C   UNL     1       7.582  -3.231  -4.832  0.00  0.00    +0.000 C 
ATOM     14  C   UNL     1       7.062  -2.257  -5.891  0.00  0.00    +0.002 C 
ATOM     15  C   UNL     1       5.788  -1.580  -5.381  0.00  0.00    +0.022 C 
ENDBRANCH   9  10
BRANCH   9  16
ATOM     16  C   UNL     1       2.248  -2.146  -5.349  0.00  0.00    +0.105 C 
ATOM     17  C   UNL     1       2.049  -0.939  -6.268  0.00  0.00    +0.024 C 
ENDBRANCH   9  16
ENDBRANCH   3   7
BRANCH   2  18
ATOM     18  N   UNL     1       3.155   0.290  -0.770  0.00  0.00    -0.355 N 
ATOM     19  H   UNL     1       2.939   0.776   0.040  0.00  0.00    +0.142 HD
ATOM     20  H   UNL     1       4.066  -0.003  -0.932  0.00  0.00    +0.142 HD
ENDBRANCH   2  18
BRANCH   1  22
ATOM     21  C   UNL     1       0.323   2.603  -0.747  0.00  0.00    +0.010 C 
ATOM     22  C   UNL     1       0.167   1.099  -0.513  0.00  0.00    +0.053 C 
ENDBRANCH   1  22
TORSDOF 5
