REMARK  Name = ZINC31044069
REMARK  11 active torsions:
REMARK  status: ('A' for Active; 'I' for Inactive)
REMARK    1  A    between atoms: C_1  and  C_2
REMARK    2  A    between atoms: C_5  and  C_9
REMARK    3  A    between atoms: C_6  and  C_8
REMARK    4  A    between atoms: C_9  and  C_11
REMARK    5  A    between atoms: C_9  and  N_14
REMARK    6  A    between atoms: C_11  and  C_12
REMARK    7  A    between atoms: C_11  and  C_13
REMARK    8  A    between atoms: C_15  and  C_17
REMARK    9  A    between atoms: N_22  and  C_24
REMARK   10  A    between atoms: C_24  and  C_25
REMARK   11  A    between atoms: C_27  and  C_30
REMARK                            x       y       z     vdW  Elec       q    Type
REMARK                         _______ _______ _______ _____ _____    ______ ____
ROOT
ATOM      1  C   UNL     1      -1.706   5.480   7.489  0.00  0.00    +0.058 C 
ATOM      2  C   UNL     1      -0.598   6.238   6.753  0.00  0.00    +0.009 C 
ATOM      3  C   UNL     1       0.185   7.085   7.760  0.00  0.00    -0.018 C 
ATOM      4  C   UNL     1      -0.775   8.040   8.472  0.00  0.00    -0.078 C 
ATOM      5  N   UNL     1      -1.816   7.267   9.161  0.00  0.00    +0.386 N 
ATOM      6  C   UNL     1      -2.612   6.482   8.209  0.00  0.00    -0.065 C 
ATOM      7  H   UNL     1      -1.315   6.562   9.841  0.00  0.00    -0.081 HD
ENDROOT
BRANCH   1   9
ATOM      8  N   UNL     1      -1.926   3.745   5.740  0.00  0.00    -0.308 N 
ATOM      9  C   UNL     1      -2.519   4.689   6.497  0.00  0.00    +0.215 C 
ATOM     10  O   UNL     1      -3.707   4.903   6.378  0.00  0.00    -0.276 OA
ATOM     11  H   UNL     1      -0.849   3.551   5.847  0.00  0.00    +0.149 HD
BRANCH   8  12
ATOM     12  C   UNL     1      -2.717   2.976   4.775  0.00  0.00    +0.106 C 
BRANCH  12  17
ATOM     13  C   UNL     1       0.734   1.041   0.563  0.00  0.00    +0.044 C 
ATOM     14  C   UNL     1      -0.166   1.545   1.662  0.00  0.00    -0.050 A 
ATOM     15  C   UNL     1      -0.576   0.690   2.667  0.00  0.00    +0.004 A 
ATOM     16  C   UNL     1      -1.401   1.153   3.675  0.00  0.00    +0.006 A 
ATOM     17  C   UNL     1      -1.816   2.472   3.677  0.00  0.00    -0.024 A 
ATOM     18  C   UNL     1      -1.405   3.327   2.672  0.00  0.00    -0.045 A 
ATOM     19  C   UNL     1      -0.576   2.865   1.667  0.00  0.00    +0.007 A 
ATOM     20  C   UNL     1      -1.857   4.765   2.675  0.00  0.00    +0.044 C 
ENDBRANCH  12  17
BRANCH  12  21
ATOM     21  C   UNL     1      -3.372   1.789   5.483  0.00  0.00    +0.008 C 
ATOM     22  C   UNL     1      -4.179   2.292   6.682  0.00  0.00    +0.009 C 
ATOM     23  C   UNL     1      -4.304   1.065   4.509  0.00  0.00    +0.009 C 
ENDBRANCH  12  21
ENDBRANCH   8  12
ENDBRANCH   1   9
BRANCH   5  24
ATOM     24  C   UNL     1      -2.675   8.143   9.969  0.00  0.00    +0.022 C 
BRANCH  24  25
ATOM     25  C   UNL     1      -3.453   9.061   9.060  0.00  0.00    +0.211 A 
ATOM     26  N   UNL     1      -4.627   8.821   8.533  0.00  0.00    -0.193 NA
ATOM     27  C   UNL     1      -4.927   9.918   7.800  0.00  0.00    +0.202 A 
ATOM     28  N   UNL     1      -3.922  10.747   7.918  0.00  0.00    -0.056 NA
ATOM     29  O   UNL     1      -3.070  10.269   8.637  0.00  0.00    -0.340 OA
BRANCH  27  30
ATOM     30  C   UNL     1      -6.162  10.137   7.007  0.00  0.00    +0.023 A 
ATOM     31  C   UNL     1      -7.152   9.157   6.970  0.00  0.00    +0.013 A 
ATOM     32  C   UNL     1      -8.301   9.368   6.236  0.00  0.00    +0.016 A 
ATOM     33  C   UNL     1      -8.466  10.546   5.528  0.00  0.00    +0.018 A 
ATOM     34  C   UNL     1      -7.483  11.520   5.557  0.00  0.00    +0.016 A 
ATOM     35  C   UNL     1      -6.333  11.321   6.293  0.00  0.00    +0.013 A 
ATOM     36 BR   UNL     1     -10.040  10.826   4.518  0.00  0.00    -0.050 Br
ENDBRANCH  27  30
ENDBRANCH  24  25
ENDBRANCH   5  24
TORSDOF 7
