REMARK  Name = ZINC48856602
REMARK  8 active torsions:
REMARK  status: ('A' for Active; 'I' for Inactive)
REMARK    1  A    between atoms: C_1  and  C_2
REMARK    2  A    between atoms: C_2  and  C_3
REMARK    3  A    between atoms: C_3  and  C_4
REMARK    4  A    between atoms: C_3  and  C_6
REMARK    5  A    between atoms: C_3  and  N_10
REMARK    6  A    between atoms: C_4  and  C_5
REMARK    7  A    between atoms: N_7  and  O_8
REMARK    8  A    between atoms: C_11  and  C_13
REMARK                            x       y       z     vdW  Elec       q    Type
REMARK                         _______ _______ _______ _____ _____    ______ ____
ROOT
ATOM      1  N   UNL     1       2.194  -0.278  -1.195  0.00  0.00    -0.299 N 
ATOM      2  C   UNL     1       2.964  -0.630  -0.146  0.00  0.00    +0.251 C 
ATOM      3  O   UNL     1       2.471  -1.215   0.800  0.00  0.00    -0.270 OA
ATOM      4  H   UNL     1       2.586   0.188  -1.950  0.00  0.00    +0.150 HD
ENDROOT
BRANCH   2   5
ATOM      5  C   UNL     1       4.398  -0.307  -0.146  0.00  0.00    +0.075 A 
ATOM      6  C   UNL     1       5.327  -0.582   0.807  0.00  0.00    +0.029 A 
ATOM      7  C   UNL     1       6.664  -0.186   0.619  0.00  0.00    -0.010 A 
ATOM      8  C   UNL     1       7.768  -0.378   1.489  0.00  0.00    +0.009 A 
ATOM      9  C   UNL     1       9.004   0.071   1.152  0.00  0.00    +0.001 A 
ATOM     10  C   UNL     1       9.237   0.733  -0.048  0.00  0.00    +0.001 A 
ATOM     11  C   UNL     1       8.191   0.941  -0.923  0.00  0.00    +0.015 A 
ATOM     12  C   UNL     1       6.930   0.490  -0.595  0.00  0.00    +0.020 A 
ATOM     13  S   UNL     1       5.348   0.534  -1.399  0.00  0.00    -0.084 S 
ENDBRANCH   2   5
BRANCH   1  14
ATOM     14  C   UNL     1       0.765  -0.600  -1.195  0.00  0.00    +0.093 C 
BRANCH  14  15
ATOM     15  C   UNL     1       0.138  -0.101  -2.472  0.00  0.00    +0.155 C 
ATOM     16  N   UNL     1      -0.533  -0.912  -3.222  0.00  0.00    -0.075 NA
ATOM     17  N   UNL     1       0.281   1.218  -2.840  0.00  0.00    -0.342 N 
ATOM     18  H   UNL     1       0.715   1.844  -2.240  0.00  0.00    +0.144 HD
ATOM     19  H   UNL     1      -0.054   1.521  -3.698  0.00  0.00    +0.144 HD
BRANCH  16  20
ATOM     20  O   UNL     1      -1.122  -0.444  -4.421  0.00  0.00    -0.408 OA
ATOM     21  H   UNL     1      -1.603  -1.122  -4.914  0.00  0.00    +0.328 HD
ENDBRANCH  16  20
ENDBRANCH  14  15
BRANCH  14  23
ATOM     22  C   UNL     1      -1.421  -0.154  -0.071  0.00  0.00    +0.006 C 
ATOM     23  C   UNL     1       0.090   0.074   0.001  0.00  0.00    +0.030 C 
ENDBRANCH  14  23
BRANCH  14  24
ATOM     24  C   UNL     1       0.583  -2.116  -1.096  0.00  0.00    +0.030 C 
ATOM     25  C   UNL     1       1.362  -2.798  -2.223  0.00  0.00    +0.006 C 
ENDBRANCH  14  24
ENDBRANCH   1  14
TORSDOF 6
