REMARK  Name = ZINC57898474
REMARK  12 active torsions:
REMARK  status: ('A' for Active; 'I' for Inactive)
REMARK    1  A    between atoms: C_1  and  C_2
REMARK    2  A    between atoms: C_2  and  C_3
REMARK    3  A    between atoms: C_3  and  C_30
REMARK    4  A    between atoms: N_6  and  C_10
REMARK    5  A    between atoms: C_10  and  C_11
REMARK    6  A    between atoms: N_13  and  C_14
REMARK    7  A    between atoms: N_18  and  C_19
REMARK    8  A    between atoms: C_19  and  C_20
REMARK    9  A    between atoms: C_23  and  C_26
REMARK   10  A    between atoms: C_26  and  C_27
REMARK   11  A    between atoms: C_26  and  C_28
REMARK   12  A    between atoms: C_26  and  C_29
REMARK                            x       y       z     vdW  Elec       q    Type
REMARK                         _______ _______ _______ _____ _____    ______ ____
ROOT
ATOM      1  C   UNL     1      -3.662  -4.181  -1.202  0.00  0.00    +0.236 C 
ATOM      2  O   UNL     1      -4.323  -3.483  -0.462  0.00  0.00    -0.274 OA
ATOM      3  N   UNL     1      -4.097  -5.412  -1.534  0.00  0.00    -0.269 N 
ATOM      4  H   UNL     1      -3.568  -5.970  -2.126  0.00  0.00    +0.156 HD
ENDROOT
BRANCH   3   5
ATOM      5  C   UNL     1      -5.307  -5.885  -1.027  0.00  0.00    +0.124 A 
ATOM      6  C   UNL     1      -6.149  -5.212  -0.196  0.00  0.00    +0.065 A 
ATOM      7  C   UNL     1      -7.242  -6.040   0.070  0.00  0.00    +0.136 A 
ATOM      8  N   UNL     1      -7.070  -7.167  -0.573  0.00  0.00    -0.178 NA
ATOM      9  N   UNL     1      -5.861  -7.094  -1.276  0.00  0.00    -0.246 N 
BRANCH   9  10
ATOM     10  C   UNL     1      -5.294  -8.142  -2.128  0.00  0.00    +0.180 C 
BRANCH  10  11
ATOM     11  C   UNL     1      -4.418  -9.045  -1.298  0.00  0.00    -0.026 A 
ATOM     12  C   UNL     1      -3.075  -8.756  -1.147  0.00  0.00    +0.006 A 
ATOM     13  C   UNL     1      -2.271  -9.585  -0.386  0.00  0.00    +0.004 A 
ATOM     14  C   UNL     1      -2.811 -10.701   0.225  0.00  0.00    -0.042 A 
ATOM     15  C   UNL     1      -4.154 -10.989   0.074  0.00  0.00    +0.004 A 
ATOM     16  C   UNL     1      -4.959 -10.159  -0.683  0.00  0.00    +0.006 A 
BRANCH  14  17
ATOM     17  C   UNL     1      -1.934 -11.605   1.053  0.00  0.00    -0.013 C 
ATOM     18  C   UNL     1      -1.330 -10.807   2.210  0.00  0.00    +0.015 C 
ATOM     19  C   UNL     1      -2.773 -12.757   1.611  0.00  0.00    +0.015 C 
ATOM     20  C   UNL     1      -0.811 -12.167   0.180  0.00  0.00    +0.015 C 
ENDBRANCH  14  17
ENDBRANCH  10  11
ENDBRANCH   9  10
ENDBRANCH   3   5
BRANCH   1  21
ATOM     21  C   UNL     1      -2.355  -3.670  -1.750  0.00  0.00    +0.214 C 
BRANCH  21  25
ATOM     22  C   UNL     1      -1.433  -0.534   0.013  0.00  0.00    +0.110 C 
ATOM     23  C   UNL     1      -1.445  -2.045  -0.103  0.00  0.00    +0.247 C 
ATOM     24  O   UNL     1      -0.960  -2.843   0.670  0.00  0.00    -0.273 OA
ATOM     25  N   UNL     1      -2.108  -2.317  -1.245  0.00  0.00    -0.215 N 
ATOM     26  C   UNL     1      -2.513  -1.200  -1.859  0.00  0.00    +0.310 C 
ATOM     27  O   UNL     1      -3.131  -1.190  -2.906  0.00  0.00    -0.252 OA
ATOM     28  N   UNL     1      -2.159  -0.088  -1.189  0.00  0.00    -0.285 N 
ATOM     29  C   UNL     1      -2.162  -0.082   1.280  0.00  0.00    +0.041 C 
ATOM     30  H   UNL     1      -2.346   0.828  -1.447  0.00  0.00    +0.151 HD
BRANCH  22  32
ATOM     31  C   UNL     1      -0.019   1.526   0.010  0.00  0.00    +0.006 C 
ATOM     32  C   UNL     1       0.002  -0.004   0.002  0.00  0.00    +0.031 C 
ENDBRANCH  22  32
ENDBRANCH  21  25
ENDBRANCH   1  21
TORSDOF 7
