REMARK  Name = ZINC01901473
REMARK  11 active torsions:
REMARK  status: ('A' for Active; 'I' for Inactive)
REMARK    1  A    between atoms: C_1  and  C_2
REMARK    2  A    between atoms: C_9  and  N_35
REMARK    3  A    between atoms: C_10  and  C_13
REMARK    4  A    between atoms: N_17  and  C_21
REMARK    5  A    between atoms: C_22  and  C_34
REMARK    6  A    between atoms: N_23  and  C_33
REMARK    7  A    between atoms: N_24  and  C_27
REMARK    8  A    between atoms: N_35  and  C_36
REMARK    9  A    between atoms: C_36  and  C_37
REMARK   10  A    between atoms: C_37  and  C_38
REMARK   11  A    between atoms: C_37  and  C_39
REMARK                            x       y       z     vdW  Elec       q    Type
REMARK                         _______ _______ _______ _____ _____    ______ ____
ROOT
ATOM      1  C   UNL     1      -1.133   4.640  -1.192  0.00  0.00    +0.037 C 
ATOM      2  C   UNL     1      -0.319   3.596  -0.862  0.00  0.00    +0.078 C 
ATOM      3  C   UNL     1      -0.637   2.220  -0.682  0.00  0.00    +0.263 C 
ATOM      4  O   UNL     1      -1.779   1.817  -0.823  0.00  0.00    -0.269 OA
ATOM      5  N   UNL     1       0.339   1.392  -0.354  0.00  0.00    -0.217 N 
ATOM      6  C   UNL     1       1.606   1.837  -0.203  0.00  0.00    +0.125 C 
ATOM      7  S   UNL     1       3.014   0.953   0.208  0.00  0.00    -0.027 S 
ATOM      8  S   UNL     1       1.440   3.584  -0.541  0.00  0.00    -0.061 S 
ENDROOT
BRANCH   1  18
ATOM      9  C   UNL     1      -7.275   4.041  -2.983  0.00  0.00    +0.047 C 
ATOM     10  C   UNL     1      -6.607   3.880  -1.642  0.00  0.00    -0.007 A 
ATOM     11  C   UNL     1      -7.345   3.550  -0.543  0.00  0.00    +0.008 A 
ATOM     12  C   UNL     1      -6.710   3.405   0.698  0.00  0.00    +0.019 A 
ATOM     13  C   UNL     1      -5.375   3.592   0.802  0.00  0.00    +0.096 A 
ATOM     14  N   UNL     1      -4.629   3.922  -0.290  0.00  0.00    -0.267 N 
ATOM     15  C   UNL     1      -5.220   4.070  -1.514  0.00  0.00    +0.145 A 
ATOM     16  N   UNL     1      -4.507   4.394  -2.594  0.00  0.00    -0.214 NA
ATOM     17  C   UNL     1      -3.198   4.588  -2.530  0.00  0.00    +0.134 A 
ATOM     18  C   UNL     1      -2.531   4.443  -1.291  0.00  0.00    +0.081 A 
ATOM     19  C   UNL     1      -3.297   4.101  -0.151  0.00  0.00    +0.267 A 
ATOM     20  O   UNL     1      -2.764   3.970   0.937  0.00  0.00    -0.267 OA
BRANCH  17  21
ATOM     21  N   UNL     1      -2.491   4.926  -3.663  0.00  0.00    -0.328 N 
ATOM     22  H   UNL     1      -1.532   5.065  -3.613  0.00  0.00    +0.147 HD
BRANCH  21  23
ATOM     23  C   UNL     1      -3.187   5.075  -4.944  0.00  0.00    +0.106 C 
BRANCH  23  24
ATOM     24  C   UNL     1      -2.179   5.451  -6.031  0.00  0.00    -0.000 C 
ATOM     25  C   UNL     1      -1.197   4.296  -6.237  0.00  0.00    +0.009 C 
ATOM     26  C   UNL     1      -2.921   5.729  -7.340  0.00  0.00    +0.009 C 
ENDBRANCH  23  24
ENDBRANCH  21  23
ENDBRANCH  17  21
ENDBRANCH   1  18
BRANCH   5  27
ATOM     27  C   UNL     1       0.056   0.024  -0.166  0.00  0.00    +0.129 A 
ATOM     28  C   UNL     1       0.169  -0.658   0.996  0.00  0.00    +0.060 A 
ATOM     29  N   UNL     1      -0.199  -1.958   0.771  0.00  0.00    -0.282 N 
ATOM     30  N   UNL     1      -0.543  -2.088  -0.581  0.00  0.00    -0.216 N 
ATOM     31  C   UNL     1      -0.391  -0.881  -1.163  0.00  0.00    +0.294 A 
ATOM     32  O   UNL     1      -0.599  -0.615  -2.333  0.00  0.00    -0.264 OA
ATOM     33  C   UNL     1      -0.222  -3.030   1.770  0.00  0.00    +0.171 C 
ATOM     34  C   UNL     1       0.620  -0.084   2.315  0.00  0.00    +0.067 C 
BRANCH  30  35
ATOM     35  C   UNL     1      -0.970  -3.260  -1.214  0.00  0.00    +0.067 A 
ATOM     36  C   UNL     1      -2.095  -3.241  -2.028  0.00  0.00    +0.028 A 
ATOM     37  C   UNL     1      -2.510  -4.399  -2.656  0.00  0.00    +0.002 A 
ATOM     38  C   UNL     1      -1.813  -5.579  -2.466  0.00  0.00    +0.000 A 
ATOM     39  C   UNL     1      -0.695  -5.601  -1.652  0.00  0.00    +0.002 A 
ATOM     40  C   UNL     1      -0.272  -4.446  -1.026  0.00  0.00    +0.028 A 
ENDBRANCH  30  35
ENDBRANCH   5  27
TORSDOF 6
