REMARK  Name = ZINC41381113
REMARK  5 active torsions:
REMARK  status: ('A' for Active; 'I' for Inactive)
REMARK    1  A    between atoms: C_1  and  C_2
REMARK    2  A    between atoms: C_2  and  C_3
REMARK    3  A    between atoms: C_6  and  C_9
REMARK    4  A    between atoms: N_12  and  S_16
REMARK    5  A    between atoms: S_16  and  C_19
REMARK                            x       y       z     vdW  Elec       q    Type
REMARK                         _______ _______ _______ _____ _____    ______ ____
ROOT
ATOM      1  C   UNL     1       2.797  -1.919   4.683  0.00  0.00    +0.164 C 
ATOM      2  C   UNL     1       2.713  -3.449   4.739  0.00  0.00    +0.146 C 
ATOM      3  N   UNL     1       3.265  -3.897   6.027  0.00  0.00    -0.172 NA
ATOM      4  C   UNL     1       2.763  -3.259   7.255  0.00  0.00    +0.137 C 
ATOM      5  C   UNL     1       2.845  -1.738   7.076  0.00  0.00    +0.178 C 
ATOM      6  O   UNL     1       2.194  -1.370   5.858  0.00  0.00    -0.369 OA
ENDROOT
BRANCH   1  10
ATOM      7  C   UNL     1       0.731  -0.503   1.223  0.00  0.00    -0.048 A 
ATOM      8  C   UNL     1       2.097  -0.710   1.176  0.00  0.00    +0.004 A 
ATOM      9  C   UNL     1       2.766  -1.167   2.296  0.00  0.00    +0.006 A 
ATOM     10  C   UNL     1       2.068  -1.419   3.463  0.00  0.00    -0.018 A 
ATOM     11  C   UNL     1       0.702  -1.212   3.510  0.00  0.00    +0.006 A 
ATOM     12  C   UNL     1       0.034  -0.750   2.391  0.00  0.00    +0.004 A 
BRANCH   7  14
ATOM     13  C   UNL     1      -0.019   1.526   0.010  0.00  0.00    +0.009 C 
ATOM     14  C   UNL     1       0.002  -0.004   0.002  0.00  0.00    +0.032 C 
ENDBRANCH   7  14
ENDBRANCH   1  10
BRANCH   3  15
ATOM     15  S   UNL     1       4.415  -5.086   6.094  0.00  0.00    +0.061 S 
ATOM     16  O   UNL     1       4.327  -5.665   7.389  0.00  0.00    -0.153 OA
ATOM     17  O   UNL     1       4.277  -5.853   4.906  0.00  0.00    -0.153 OA
BRANCH  15  18
ATOM     18  C   UNL     1       5.987  -4.295   6.003  0.00  0.00    +0.109 A 
ATOM     19  C   UNL     1       6.576  -4.071   4.772  0.00  0.00    +0.032 A 
ATOM     20  C   UNL     1       7.810  -3.452   4.697  0.00  0.00    +0.051 A 
ATOM     21  C   UNL     1       8.459  -3.053   5.855  0.00  0.00    +0.162 A 
ATOM     22  C   UNL     1       7.866  -3.276   7.092  0.00  0.00    +0.164 A 
ATOM     23  C   UNL     1       6.627  -3.895   7.161  0.00  0.00    +0.078 A 
ATOM     24  O   UNL     1       8.483  -2.886   8.241  0.00  0.00    -0.485 OA
ATOM     25  C   UNL     1       9.883  -2.603   8.155  0.00  0.00    +0.270 C 
ATOM     26  C   UNL     1      10.122  -1.726   6.918  0.00  0.00    +0.270 C 
ATOM     27  O   UNL     1       9.675  -2.448   5.765  0.00  0.00    -0.485 OA
ENDBRANCH  15  18
ENDBRANCH   3  15
TORSDOF 4
