REMARK  Name = ZINC27906432
REMARK  5 active torsions:
REMARK  status: ('A' for Active; 'I' for Inactive)
REMARK    1  A    between atoms: C_1  and  N_2
REMARK    2  A    between atoms: N_2  and  C_3
REMARK    3  A    between atoms: N_2  and  C_21
REMARK    4  A    between atoms: C_3  and  C_4
REMARK    5  A    between atoms: N_9  and  C_10
REMARK                            x       y       z     vdW  Elec       q    Type
REMARK                         _______ _______ _______ _____ _____    ______ ____
ROOT
ATOM      1  C   UNL     1       6.284   5.654   3.416  0.00  0.00    +0.204 C 
ATOM      2  O   UNL     1       7.018   5.455   2.471  0.00  0.00    -0.277 OA
ATOM      3  N   UNL     1       5.025   5.173   3.403  0.00  0.00    -0.241 N 
ATOM      4  C   UNL     1       4.582   4.471   2.341  0.00  0.00    +0.310 C 
ATOM      5  O   UNL     1       5.318   4.272   1.394  0.00  0.00    -0.252 OA
ATOM      6  N   UNL     1       3.323   3.990   2.328  0.00  0.00    -0.269 N 
ATOM      7  H   UNL     1       4.359   5.352   4.260  0.00  0.00    +0.159 HD
ATOM      8  H   UNL     1       2.635   4.228   3.153  0.00  0.00    +0.156 HD
ENDROOT
BRANCH   6   9
ATOM      9  C   UNL     1       2.890   3.188   1.264  0.00  0.00    +0.038 A 
ATOM     10  C   UNL     1       2.013   2.138   1.500  0.00  0.00    +0.027 A 
ATOM     11  C   UNL     1       1.583   1.344   0.452  0.00  0.00    +0.051 A 
ATOM     12  C   UNL     1       2.030   1.599  -0.833  0.00  0.00    +0.162 A 
ATOM     13  C   UNL     1       2.908   2.647  -1.071  0.00  0.00    +0.164 A 
ATOM     14  C   UNL     1       3.340   3.443  -0.025  0.00  0.00    +0.072 A 
ATOM     15  O   UNL     1       3.343   2.886  -2.343  0.00  0.00    -0.488 OA
ATOM     16  C   UNL     1       2.358   3.365  -3.260  0.00  0.00    +0.232 C 
ATOM     17  C   UNL     1       1.577   2.210  -3.865  0.00  0.00    +0.082 C 
ATOM     18  C   UNL     1       0.759   1.458  -2.827  0.00  0.00    +0.232 C 
ATOM     19  O   UNL     1       1.611   0.820  -1.874  0.00  0.00    -0.488 OA
ENDBRANCH   6   9
BRANCH   1  20
ATOM     20  C   UNL     1       6.779   6.438   4.604  0.00  0.00    +0.019 C 
BRANCH  20  22
ATOM     21  C   UNL     1       8.241   7.973   3.433  0.00  0.00    -0.095 C 
ATOM     22  N   UNL     1       8.171   6.847   4.374  0.00  0.00    +0.388 N 
ATOM     23  H   UNL     1       8.704   5.997   3.923  0.00  0.00    -0.081 HD
BRANCH  22  24
ATOM     24  C   UNL     1       8.838   7.177   5.641  0.00  0.00    -0.037 C 
ATOM     25  C   UNL     1       8.000   8.204   6.399  0.00  0.00    -0.010 C 
ATOM     26  C   UNL     1       8.593   8.372   7.803  0.00  0.00    +0.003 C 
ATOM     27  C   UNL     1       8.325   7.093   8.594  0.00  0.00    +0.035 C 
ATOM     28  C   UNL     1       8.772   5.885   7.814  0.00  0.00    -0.046 A 
ATOM     29  C   UNL     1       9.004   5.922   6.457  0.00  0.00    -0.058 A 
ATOM     30  C   UNL     1       9.406   4.769   5.796  0.00  0.00    +0.002 A 
ATOM     31  C   UNL     1       9.579   3.588   6.488  0.00  0.00    +0.000 A 
ATOM     32  C   UNL     1       9.351   3.552   7.851  0.00  0.00    +0.000 A 
ATOM     33  C   UNL     1       8.950   4.696   8.509  0.00  0.00    +0.004 A 
ENDBRANCH  22  24
ENDBRANCH  20  22
ENDBRANCH   1  20
TORSDOF 4
