REMARK  Name = ZINC38629058
REMARK  8 active torsions:
REMARK  status: ('A' for Active; 'I' for Inactive)
REMARK    1  A    between atoms: C_1  and  N_2
REMARK    2  A    between atoms: N_2  and  C_3
REMARK    3  A    between atoms: N_2  and  C_4
REMARK    4  A    between atoms: C_4  and  C_6
REMARK    5  A    between atoms: C_4  and  C_22
REMARK    6  A    between atoms: C_6  and  N_7
REMARK    7  A    between atoms: C_8  and  C_10
REMARK    8  A    between atoms: C_10  and  C_15
REMARK                            x       y       z     vdW  Elec       q    Type
REMARK                         _______ _______ _______ _____ _____    ______ ____
ROOT
ATOM      1  N   UNL     1      -1.784   1.567  -1.103  0.00  0.00    -0.316 N 
ATOM      2  C   UNL     1      -2.255   2.265  -2.155  0.00  0.00    +0.224 C 
ATOM      3  O   UNL     1      -2.978   1.726  -2.966  0.00  0.00    -0.275 OA
ATOM      4  H   UNL     1      -1.264   2.014  -0.417  0.00  0.00    +0.149 HD
ENDROOT
BRANCH   2   5
ATOM      5  C   UNL     1      -1.882   3.716  -2.324  0.00  0.00    +0.072 C 
ATOM      6  C   UNL     1      -2.278   4.511  -1.068  0.00  0.00    +0.021 C 
ATOM      7  C   UNL     1      -3.292   5.581  -1.525  0.00  0.00    +0.001 C 
ATOM      8  C   UNL     1      -3.892   5.002  -2.830  0.00  0.00    +0.001 C 
ATOM      9  C   UNL     1      -2.669   4.329  -3.501  0.00  0.00    +0.021 C 
BRANCH   5  10
ATOM     10  C   UNL     1      -0.401   3.842  -2.571  0.00  0.00    -0.032 A 
ATOM     11  C   UNL     1       0.369   2.708  -2.749  0.00  0.00    +0.006 A 
ATOM     12  C   UNL     1       1.728   2.824  -2.976  0.00  0.00    +0.020 A 
ATOM     13  C   UNL     1       2.317   4.075  -3.025  0.00  0.00    +0.041 A 
ATOM     14  C   UNL     1       1.545   5.210  -2.847  0.00  0.00    +0.020 A 
ATOM     15  C   UNL     1       0.186   5.093  -2.626  0.00  0.00    +0.006 A 
ATOM     16 CL   UNL     1       4.023   4.221  -3.309  0.00  0.00    -0.084 Cl
ENDBRANCH   5  10
ENDBRANCH   2   5
BRANCH   1  17
ATOM     17  C   UNL     1      -2.057   0.132  -0.995  0.00  0.00    +0.094 C 
BRANCH  17  18
ATOM     18  C   UNL     1      -1.316  -0.439   0.215  0.00  0.00    -0.014 C 
BRANCH  18  19
ATOM     19  C   UNL     1      -1.858   0.184   1.476  0.00  0.00    -0.022 A 
ATOM     20  C   UNL     1      -1.348   1.200   2.214  0.00  0.00    +0.009 A 
ATOM     21  C   UNL     1      -2.025   1.611   3.347  0.00  0.00    +0.008 A 
ATOM     22  C   UNL     1      -3.178   0.986   3.686  0.00  0.00    +0.045 A 
ATOM     23  S   UNL     1      -3.343  -0.221   2.381  0.00  0.00    -0.103 S 
ENDBRANCH  18  19
BRANCH  18  25
ATOM     24  C   UNL     1      -0.903  -2.510  -0.922  0.00  0.00    -0.096 C 
ATOM     25  N   UNL     1      -1.508  -1.895   0.266  0.00  0.00    +0.382 N 
ATOM     26  C   UNL     1      -0.869  -2.431   1.475  0.00  0.00    -0.096 C 
ATOM     27  H   UNL     1      -2.495  -2.103   0.287  0.00  0.00    -0.082 HD
ENDBRANCH  18  25
ENDBRANCH  17  18
ENDBRANCH   1  17
TORSDOF 6
