REMARK  Name = ZINC59212539
REMARK  9 active torsions:
REMARK  status: ('A' for Active; 'I' for Inactive)
REMARK    1  A    between atoms: C_1  and  C_2
REMARK    2  A    between atoms: C_5  and  C_8
REMARK    3  A    between atoms: C_11  and  S_13
REMARK    4  A    between atoms: S_13  and  C_14
REMARK    5  A    between atoms: C_14  and  C_15
REMARK    6  A    between atoms: N_17  and  C_18
REMARK    7  A    between atoms: C_23  and  N_24
REMARK    8  A    between atoms: N_27  and  C_30
REMARK    9  A    between atoms: C_30  and  C_31
REMARK                            x       y       z     vdW  Elec       q    Type
REMARK                         _______ _______ _______ _____ _____    ______ ____
ROOT
ATOM      1  C   UNL     1      -0.435 -10.538   0.906  0.00  0.00    +0.228 C 
ATOM      2  O   UNL     1      -0.969 -10.658   1.988  0.00  0.00    -0.275 OA
ATOM      3  N   UNL     1       0.165 -11.599   0.330  0.00  0.00    -0.283 N 
ATOM      4  H   UNL     1       0.522 -11.525  -0.569  0.00  0.00    +0.155 HD
ENDROOT
BRANCH   3   5
ATOM      5  C   UNL     1       0.275 -12.808   1.030  0.00  0.00    +0.055 A 
ATOM      6  C   UNL     1       0.261 -12.812   2.417  0.00  0.00    +0.025 A 
ATOM      7  C   UNL     1       0.370 -14.006   3.105  0.00  0.00    +0.002 A 
ATOM      8  C   UNL     1       0.492 -15.198   2.416  0.00  0.00    +0.002 A 
ATOM      9  C   UNL     1       0.507 -15.203   1.034  0.00  0.00    +0.025 A 
ATOM     10  C   UNL     1       0.392 -14.011   0.334  0.00  0.00    +0.051 A 
BRANCH  10  11
ATOM     11  N   UNL     1       0.401 -14.014  -1.065  0.00  0.00    -0.326 N 
ATOM     12  C   UNL     1       1.663 -13.903  -1.812  0.00  0.00    +0.120 C 
ATOM     13  C   UNL     1       1.520 -12.783  -2.847  0.00  0.00    +0.104 C 
ATOM     14  N   UNL     1       0.330 -13.031  -3.671  0.00  0.00    -0.289 NA
ATOM     15  C   UNL     1      -0.896 -12.998  -2.862  0.00  0.00    +0.104 C 
ATOM     16  C   UNL     1      -0.851 -14.134  -1.827  0.00  0.00    +0.120 C 
BRANCH  14  17
ATOM     17  C   UNL     1       0.251 -12.076  -4.784  0.00  0.00    +0.173 C 
BRANCH  17  18
ATOM     18  C   UNL     1      -0.806 -12.497  -5.718  0.00  0.00    -0.090 C 
ATOM     19  C   UNL     1      -1.649 -12.832  -6.464  0.00  0.00    +0.005 C 
ENDBRANCH  17  18
ENDBRANCH  14  17
ENDBRANCH  10  11
ENDBRANCH   3   5
BRANCH   1  20
ATOM     20  C   UNL     1      -0.443  -9.204   0.205  0.00  0.00    +0.175 C 
BRANCH  20  21
ATOM     21  S   UNL     1      -1.321  -7.990   1.227  0.00  0.00    -0.056 S 
BRANCH  21  25
ATOM     22  C   UNL     1      -1.473  -4.461  -0.379  0.00  0.00    +0.249 A 
ATOM     23  N   UNL     1      -0.809  -5.139  -1.283  0.00  0.00    -0.106 NA
ATOM     24  N   UNL     1      -0.672  -6.356  -0.890  0.00  0.00    -0.101 NA
ATOM     25  C   UNL     1      -1.245  -6.504   0.283  0.00  0.00    +0.278 A 
ATOM     26  O   UNL     1      -1.759  -5.309   0.633  0.00  0.00    -0.411 OA
BRANCH  22  31
ATOM     27  C   UNL     1      -2.890   1.108  -0.659  0.00  0.00    +0.044 C 
ATOM     28  C   UNL     1      -2.519  -0.350  -0.586  0.00  0.00    -0.050 A 
ATOM     29  C   UNL     1      -1.818  -0.936  -1.625  0.00  0.00    +0.004 A 
ATOM     30  C   UNL     1      -1.474  -2.270  -1.564  0.00  0.00    +0.013 A 
ATOM     31  C   UNL     1      -1.837  -3.031  -0.451  0.00  0.00    +0.039 A 
ATOM     32  C   UNL     1      -2.545  -2.434   0.594  0.00  0.00    +0.013 A 
ATOM     33  C   UNL     1      -2.877  -1.097   0.522  0.00  0.00    +0.004 A 
ENDBRANCH  22  31
ENDBRANCH  21  25
ENDBRANCH  20  21
ENDBRANCH   1  20
TORSDOF 8
