REMARK  Name = ZINC63844202
REMARK  7 active torsions:
REMARK  status: ('A' for Active; 'I' for Inactive)
REMARK    1  A    between atoms: C_7  and  C_10
REMARK    2  A    between atoms: C_10  and  C_11
REMARK    3  A    between atoms: C_11  and  C_13
REMARK    4  A    between atoms: C_11  and  N_25
REMARK    5  A    between atoms: N_15  and  C_16
REMARK    6  A    between atoms: N_25  and  S_26
REMARK    7  A    between atoms: S_26  and  C_29
REMARK                            x       y       z     vdW  Elec       q    Type
REMARK                         _______ _______ _______ _____ _____    ______ ____
ROOT
ATOM      1  C   UNL     1       0.460  -3.655  -1.467  0.00  0.00    +0.166 C 
ENDROOT
BRANCH   1   2
ATOM      2  C   UNL     1      -0.385  -4.903  -1.451  0.00  0.00    +0.236 C 
ATOM      3  O   UNL     1      -1.463  -4.913  -2.007  0.00  0.00    -0.274 OA
ATOM      4  N   UNL     1       0.057  -6.008  -0.819  0.00  0.00    -0.284 N 
ATOM      5  H   UNL     1       0.946  -6.023  -0.432  0.00  0.00    +0.155 HD
BRANCH   4   6
ATOM      6  C   UNL     1      -0.769  -7.136  -0.720  0.00  0.00    +0.037 A 
ATOM      7  C   UNL     1      -0.730  -7.927   0.421  0.00  0.00    +0.027 A 
ATOM      8  C   UNL     1      -1.544  -9.039   0.520  0.00  0.00    +0.051 A 
ATOM      9  C   UNL     1      -2.400  -9.369  -0.518  0.00  0.00    +0.166 A 
ATOM     10  C   UNL     1      -2.441  -8.578  -1.664  0.00  0.00    +0.168 A 
ATOM     11  C   UNL     1      -1.629  -7.460  -1.760  0.00  0.00    +0.072 A 
ATOM     12  O   UNL     1      -3.354  -9.109  -2.529  0.00  0.00    -0.453 OA
ATOM     13  C   UNL     1      -3.573 -10.458  -2.076  0.00  0.00    +0.466 C 
ATOM     14  O   UNL     1      -3.288 -10.396  -0.666  0.00  0.00    -0.453 OA
ENDBRANCH   4   6
ENDBRANCH   1   2
BRANCH   1  15
ATOM     15  N   UNL     1      -0.237  -2.604  -2.212  0.00  0.00    -0.178 NA
ATOM     16  H   UNL     1      -1.203  -2.537  -2.168  0.00  0.00    +0.149 HD
BRANCH  15  17
ATOM     17  S   UNL     1       0.627  -1.529  -3.130  0.00  0.00    +0.059 S 
ATOM     18  O   UNL     1      -0.321  -0.663  -3.740  0.00  0.00    -0.153 OA
ATOM     19  O   UNL     1       1.680  -1.047  -2.307  0.00  0.00    -0.153 OA
BRANCH  17  20
ATOM     20  C   UNL     1       1.383  -2.445  -4.431  0.00  0.00    +0.105 A 
ATOM     21  C   UNL     1       2.639  -2.994  -4.251  0.00  0.00    +0.030 A 
ATOM     22  C   UNL     1       3.233  -3.712  -5.271  0.00  0.00    +0.022 A 
ATOM     23  C   UNL     1       2.570  -3.883  -6.473  0.00  0.00    +0.041 A 
ATOM     24  C   UNL     1       1.313  -3.334  -6.653  0.00  0.00    +0.022 A 
ATOM     25  C   UNL     1       0.718  -2.620  -5.630  0.00  0.00    +0.030 A 
ATOM     26 CL   UNL     1       3.315  -4.785  -7.755  0.00  0.00    -0.084 Cl
ENDBRANCH  17  20
ENDBRANCH  15  17
ENDBRANCH   1  15
BRANCH   1  27
ATOM     27  C   UNL     1       0.705  -3.187  -0.032  0.00  0.00    +0.063 C 
BRANCH  27  34
ATOM     28  C   UNL     1       0.012   1.349   0.001  0.00  0.00    +0.001 A 
ATOM     29  C   UNL     1       1.197   2.099  -0.015  0.00  0.00    +0.002 A 
ATOM     30  C   UNL     1       2.420   1.529  -0.037  0.00  0.00    +0.026 A 
ATOM     31  C   UNL     1       2.553   0.113  -0.045  0.00  0.00    +0.043 A 
ATOM     32  N   UNL     1       3.609  -0.665  -0.067  0.00  0.00    -0.380 N 
ATOM     33  C   UNL     1       3.161  -2.062  -0.066  0.00  0.00    +0.144 C 
ATOM     34  C   UNL     1       1.649  -2.013  -0.041  0.00  0.00    -0.040 C 
ATOM     35  C   UNL     1       1.317  -0.701  -0.029  0.00  0.00    -0.001 A 
ATOM     36  C   UNL     1       0.026  -0.003  -0.005  0.00  0.00    +0.010 A 
ATOM     37  H   UNL     1       4.532  -0.366  -0.081  0.00  0.00    +0.160 HD
ENDBRANCH  27  34
ENDBRANCH   1  27
TORSDOF 7
