REMARK  Name = ZINC51847964
REMARK  4 active torsions:
REMARK  status: ('A' for Active; 'I' for Inactive)
REMARK    1  A    between atoms: C_1  and  C_2
REMARK    2  A    between atoms: C_7  and  C_8
REMARK    3  A    between atoms: C_10  and  C_13
REMARK    4  A    between atoms: C_18  and  N_19
REMARK                            x       y       z     vdW  Elec       q    Type
REMARK                         _______ _______ _______ _____ _____    ______ ____
ROOT
ATOM      1  C   UNL     1      -0.018   1.503   0.010  0.00  0.00    +0.044 C 
ATOM      2  C   UNL     1       0.002  -0.004   0.002  0.00  0.00    -0.045 A 
ATOM      3  C   UNL     1       0.006  -0.683  -1.199  0.00  0.00    +0.031 A 
ATOM      4  C   UNL     1       0.024  -2.069  -1.209  0.00  0.00    +0.067 A 
ATOM      5  C   UNL     1       0.040  -2.779   0.004  0.00  0.00    +0.090 A 
ATOM      6  C   UNL     1       0.036  -2.076   1.212  0.00  0.00    +0.033 A 
ATOM      7  C   UNL     1       0.023  -0.699   1.202  0.00  0.00    -0.045 A 
ATOM      8  C   UNL     1       0.025   0.058   2.505  0.00  0.00    +0.044 C 
ATOM      9  N   UNL     1       0.056  -4.100  -0.304  0.00  0.00    -0.228 NA
ATOM     10  C   UNL     1       0.051  -4.249  -1.608  0.00  0.00    +0.144 A 
ATOM     11  N   UNL     1       0.032  -3.021  -2.214  0.00  0.00    -0.338 N 
ATOM     12  H   UNL     1       0.025  -2.850  -3.169  0.00  0.00    +0.167 HD
ENDROOT
BRANCH  10  13
ATOM     13  C   UNL     1       0.064  -5.543  -2.314  0.00  0.00    +0.076 A 
ATOM     14  C   UNL     1       0.067  -5.735  -3.713  0.00  0.00    +0.147 A 
ATOM     15  N   UNL     1       0.080  -7.018  -3.949  0.00  0.00    -0.180 NA
ATOM     16  N   UNL     1       0.087  -7.708  -2.731  0.00  0.00    -0.264 N 
ATOM     17  H   UNL     1       0.097  -8.672  -2.625  0.00  0.00    +0.190 HD
ATOM     18  C   UNL     1       0.083  -6.803  -1.729  0.00  0.00    +0.122 A 
BRANCH  18  19
ATOM     19  N   UNL     1       0.093  -7.078  -0.373  0.00  0.00    -0.343 N 
ATOM     20  H   UNL     1       0.087  -6.352   0.270  0.00  0.00    +0.144 HD
ATOM     21  H   UNL     1       0.106  -7.998  -0.065  0.00  0.00    +0.144 HD
ENDBRANCH  18  19
ENDBRANCH  10  13
TORSDOF 2
