REMARK  Name = ZINC35066423
REMARK  14 active torsions:
REMARK  status: ('A' for Active; 'I' for Inactive)
REMARK    1  A    between atoms: C_1  and  C_2
REMARK    2  A    between atoms: C_2  and  C_3
REMARK    3  A    between atoms: C_3  and  C_5
REMARK    4  A    between atoms: C_3  and  N_24
REMARK    5  A    between atoms: N_15  and  C_16
REMARK    6  A    between atoms: C_19  and  O_22
REMARK    7  A    between atoms: O_22  and  C_23
REMARK    8  A    between atoms: N_24  and  C_25
REMARK    9  A    between atoms: C_25  and  C_26
REMARK   10  A    between atoms: C_26  and  C_27
REMARK   11  A    between atoms: N_35  and  C_36
REMARK   12  A    between atoms: C_36  and  C_37
REMARK   13  A    between atoms: C_36  and  C_38
REMARK   14  A    between atoms: C_36  and  C_39
REMARK                            x       y       z     vdW  Elec       q    Type
REMARK                         _______ _______ _______ _____ _____    ______ ____
ROOT
ATOM      1  C   UNL     1      -1.638  -0.623  -0.150  0.00  0.00    +0.144 C 
ENDROOT
BRANCH   1   2
ATOM      2  C   UNL     1      -1.881  -2.108  -0.084  0.00  0.00    +0.138 A 
ATOM      3  N   UNL     1      -0.974  -2.904  -0.564  0.00  0.00    -0.231 NA
ATOM      4  C   UNL     1      -1.124  -4.251  -0.538  0.00  0.00    +0.078 A 
ATOM      5  C   UNL     1      -0.149  -5.107  -1.055  0.00  0.00    +0.028 A 
ATOM      6  C   UNL     1      -0.342  -6.469  -1.007  0.00  0.00    +0.002 A 
ATOM      7  C   UNL     1      -1.497  -7.005  -0.451  0.00  0.00    +0.001 A 
ATOM      8  C   UNL     1      -2.473  -6.182   0.065  0.00  0.00    +0.015 A 
ATOM      9  C   UNL     1      -2.297  -4.800   0.026  0.00  0.00    +0.065 A 
ATOM     10  C   UNL     1      -3.304  -3.873   0.562  0.00  0.00    +0.266 A 
ATOM     11  O   UNL     1      -4.337  -4.280   1.062  0.00  0.00    -0.267 OA
ATOM     12  N   UNL     1      -3.037  -2.548   0.482  0.00  0.00    -0.263 N 
BRANCH  12  13
ATOM     13  C   UNL     1      -3.962  -1.622   0.983  0.00  0.00    +0.051 A 
ATOM     14  C   UNL     1      -5.170  -1.422   0.328  0.00  0.00    +0.030 A 
ATOM     15  C   UNL     1      -6.080  -0.509   0.821  0.00  0.00    +0.047 A 
ATOM     16  C   UNL     1      -5.789   0.209   1.972  0.00  0.00    +0.120 A 
ATOM     17  C   UNL     1      -4.582   0.011   2.627  0.00  0.00    +0.047 A 
ATOM     18  C   UNL     1      -3.673  -0.907   2.138  0.00  0.00    +0.030 A 
BRANCH  16  19
ATOM     19  O   UNL     1      -6.686   1.108   2.457  0.00  0.00    -0.495 OA
ATOM     20  C   UNL     1      -6.320   1.812   3.645  0.00  0.00    +0.277 C 
ENDBRANCH  16  19
ENDBRANCH  12  13
ENDBRANCH   1   2
BRANCH   1  21
ATOM     21  N   UNL     1      -2.513  -0.030  -1.165  0.00  0.00    -0.275 N 
ATOM     22  C   UNL     1      -2.384  -0.387  -2.458  0.00  0.00    +0.303 C 
ATOM     23  O   UNL     1      -3.049   0.168  -3.311  0.00  0.00    -0.253 OA
ATOM     24  N   UNL     1      -1.518  -1.360  -2.805  0.00  0.00    -0.294 N 
ATOM     25  H   UNL     1      -1.036  -1.848  -2.119  0.00  0.00    +0.151 HD
BRANCH  24  26
ATOM     26  C   UNL     1      -1.304  -1.679  -4.219  0.00  0.00    +0.028 C 
ATOM     27  C   UNL     1      -0.780  -0.440  -4.948  0.00  0.00    +0.031 C 
ATOM     28  C   UNL     1      -0.281  -2.811  -4.337  0.00  0.00    +0.031 C 
ATOM     29  C   UNL     1      -2.627  -2.121  -4.848  0.00  0.00    +0.031 C 
ENDBRANCH  24  26
BRANCH  21  30
ATOM     30  C   UNL     1      -3.528   0.952  -0.774  0.00  0.00    +0.115 C 
BRANCH  30  31
ATOM     31  C   UNL     1      -2.929   2.358  -0.837  0.00  0.00    +0.054 C 
BRANCH  31  32
ATOM     32  C   UNL     1      -3.973   3.368  -0.435  0.00  0.00    -0.046 A 
ATOM     33  C   UNL     1      -4.802   3.923  -1.391  0.00  0.00    +0.004 A 
ATOM     34  C   UNL     1      -5.760   4.849  -1.022  0.00  0.00    +0.000 A 
ATOM     35  C   UNL     1      -5.888   5.219   0.303  0.00  0.00    +0.000 A 
ATOM     36  C   UNL     1      -5.059   4.663   1.260  0.00  0.00    +0.000 A 
ATOM     37  C   UNL     1      -4.105   3.734   0.891  0.00  0.00    +0.004 A 
ENDBRANCH  31  32
ENDBRANCH  30  31
ENDBRANCH  21  30
ENDBRANCH   1  21
BRANCH   1  39
ATOM     38  C   UNL     1       0.105   1.141  -0.456  0.00  0.00    +0.006 C 
ATOM     39  C   UNL     1      -0.177  -0.361  -0.522  0.00  0.00    +0.027 C 
ENDBRANCH   1  39
TORSDOF 9
