REMARK  Name = ZINC27145594
REMARK  12 active torsions:
REMARK  status: ('A' for Active; 'I' for Inactive)
REMARK    1  A    between atoms: C_1  and  C_2
REMARK    2  A    between atoms: C_2  and  C_3
REMARK    3  A    between atoms: C_3  and  N_4
REMARK    4  A    between atoms: C_13  and  C_15
REMARK    5  A    between atoms: N_17  and  C_18
REMARK    6  A    between atoms: C_18  and  C_19
REMARK    7  A    between atoms: C_19  and  C_21
REMARK    8  A    between atoms: C_19  and  N_29
REMARK    9  A    between atoms: C_24  and  C_27
REMARK   10  A    between atoms: C_27  and  C_28
REMARK   11  A    between atoms: N_29  and  C_30
REMARK   12  A    between atoms: N_29  and  C_31
REMARK                            x       y       z     vdW  Elec       q    Type
REMARK                         _______ _______ _______ _____ _____    ______ ____
ROOT
ATOM      1  C   UNL     1       1.619  -3.071  -0.756  0.00  0.00    +0.265 C 
ATOM      2  O   UNL     1       2.488  -2.411  -1.291  0.00  0.00    -0.268 OA
ATOM      3  N   UNL     1       1.862  -4.351  -0.408  0.00  0.00    -0.311 N 
ATOM      4  H   UNL     1       1.075  -4.948   0.076  0.00  0.00    +0.149 HD
ENDROOT
BRANCH   1  14
ATOM      5  N   UNL     1      -1.815  -2.731   0.358  0.00  0.00    -0.228 N 
ATOM      6  C   UNL     1      -2.217  -1.475   0.076  0.00  0.00    +0.275 A 
ATOM      7  O   UNL     1      -3.343  -1.104   0.353  0.00  0.00    -0.266 OA
ATOM      8  C   UNL     1      -1.265  -0.565  -0.575  0.00  0.00    +0.050 A 
ATOM      9  C   UNL     1      -1.581   0.749  -0.908  0.00  0.00    +0.014 A 
ATOM     10  C   UNL     1      -0.630   1.539  -1.518  0.00  0.00    +0.001 A 
ATOM     11  C   UNL     1       0.634   1.038  -1.800  0.00  0.00    +0.001 A 
ATOM     12  C   UNL     1       0.967  -0.261  -1.478  0.00  0.00    +0.011 A 
ATOM     13  C   UNL     1       0.022  -1.075  -0.863  0.00  0.00    +0.020 A 
ATOM     14  C   UNL     1       0.297  -2.471  -0.487  0.00  0.00    +0.154 A 
ATOM     15  N   UNL     1      -0.646  -3.176   0.090  0.00  0.00    -0.163 NA
BRANCH   5  16
ATOM     16  C   UNL     1      -2.768  -3.635   1.007  0.00  0.00    +0.147 C 
BRANCH  16  18
ATOM     17  C   UNL     1      -4.559  -5.333   0.618  0.00  0.00    +0.005 C 
ATOM     18  C   UNL     1      -3.564  -4.389  -0.060  0.00  0.00    +0.020 C 
ENDBRANCH  16  18
ENDBRANCH   5  16
ENDBRANCH   1  14
BRANCH   3  19
ATOM     19  C   UNL     1       3.173  -4.946  -0.675  0.00  0.00    +0.094 C 
BRANCH  19  20
ATOM     20  C   UNL     1       3.184  -6.396  -0.187  0.00  0.00    -0.021 C 
BRANCH  20  21
ATOM     21  C   UNL     1       4.568  -6.970  -0.349  0.00  0.00    -0.059 A 
ATOM     22  C   UNL     1       4.739  -8.205  -0.946  0.00  0.00    +0.002 A 
ATOM     23  C   UNL     1       6.008  -8.729  -1.099  0.00  0.00    +0.004 A 
ATOM     24  C   UNL     1       7.107  -8.023  -0.646  0.00  0.00    -0.048 A 
ATOM     25  C   UNL     1       6.936  -6.791  -0.044  0.00  0.00    +0.004 A 
ATOM     26  C   UNL     1       5.667  -6.264   0.104  0.00  0.00    +0.002 A 
BRANCH  24  27
ATOM     27  C   UNL     1       8.491  -8.598  -0.807  0.00  0.00    +0.032 C 
ATOM     28  C   UNL     1       8.842  -9.436   0.424  0.00  0.00    +0.009 C 
ENDBRANCH  24  27
ENDBRANCH  20  21
BRANCH  20  29
ATOM     29  N   UNL     1       2.800  -6.438   1.230  0.00  0.00    +0.382 N 
ATOM     30  C   UNL     1       2.621  -7.823   1.686  0.00  0.00    -0.096 C 
ATOM     31  C   UNL     1       3.782  -5.732   2.063  0.00  0.00    -0.096 C 
ATOM     32  H   UNL     1       1.835  -5.920   1.334  0.00  0.00    -0.082 HD
ENDBRANCH  20  29
ENDBRANCH  19  20
ENDBRANCH   3  19
TORSDOF 8
