REMARK  Name = ZINC62042056
REMARK  8 active torsions:
REMARK  status: ('A' for Active; 'I' for Inactive)
REMARK    1  A    between atoms: C_1  and  C_2
REMARK    2  A    between atoms: C_9  and  C_25
REMARK    3  A    between atoms: C_10  and  C_11
REMARK    4  A    between atoms: C_11  and  C_12
REMARK    5  A    between atoms: N_14  and  C_15
REMARK    6  A    between atoms: C_20  and  C_21
REMARK    7  A    between atoms: C_28  and  C_32
REMARK    8  A    between atoms: C_29  and  C_31
REMARK                            x       y       z     vdW  Elec       q    Type
REMARK                         _______ _______ _______ _____ _____    ______ ____
ROOT
ATOM      1  C   UNL     1      -0.011   1.494  -0.010  0.00  0.00    +0.047 C 
ATOM      2  C   UNL     1       0.013  -0.012  -0.017  0.00  0.00    -0.009 A 
ATOM      3  C   UNL     1       0.028  -0.694  -1.194  0.00  0.00    +0.008 A 
ATOM      4  C   UNL     1       0.051  -2.098  -1.185  0.00  0.00    +0.018 A 
ATOM      5  C   UNL     1       0.058  -2.772  -0.015  0.00  0.00    +0.093 A 
ATOM      6  N   UNL     1       0.043  -2.101   1.174  0.00  0.00    -0.304 N 
ATOM      7  C   UNL     1       0.027  -0.730   1.197  0.00  0.00    +0.119 A 
ATOM      8  N   UNL     1       0.023  -0.335   2.462  0.00  0.00    -0.339 N 
ATOM      9  C   UNL     1       0.043  -1.415   3.259  0.00  0.00    +0.068 A 
ATOM     10  C   UNL     1       0.045  -2.527   2.472  0.00  0.00    +0.058 A 
ATOM     11  H   UNL     1       0.009   0.587   2.764  0.00  0.00    +0.167 HD
ENDROOT
BRANCH   9  12
ATOM     12  C   UNL     1       0.046  -1.400   4.743  0.00  0.00    +0.000 A 
ATOM     13  C   UNL     1       0.917  -2.227   5.449  0.00  0.00    +0.010 A 
ATOM     14  C   UNL     1       0.916  -2.209   6.829  0.00  0.00    +0.004 A 
ATOM     15  C   UNL     1       0.051  -1.373   7.511  0.00  0.00    -0.047 A 
ATOM     16  C   UNL     1      -0.816  -0.550   6.816  0.00  0.00    -0.047 A 
ATOM     17  C   UNL     1      -0.819  -0.555   5.436  0.00  0.00    +0.013 A 
ATOM     18  C   UNL     1      -1.756   0.358   7.566  0.00  0.00    +0.044 C 
ATOM     19  C   UNL     1       0.053  -1.359   9.018  0.00  0.00    +0.044 C 
ENDBRANCH   9  12
BRANCH  10  20
ATOM     20  C   UNL     1       0.066  -3.958   2.945  0.00  0.00    +0.152 C 
BRANCH  20  21
ATOM     21  C   UNL     1       1.494  -4.413   3.107  0.00  0.00    +0.223 C 
ATOM     22  O   UNL     1       2.405  -3.650   2.864  0.00  0.00    -0.275 OA
ATOM     23  N   UNL     1       1.758  -5.667   3.524  0.00  0.00    -0.285 N 
ATOM     24  H   UNL     1       1.033  -6.251   3.795  0.00  0.00    +0.155 HD
BRANCH  23  25
ATOM     25  C   UNL     1       3.079  -6.127   3.564  0.00  0.00    +0.045 A 
ATOM     26  C   UNL     1       4.040  -5.557   2.739  0.00  0.00    +0.024 A 
ATOM     27  C   UNL     1       5.343  -6.013   2.782  0.00  0.00    +0.002 A 
ATOM     28  C   UNL     1       5.691  -7.037   3.644  0.00  0.00    +0.001 A 
ATOM     29  C   UNL     1       4.737  -7.606   4.466  0.00  0.00    +0.014 A 
ATOM     30  C   UNL     1       3.433  -7.150   4.433  0.00  0.00    +0.076 A 
BRANCH  30  31
ATOM     31  C   UNL     1       2.395  -7.767   5.335  0.00  0.00    +0.419 C 
ATOM     32  F   UNL     1       2.988  -8.769   6.112  0.00  0.00    -0.166 F 
ATOM     33  F   UNL     1       1.861  -6.782   6.173  0.00  0.00    -0.166 F 
ATOM     34  F   UNL     1       1.373  -8.323   4.558  0.00  0.00    -0.166 F 
ENDBRANCH  30  31
ENDBRANCH  23  25
ENDBRANCH  20  21
ENDBRANCH  10  20
TORSDOF 5
