REMARK  Name = ZINC00926027
REMARK  12 active torsions:
REMARK  status: ('A' for Active; 'I' for Inactive)
REMARK    1  A    between atoms: C_1  and  C_2
REMARK    2  A    between atoms: C_2  and  C_3
REMARK    3  A    between atoms: C_10  and  C_15
REMARK    4  A    between atoms: C_15  and  N_16
REMARK    5  A    between atoms: N_16  and  C_17
REMARK    6  A    between atoms: N_16  and  C_27
REMARK    7  A    between atoms: C_17  and  C_18
REMARK    8  A    between atoms: C_27  and  C_28
REMARK    9  A    between atoms: N_32  and  C_33
REMARK   10  A    between atoms: C_33  and  C_34
REMARK   11  A    between atoms: C_37  and  O_40
REMARK   12  A    between atoms: O_40  and  C_41
REMARK                            x       y       z     vdW  Elec       q    Type
REMARK                         _______ _______ _______ _____ _____    ______ ____
ROOT
ATOM      1  N   UNL     1       6.495  -3.544  -3.223  0.00  0.00    -0.287 NA
ENDROOT
BRANCH   1   2
ATOM      2  C   UNL     1       6.244  -2.271  -3.911  0.00  0.00    +0.125 C 
BRANCH   2  10
ATOM      3  C   UNL     1       0.334  -0.538  -3.314  0.00  0.00    -0.047 A 
ATOM      4  C   UNL     1      -0.135  -1.189  -4.447  0.00  0.00    +0.005 A 
ATOM      5  C   UNL     1       0.722  -1.916  -5.245  0.00  0.00    +0.026 A 
ATOM      6  C   UNL     1       2.071  -1.999  -4.914  0.00  0.00    +0.049 A 
ATOM      7  C   UNL     1       2.542  -1.337  -3.764  0.00  0.00    -0.001 A 
ATOM      8  C   UNL     1       1.655  -0.601  -2.972  0.00  0.00    +0.013 A 
ATOM      9  C   UNL     1       3.963  -1.431  -3.424  0.00  0.00    +0.020 A 
ATOM     10  C   UNL     1       4.776  -2.154  -4.232  0.00  0.00    +0.031 A 
ATOM     11  C   UNL     1       4.253  -2.799  -5.374  0.00  0.00    +0.254 A 
ATOM     12  O   UNL     1       5.002  -3.445  -6.087  0.00  0.00    -0.268 OA
ATOM     13  N   UNL     1       2.950  -2.719  -5.694  0.00  0.00    -0.322 N 
ATOM     14  H   UNL     1       2.623  -3.175  -6.486  0.00  0.00    +0.169 HD
BRANCH   3  16
ATOM     15  C   UNL     1      -0.685   1.695  -2.958  0.00  0.00    +0.009 C 
ATOM     16  C   UNL     1      -0.622   0.251  -2.457  0.00  0.00    +0.032 C 
ENDBRANCH   3  16
ENDBRANCH   2  10
ENDBRANCH   1   2
BRANCH   1  17
ATOM     17  C   UNL     1       6.158  -3.447  -1.796  0.00  0.00    +0.120 C 
BRANCH  17  18
ATOM     18  C   UNL     1       7.020  -2.395  -1.147  0.00  0.00    -0.030 A 
ATOM     19  C   UNL     1       8.296  -2.714  -0.722  0.00  0.00    +0.009 A 
ATOM     20  C   UNL     1       9.091  -1.752  -0.127  0.00  0.00    +0.050 A 
ATOM     21  C   UNL     1       8.609  -0.465   0.046  0.00  0.00    +0.166 A 
ATOM     22  C   UNL     1       7.323  -0.143  -0.382  0.00  0.00    +0.167 A 
ATOM     23  C   UNL     1       6.535  -1.111  -0.983  0.00  0.00    +0.054 A 
ATOM     24  O   UNL     1       7.087   1.172  -0.102  0.00  0.00    -0.453 OA
ATOM     25  C   UNL     1       8.084   1.544   0.867  0.00  0.00    +0.466 C 
ATOM     26  O   UNL     1       9.178   0.649   0.594  0.00  0.00    -0.453 OA
ENDBRANCH  17  18
ENDBRANCH   1  17
BRANCH   1  27
ATOM     27  C   UNL     1       7.886  -3.977  -3.407  0.00  0.00    +0.163 C 
BRANCH  27  28
ATOM     28  C   UNL     1       8.006  -5.441  -3.070  0.00  0.00    +0.166 A 
ATOM     29  N   UNL     1       8.155  -5.959  -1.876  0.00  0.00    -0.112 NA
ATOM     30  N   UNL     1       8.218  -7.240  -2.003  0.00  0.00    -0.023 NA
ATOM     31  N   UNL     1       8.113  -7.552  -3.247  0.00  0.00    -0.044 NA
ATOM     32  N   UNL     1       7.976  -6.470  -3.937  0.00  0.00    -0.224 N 
BRANCH  32  33
ATOM     33  C   UNL     1       7.819  -6.379  -5.391  0.00  0.00    +0.182 C 
BRANCH  33  34
ATOM     34  C   UNL     1       9.176  -6.266  -6.036  0.00  0.00    -0.026 A 
ATOM     35  C   UNL     1       9.740  -5.021  -6.245  0.00  0.00    +0.009 A 
ATOM     36  C   UNL     1      10.984  -4.915  -6.837  0.00  0.00    +0.046 A 
ATOM     37  C   UNL     1      11.668  -6.059  -7.221  0.00  0.00    +0.120 A 
ATOM     38  C   UNL     1      11.100  -7.308  -7.010  0.00  0.00    +0.046 A 
ATOM     39  C   UNL     1       9.858  -7.408  -6.413  0.00  0.00    +0.009 A 
BRANCH  37  40
ATOM     40  O   UNL     1      12.891  -5.958  -7.803  0.00  0.00    -0.495 OA
ATOM     41  C   UNL     1      13.537  -7.178  -8.173  0.00  0.00    +0.277 C 
ENDBRANCH  37  40
ENDBRANCH  33  34
ENDBRANCH  32  33
ENDBRANCH  27  28
ENDBRANCH   1  27
TORSDOF 10
