REMARK  Name = ZINC35898382
REMARK  16 active torsions:
REMARK  status: ('A' for Active; 'I' for Inactive)
REMARK    1  A    between atoms: C_1  and  C_2
REMARK    2  A    between atoms: C_2  and  C_3
REMARK    3  A    between atoms: C_3  and  C_5
REMARK    4  A    between atoms: C_3  and  O_6
REMARK    5  A    between atoms: O_6  and  C_7
REMARK    6  A    between atoms: C_7  and  C_9
REMARK    7  A    between atoms: C_10  and  C_38
REMARK    8  A    between atoms: C_14  and  C_16
REMARK    9  A    between atoms: C_19  and  O_25
REMARK   10  A    between atoms: C_20  and  O_22
REMARK   11  A    between atoms: O_22  and  C_23
REMARK   12  A    between atoms: C_23  and  C_24
REMARK   13  A    between atoms: C_28  and  C_34
REMARK   14  A    between atoms: C_30  and  C_33
REMARK   15  A    between atoms: C_34  and  O_36
REMARK   16  A    between atoms: O_36  and  C_37
REMARK                            x       y       z     vdW  Elec       q    Type
REMARK                         _______ _______ _______ _____ _____    ______ ____
ROOT
ATOM      1  C   UNL     1       4.024   0.688  -2.434  0.00  0.00    +0.065 C 
ATOM      2  C   UNL     1       4.686   0.647  -3.603  0.00  0.00    +0.016 C 
ATOM      3  N   UNL     1       6.037   0.849  -3.641  0.00  0.00    -0.321 N 
ATOM      4  C   UNL     1       6.797   0.700  -2.512  0.00  0.00    +0.016 C 
ATOM      5  C   UNL     1       6.224   0.746  -1.290  0.00  0.00    +0.025 C 
ATOM      6  C   UNL     1       4.738   0.968  -1.144  0.00  0.00    +0.092 C 
ATOM      7  C   UNL     1       6.993   0.598  -0.122  0.00  0.00    +0.176 C 
ATOM      8  O   UNL     1       6.444   0.628   0.961  0.00  0.00    -0.291 OA
ATOM      9  C   UNL     1       8.483   0.402  -0.190  0.00  0.00    +0.171 C 
ATOM     10  C   UNL     1       9.016   1.072  -1.461  0.00  0.00    +0.013 C 
ATOM     11  C   UNL     1       8.281   0.480  -2.666  0.00  0.00    +0.055 C 
ATOM     12  C   UNL     1       8.767   2.579  -1.391  0.00  0.00    +0.009 C 
ATOM     13  C   UNL     1       3.933   0.377  -4.880  0.00  0.00    +0.061 C 
ATOM     14  H   UNL     1       6.462   1.100  -4.476  0.00  0.00    +0.152 HD
ENDROOT
BRANCH   6  15
ATOM     15  C   UNL     1       4.484   2.397  -0.739  0.00  0.00    -0.032 A 
ATOM     16  C   UNL     1       4.866   3.429  -1.575  0.00  0.00    +0.008 A 
ATOM     17  C   UNL     1       4.636   4.742  -1.207  0.00  0.00    +0.049 A 
ATOM     18  C   UNL     1       4.020   5.025   0.002  0.00  0.00    +0.158 A 
ATOM     19  C   UNL     1       3.635   3.986   0.843  0.00  0.00    +0.162 A 
ATOM     20  C   UNL     1       3.865   2.672   0.466  0.00  0.00    +0.054 A 
BRANCH  18  21
ATOM     21  O   UNL     1       3.793   6.316   0.365  0.00  0.00    -0.503 OA
ATOM     22  H   UNL     1       2.938   6.662   0.074  0.00  0.00    +0.292 HD
ENDBRANCH  18  21
BRANCH  19  23
ATOM     23  O   UNL     1       3.031   4.259   2.030  0.00  0.00    -0.489 OA
BRANCH  23  24
ATOM     24  C   UNL     1       2.663   3.142   2.843  0.00  0.00    +0.226 C 
ATOM     25  C   UNL     1       2.002   3.643   4.128  0.00  0.00    +0.048 C 
ENDBRANCH  23  24
ENDBRANCH  19  23
ENDBRANCH   6  15
BRANCH   1  26
ATOM     26  C   UNL     1       2.627   0.468  -2.419  0.00  0.00    +0.338 C 
ATOM     27  O   UNL     1       2.182  -0.588  -2.010  0.00  0.00    -0.245 OA
BRANCH  26  28
ATOM     28  O   UNL     1       1.788   1.429  -2.859  0.00  0.00    -0.458 OA
BRANCH  28  29
ATOM     29  C   UNL     1       0.389   1.139  -2.816  0.00  0.00    +0.173 C 
ATOM     30  C   UNL     1      -0.182   1.582  -1.467  0.00  0.00    +0.052 C 
BRANCH  29  32
ATOM     31  C   UNL     1       0.160   1.358  -5.294  0.00  0.00    +0.007 C 
ATOM     32  C   UNL     1      -0.322   1.890  -3.943  0.00  0.00    +0.041 C 
ENDBRANCH  29  32
ENDBRANCH  28  29
ENDBRANCH  26  28
ENDBRANCH   1  26
BRANCH   9  33
ATOM     33  C   UNL     1       9.129   1.026   1.020  0.00  0.00    +0.318 C 
ATOM     34  O   UNL     1       9.941   1.911   0.883  0.00  0.00    -0.250 OA
BRANCH  33  35
ATOM     35  O   UNL     1       8.803   0.599   2.250  0.00  0.00    -0.467 OA
ATOM     36  C   UNL     1       9.454   1.235   3.351  0.00  0.00    +0.280 C 
ENDBRANCH  33  35
ENDBRANCH   9  33
TORSDOF 10
