REMARK  Name = ZINC45943460
REMARK  14 active torsions:
REMARK  status: ('A' for Active; 'I' for Inactive)
REMARK    1  A    between atoms: C_1  and  C_2
REMARK    2  A    between atoms: C_2  and  C_3
REMARK    3  A    between atoms: C_3  and  C_5
REMARK    4  A    between atoms: C_3  and  N_6
REMARK    5  A    between atoms: C_7  and  C_9
REMARK    6  A    between atoms: N_18  and  C_21
REMARK    7  A    between atoms: C_21  and  C_22
REMARK    8  A    between atoms: N_24  and  C_25
REMARK    9  A    between atoms: N_24  and  C_26
REMARK   10  A    between atoms: N_32  and  C_35
REMARK   11  A    between atoms: C_35  and  C_36
REMARK   12  A    between atoms: C_36  and  C_37
REMARK   13  A    between atoms: C_37  and  C_38
REMARK   14  A    between atoms: C_37  and  C_39
REMARK                            x       y       z     vdW  Elec       q    Type
REMARK                         _______ _______ _______ _____ _____    ______ ____
ROOT
ATOM      1  C   UNL     1       0.099   0.250   4.714  0.00  0.00    +0.039 A 
ATOM      2  C   UNL     1      -1.278   0.456   4.589  0.00  0.00    +0.014 A 
ATOM      3  C   UNL     1      -2.027   0.816   5.688  0.00  0.00    +0.016 A 
ATOM      4  C   UNL     1      -1.409   0.975   6.927  0.00  0.00    +0.064 A 
ATOM      5  C   UNL     1      -0.027   0.770   7.057  0.00  0.00    +0.067 A 
ATOM      6  C   UNL     1       0.722   0.402   5.951  0.00  0.00    +0.040 A 
ATOM      7  N   UNL     1       0.574   0.934   8.305  0.00  0.00    -0.229 N 
ATOM      8  C   UNL     1      -0.178   1.294   9.401  0.00  0.00    +0.240 A 
ATOM      9  N   UNL     1       0.616   1.381  10.434  0.00  0.00    -0.129 NA
ATOM     10  N   UNL     1       1.915   1.072  10.014  0.00  0.00    -0.202 N 
ATOM     11  C   UNL     1       1.859   0.800   8.695  0.00  0.00    +0.353 A 
ATOM     12  O   UNL     1       2.798   0.490   7.983  0.00  0.00    -0.244 OA
ATOM     13  N   UNL     1      -1.546   1.503   9.299  0.00  0.00    -0.277 N 
ATOM     14  C   UNL     1      -2.186   1.361   8.122  0.00  0.00    +0.263 A 
ATOM     15  O   UNL     1      -3.385   1.547   8.045  0.00  0.00    -0.267 OA
ENDROOT
BRANCH   1  17
ATOM     16  N   UNL     1       0.297  -0.284   2.331  0.00  0.00    -0.309 N 
ATOM     17  C   UNL     1       0.897  -0.137   3.529  0.00  0.00    +0.244 C 
ATOM     18  O   UNL     1       2.093  -0.321   3.636  0.00  0.00    -0.270 OA
ATOM     19  H   UNL     1      -0.658  -0.137   2.246  0.00  0.00    +0.149 HD
BRANCH  16  20
ATOM     20  C   UNL     1       1.087  -0.667   1.158  0.00  0.00    +0.070 C 
ATOM     21  C   UNL     1       1.226  -2.190   1.112  0.00  0.00    +0.028 C 
BRANCH  20  23
ATOM     22  C   UNL     1       0.356   1.349  -0.123  0.00  0.00    +0.005 C 
ATOM     23  C   UNL     1       0.384  -0.180  -0.111  0.00  0.00    +0.018 C 
ENDBRANCH  20  23
ENDBRANCH  16  20
ENDBRANCH   1  17
BRANCH  10  24
ATOM     24  C   UNL     1       3.116   1.048  10.854  0.00  0.00    +0.245 C 
BRANCH  24  25
ATOM     25  C   UNL     1       3.758   2.412  10.850  0.00  0.00    +0.241 C 
ATOM     26  O   UNL     1       3.263   3.314  10.209  0.00  0.00    -0.273 OA
ATOM     27  N   UNL     1       4.884   2.628  11.559  0.00  0.00    -0.273 N 
ATOM     28  C   UNL     1       5.419   1.573  12.424  0.00  0.00    +0.138 C 
BRANCH  27  29
ATOM     29  C   UNL     1       5.542   3.859  11.468  0.00  0.00    +0.036 A 
ATOM     30  C   UNL     1       4.942   5.007  11.971  0.00  0.00    +0.023 A 
ATOM     31  C   UNL     1       5.594   6.221  11.880  0.00  0.00    +0.002 A 
ATOM     32  C   UNL     1       6.843   6.295  11.290  0.00  0.00    +0.000 A 
ATOM     33  C   UNL     1       7.442   5.154  10.788  0.00  0.00    +0.002 A 
ATOM     34  C   UNL     1       6.798   3.936  10.881  0.00  0.00    +0.023 A 
ENDBRANCH  27  29
ENDBRANCH  24  25
ENDBRANCH  10  24
BRANCH  13  35
ATOM     35  C   UNL     1      -2.307   1.886  10.491  0.00  0.00    +0.128 C 
BRANCH  35  36
ATOM     36  C   UNL     1      -2.338   3.411  10.609  0.00  0.00    +0.025 C 
BRANCH  36  37
ATOM     37  C   UNL     1      -3.132   3.810  11.854  0.00  0.00    -0.016 C 
ATOM     38  C   UNL     1      -3.058   5.327  12.042  0.00  0.00    +0.007 C 
ATOM     39  C   UNL     1      -4.593   3.388  11.684  0.00  0.00    +0.007 C 
ENDBRANCH  36  37
ENDBRANCH  35  36
ENDBRANCH  13  35
TORSDOF 9
