REMARK  Name = ZINC63228847
REMARK  6 active torsions:
REMARK  status: ('A' for Active; 'I' for Inactive)
REMARK    1  A    between atoms: C_1  and  C_2
REMARK    2  A    between atoms: C_9  and  C_14
REMARK    3  A    between atoms: N_16  and  C_17
REMARK    4  A    between atoms: C_17  and  C_18
REMARK    5  A    between atoms: C_18  and  C_20
REMARK    6  A    between atoms: C_18  and  C_27
REMARK                            x       y       z     vdW  Elec       q    Type
REMARK                         _______ _______ _______ _____ _____    ______ ____
ROOT
ATOM      1  C   UNL     1       8.929   0.924   0.578  0.00  0.00    +0.117 C 
ENDROOT
BRANCH   1   4
ATOM      2  C   UNL     1       6.624   0.407  -0.018  0.00  0.00    +0.244 C 
ATOM      3  O   UNL     1       6.963   0.377  -1.185  0.00  0.00    -0.270 OA
ATOM      4  N   UNL     1       7.532   0.673   0.942  0.00  0.00    -0.310 N 
ATOM      5  H   UNL     1       7.261   0.697   1.873  0.00  0.00    +0.149 HD
BRANCH   2  13
ATOM      6  C   UNL     1      -0.019   1.526   0.010  0.00  0.00    +0.029 C 
ATOM      7  C   UNL     1       0.002  -0.004   0.002  0.00  0.00    +0.134 C 
ATOM      8  C   UNL     1       0.712  -0.492  -1.231  0.00  0.00    +0.230 C 
ATOM      9  O   UNL     1       0.043  -0.768  -2.205  0.00  0.00    -0.274 OA
ATOM     10  N   UNL     1       2.031  -0.636  -1.313  0.00  0.00    -0.284 N 
ATOM     11  C   UNL     1       2.955  -0.360  -0.308  0.00  0.00    +0.048 A 
ATOM     12  C   UNL     1       4.277  -0.121  -0.647  0.00  0.00    +0.037 A 
ATOM     13  C   UNL     1       5.218   0.154   0.348  0.00  0.00    +0.039 A 
ATOM     14  C   UNL     1       4.829   0.189   1.691  0.00  0.00    +0.014 A 
ATOM     15  C   UNL     1       3.514  -0.047   2.029  0.00  0.00    +0.017 A 
ATOM     16  C   UNL     1       2.579  -0.318   1.039  0.00  0.00    +0.030 A 
ATOM     17  S   UNL     1       0.888  -0.610   1.470  0.00  0.00    -0.111 S 
ATOM     18  H   UNL     1       2.385  -0.967  -2.154  0.00  0.00    +0.155 HD
ENDBRANCH   2  13
ENDBRANCH   1   4
BRANCH   1  19
ATOM     19  C   UNL     1       9.744   1.197   1.844  0.00  0.00    +0.066 C 
BRANCH  19  20
ATOM     20  C   UNL     1      11.152   1.576   1.463  0.00  0.00    -0.033 C 
ATOM     21  C   UNL     1      11.789   2.734   1.752  0.00  0.00    -0.000 A 
ATOM     22  C   UNL     1      11.377   3.940   2.479  0.00  0.00    +0.010 A 
ATOM     23  C   UNL     1      12.256   4.961   2.608  0.00  0.00    +0.001 A 
ATOM     24  C   UNL     1      13.546   4.895   2.065  0.00  0.00    +0.002 A 
ATOM     25  C   UNL     1      13.997   3.820   1.384  0.00  0.00    +0.026 A 
ATOM     26  C   UNL     1      13.157   2.689   1.189  0.00  0.00    +0.043 A 
ATOM     27  N   UNL     1      13.358   1.548   0.575  0.00  0.00    -0.380 N 
ATOM     28  C   UNL     1      12.141   0.737   0.685  0.00  0.00    +0.145 C 
ATOM     29  H   UNL     1      14.177   1.283   0.127  0.00  0.00    +0.160 HD
ENDBRANCH  19  20
BRANCH  19  30
ATOM     30  C   UNL     1       9.772  -0.043   2.700  0.00  0.00    -0.020 A 
ATOM     31  C   UNL     1      10.316  -1.213   2.204  0.00  0.00    +0.006 A 
ATOM     32  C   UNL     1      10.341  -2.350   2.989  0.00  0.00    +0.000 A 
ATOM     33  C   UNL     1       9.824  -2.318   4.271  0.00  0.00    +0.001 A 
ATOM     34  C   UNL     1       9.280  -1.149   4.768  0.00  0.00    +0.020 A 
ATOM     35  C   UNL     1       9.259  -0.009   3.984  0.00  0.00    +0.045 A 
ATOM     36 CL   UNL     1       8.583   1.463   4.610  0.00  0.00    -0.083 Cl
ENDBRANCH  19  30
ENDBRANCH   1  19
TORSDOF 5
