REMARK  Name = ZINC12832957
REMARK  9 active torsions:
REMARK  status: ('A' for Active; 'I' for Inactive)
REMARK    1  A    between atoms: C_1  and  C_2
REMARK    2  A    between atoms: C_7  and  C_15
REMARK    3  A    between atoms: C_13  and  C_14
REMARK    4  A    between atoms: C_15  and  N_66
REMARK    5  A    between atoms: C_16  and  C_17
REMARK    6  A    between atoms: C_16  and  N_66
REMARK    7  A    between atoms: N_21  and  C_22
REMARK    8  A    between atoms: C_22  and  C_23
REMARK    9  A    between atoms: C_29  and  N_66
REMARK                            x       y       z     vdW  Elec       q    Type
REMARK                         _______ _______ _______ _____ _____    ______ ____
ROOT
ATOM      1  N   UNL     1      -1.717  -0.919  -1.330  0.00  0.00    +0.389 N 
ATOM      2  H   UNL     1      -1.623   0.046  -1.665  0.00  0.00    -0.080 HD
ENDROOT
BRANCH   1   3
ATOM      3  C   UNL     1      -0.640  -1.740  -1.924  0.00  0.00    -0.068 C 
ATOM      4  C   UNL     1      -0.399  -1.266  -3.359  0.00  0.00    -0.015 C 
ATOM      5  C   UNL     1       0.725  -2.093  -3.987  0.00  0.00    -0.002 C 
ATOM      6  C   UNL     1       0.326  -3.570  -3.998  0.00  0.00    -0.000 C 
ATOM      7  C   UNL     1       0.085  -4.044  -2.563  0.00  0.00    -0.002 C 
ATOM      8  C   UNL     1      -1.039  -3.217  -1.935  0.00  0.00    -0.015 C 
ENDBRANCH   1   3
BRANCH   1   9
ATOM      9  C   UNL     1      -1.605  -0.929   0.143  0.00  0.00    -0.037 C 
BRANCH   9  16
ATOM     10  C   UNL     1       4.104   4.194   2.330  0.00  0.00    +0.044 C 
ATOM     11  C   UNL     1       2.881   3.409   1.934  0.00  0.00    -0.046 A 
ATOM     12  C   UNL     1       1.648   4.045   1.865  0.00  0.00    +0.004 A 
ATOM     13  C   UNL     1       0.527   3.351   1.508  0.00  0.00    +0.010 A 
ATOM     14  C   UNL     1       0.621   1.988   1.208  0.00  0.00    -0.001 A 
ATOM     15  C   UNL     1      -0.561   1.214   0.822  0.00  0.00    +0.017 A 
ATOM     16  C   UNL     1      -0.409  -0.104   0.544  0.00  0.00    +0.001 A 
ATOM     17  C   UNL     1       0.864  -0.707   0.628  0.00  0.00    +0.251 A 
ATOM     18  O   UNL     1       0.978  -1.893   0.373  0.00  0.00    -0.268 OA
ATOM     19  N   UNL     1       1.955  -0.004   0.982  0.00  0.00    -0.322 N 
ATOM     20  H   UNL     1       2.815  -0.450   1.030  0.00  0.00    +0.169 HD
ATOM     21  C   UNL     1       1.868   1.339   1.277  0.00  0.00    +0.052 A 
ATOM     22  C   UNL     1       2.996   2.066   1.643  0.00  0.00    -0.024 A 
ATOM     23  C   UNL     1       4.340   1.388   1.723  0.00  0.00    +0.046 C 
ENDBRANCH   9  16
ENDBRANCH   1   9
BRANCH   1  24
ATOM     24  C   UNL     1      -3.037  -1.444  -1.740  0.00  0.00    +0.001 C 
BRANCH  24  25
ATOM     25  C   UNL     1      -3.196  -1.253  -3.227  0.00  0.00    +0.135 A 
ATOM     26  N   UNL     1      -2.998  -2.155  -4.157  0.00  0.00    -0.115 NA
ATOM     27  N   UNL     1      -3.238  -1.607  -5.299  0.00  0.00    -0.023 NA
ATOM     28  N   UNL     1      -3.583  -0.380  -5.120  0.00  0.00    -0.044 NA
ATOM     29  N   UNL     1      -3.574  -0.125  -3.856  0.00  0.00    -0.227 N 
BRANCH  29  30
ATOM     30  C   UNL     1      -3.910   1.153  -3.224  0.00  0.00    +0.182 C 
BRANCH  30  31
ATOM     31  C   UNL     1      -2.666   1.995  -3.101  0.00  0.00    -0.026 A 
ATOM     32  C   UNL     1      -1.883   1.909  -1.965  0.00  0.00    +0.005 A 
ATOM     33  C   UNL     1      -0.739   2.678  -1.855  0.00  0.00    +0.000 A 
ATOM     34  C   UNL     1      -0.384   3.540  -2.876  0.00  0.00    +0.000 A 
ATOM     35  C   UNL     1      -1.171   3.630  -4.009  0.00  0.00    +0.000 A 
ATOM     36  C   UNL     1      -2.312   2.857  -4.122  0.00  0.00    +0.005 A 
ENDBRANCH  30  31
ENDBRANCH  29  30
ENDBRANCH  24  25
ENDBRANCH   1  24
TORSDOF 7
