REMARK  Name = ZINC22525156
REMARK  14 active torsions:
REMARK  status: ('A' for Active; 'I' for Inactive)
REMARK    1  A    between atoms: C_1  and  C_2
REMARK    2  A    between atoms: C_5  and  C_8
REMARK    3  A    between atoms: C_10  and  N_19
REMARK    4  A    between atoms: N_11  and  C_13
REMARK    5  A    between atoms: C_20  and  C_22
REMARK    6  A    between atoms: C_22  and  O_23
REMARK    7  A    between atoms: O_23  and  C_24
REMARK    8  A    between atoms: C_24  and  C_26
REMARK    9  A    between atoms: C_26  and  C_28
REMARK   10  A    between atoms: C_26  and  N_29
REMARK   11  A    between atoms: C_30  and  C_32
REMARK   12  A    between atoms: C_32  and  C_33
REMARK   13  A    between atoms: C_32  and  C_34
REMARK   14  A    between atoms: C_32  and  C_35
REMARK                            x       y       z     vdW  Elec       q    Type
REMARK                         _______ _______ _______ _____ _____    ______ ____
ROOT
ATOM      1  C   UNL     1       1.348  -0.416  -0.013  0.00  0.00    +0.095 A 
ATOM      2  C   UNL     1       0.002  -0.004   0.002  0.00  0.00    +0.074 A 
ATOM      3  C   UNL     1      -0.016   1.355   0.009  0.00  0.00    +0.129 A 
ATOM      4  N   UNL     1       1.276   1.786  -0.001  0.00  0.00    -0.218 N 
ATOM      5  N   UNL     1       2.107   0.659  -0.015  0.00  0.00    -0.165 NA
ENDROOT
BRANCH   1  10
ATOM      6  C   UNL     1       3.210  -5.866  -0.059  0.00  0.00    +0.044 C 
ATOM      7  C   UNL     1       2.723  -4.440  -0.047  0.00  0.00    -0.050 A 
ATOM      8  C   UNL     1       3.635  -3.400  -0.050  0.00  0.00    +0.004 A 
ATOM      9  C   UNL     1       3.194  -2.092  -0.039  0.00  0.00    +0.010 A 
ATOM     10  C   UNL     1       1.828  -1.821  -0.025  0.00  0.00    +0.002 A 
ATOM     11  C   UNL     1       0.913  -2.872  -0.015  0.00  0.00    +0.010 A 
ATOM     12  C   UNL     1       1.365  -4.176  -0.032  0.00  0.00    +0.004 A 
ENDBRANCH   1  10
BRANCH   4  13
ATOM     13  C   UNL     1       1.698   3.121   0.003  0.00  0.00    +0.067 A 
ATOM     14  C   UNL     1       0.966   4.084  -0.679  0.00  0.00    +0.028 A 
ATOM     15  C   UNL     1       1.381   5.401  -0.669  0.00  0.00    +0.002 A 
ATOM     16  C   UNL     1       2.532   5.760   0.009  0.00  0.00    +0.000 A 
ATOM     17  C   UNL     1       3.267   4.802   0.684  0.00  0.00    +0.002 A 
ATOM     18  C   UNL     1       2.853   3.484   0.683  0.00  0.00    +0.028 A 
ENDBRANCH   4  13
BRANCH   3  19
ATOM     19  N   UNL     1      -1.153   2.162   0.019  0.00  0.00    -0.267 N 
ATOM     20  C   UNL     1      -2.379   1.601   0.023  0.00  0.00    +0.256 C 
ATOM     21  O   UNL     1      -2.492   0.393   0.018  0.00  0.00    -0.272 OA
ATOM     22  H   UNL     1      -1.050   3.257   0.025  0.00  0.00    +0.156 HD
BRANCH  20  23
ATOM     23  C   UNL     1      -3.607   2.473   0.034  0.00  0.00    +0.328 C 
BRANCH  23  24
ATOM     24  O   UNL     1      -4.795   1.637   0.036  0.00  0.00    -0.454 OA
BRANCH  24  25
ATOM     25  C   UNL     1      -5.981   2.264   0.045  0.00  0.00    +0.328 C 
ATOM     26  O   UNL     1      -6.026   3.472   0.051  0.00  0.00    -0.249 OA
BRANCH  25  27
ATOM     27  C   UNL     1      -7.257   1.463   0.048  0.00  0.00    +0.179 C 
ATOM     28  C   UNL     1      -7.299   0.574   1.293  0.00  0.00    +0.040 C 
BRANCH  27  29
ATOM     29  N   UNL     1      -8.405   2.372   0.058  0.00  0.00    -0.302 N 
ATOM     30  C   UNL     1      -9.593   1.964  -0.431  0.00  0.00    +0.219 C 
ATOM     31  O   UNL     1      -9.711   0.844  -0.880  0.00  0.00    -0.275 OA
ATOM     32  H   UNL     1      -8.298   3.389   0.466  0.00  0.00    +0.150 HD
BRANCH  30  33
ATOM     33  C   UNL     1     -10.774   2.900  -0.420  0.00  0.00    +0.039 C 
ATOM     34  C   UNL     1     -11.989   2.195  -1.027  0.00  0.00    +0.020 C 
ATOM     35  C   UNL     1     -11.089   3.308   1.021  0.00  0.00    +0.020 C 
ATOM     36  C   UNL     1     -10.445   4.147  -1.243  0.00  0.00    +0.020 C 
ENDBRANCH  30  33
ENDBRANCH  27  29
ENDBRANCH  25  27
ENDBRANCH  24  25
ENDBRANCH  23  24
ENDBRANCH  20  23
ENDBRANCH   3  19
TORSDOF 9
