REMARK  Name = ZINC20678423
REMARK  5 active torsions:
REMARK  status: ('A' for Active; 'I' for Inactive)
REMARK    1  A    between atoms: C_1  and  O_2
REMARK    2  A    between atoms: O_2  and  C_3
REMARK    3  A    between atoms: C_6  and  C_9
REMARK    4  A    between atoms: C_20  and  S_25
REMARK    5  A    between atoms: S_25  and  N_28
REMARK                            x       y       z     vdW  Elec       q    Type
REMARK                         _______ _______ _______ _____ _____    ______ ____
ROOT
ATOM      1  C   UNL     1      -7.557   1.976  -1.040  0.00  0.00    +0.105 C 
ATOM      2  C   UNL     1      -7.136   0.969   0.015  0.00  0.00    +0.029 C 
ATOM      3  C   UNL     1      -8.252   0.187   0.721  0.00  0.00    +0.033 C 
ATOM      4  C   UNL     1      -7.606  -0.066   2.100  0.00  0.00    -0.030 C 
ATOM      5  C   UNL     1      -6.679   0.850   2.354  0.00  0.00    -0.023 C 
ATOM      6  C   UNL     1      -6.647   1.817   1.227  0.00  0.00    +0.049 C 
ATOM      7  C   UNL     1      -5.402   2.506   0.824  0.00  0.00    -0.018 A 
ATOM      8  C   UNL     1      -4.371   2.747   1.706  0.00  0.00    +0.034 A 
ATOM      9  C   UNL     1      -3.239   3.422   1.289  0.00  0.00    +0.106 A 
ATOM     10  C   UNL     1      -3.141   3.865  -0.018  0.00  0.00    +0.030 A 
ATOM     11  C   UNL     1      -4.163   3.619  -0.912  0.00  0.00    +0.025 A 
ATOM     12  C   UNL     1      -5.302   2.936  -0.504  0.00  0.00    +0.031 A 
ATOM     13  N   UNL     1      -6.320   2.685  -1.433  0.00  0.00    -0.336 N 
ATOM     14  H   UNL     1      -6.186   3.025  -2.470  0.00  0.00    +0.147 HD
ENDROOT
BRANCH   1  18
ATOM     15  C   UNL     1     -10.381   4.734   0.597  0.00  0.00    +0.120 A 
ATOM     16  C   UNL     1      -9.023   5.013   0.655  0.00  0.00    +0.046 A 
ATOM     17  C   UNL     1      -8.113   4.120   0.125  0.00  0.00    +0.009 A 
ATOM     18  C   UNL     1      -8.553   2.949  -0.463  0.00  0.00    -0.027 A 
ATOM     19  C   UNL     1      -9.906   2.671  -0.527  0.00  0.00    +0.009 A 
ATOM     20  C   UNL     1     -10.821   3.559   0.006  0.00  0.00    +0.046 A 
BRANCH  15  22
ATOM     21  C   UNL     1     -12.661   5.259   1.022  0.00  0.00    +0.277 C 
ATOM     22  O   UNL     1     -11.279   5.611   1.118  0.00  0.00    -0.495 OA
ENDBRANCH  15  22
ENDBRANCH   1  18
BRANCH   9  23
ATOM     23  S   UNL     1      -1.925   3.725   2.423  0.00  0.00    +0.061 S 
ATOM     24  O   UNL     1      -2.496   3.695   3.724  0.00  0.00    -0.153 OA
ATOM     25  O   UNL     1      -1.214   4.852   1.929  0.00  0.00    -0.153 OA
BRANCH  23  26
ATOM     26  N   UNL     1      -0.891   2.436   2.330  0.00  0.00    -0.177 NA
ATOM     27  C   UNL     1      -1.079   1.240   3.220  0.00  0.00    +0.109 C 
ATOM     28  C   UNL     1      -1.530   0.132   2.382  0.00  0.00    +0.017 C 
ATOM     29  C   UNL     1      -0.576  -0.226   1.246  0.00  0.00    +0.001 C 
ATOM     30  C   UNL     1      -0.995   0.628   0.085  0.00  0.00    +0.001 C 
ATOM     31  C   UNL     1      -0.108   1.893  -0.016  0.00  0.00    +0.017 C 
ATOM     32  C   UNL     1       0.201   2.442   1.399  0.00  0.00    +0.109 C 
ENDBRANCH  23  26
ENDBRANCH   9  23
TORSDOF 4
