REMARK  Name = ZINC39482254
REMARK  12 active torsions:
REMARK  status: ('A' for Active; 'I' for Inactive)
REMARK    1  A    between atoms: C_1  and  C_2
REMARK    2  A    between atoms: C_2  and  C_3
REMARK    3  A    between atoms: C_2  and  S_4
REMARK    4  A    between atoms: S_4  and  C_7
REMARK    5  A    between atoms: N_10  and  C_14
REMARK    6  A    between atoms: C_16  and  C_30
REMARK    7  A    between atoms: C_19  and  N_20
REMARK    8  A    between atoms: N_20  and  S_21
REMARK    9  A    between atoms: S_21  and  S_24
REMARK   10  A    between atoms: S_24  and  C_27
REMARK   11  A    between atoms: C_27  and  C_28
REMARK   12  A    between atoms: C_27  and  C_29
REMARK                            x       y       z     vdW  Elec       q    Type
REMARK                         _______ _______ _______ _____ _____    ______ ____
ROOT
ATOM      1  C   UNL     1      -5.551   0.795  -3.064  0.00  0.00    +0.055 A 
ATOM      2  C   UNL     1      -5.538   2.178  -2.997  0.00  0.00    +0.033 A 
ATOM      3  C   UNL     1      -6.732   2.889  -3.102  0.00  0.00    -0.016 A 
ATOM      4  C   UNL     1      -7.935   2.208  -3.273  0.00  0.00    +0.010 A 
ATOM      5  C   UNL     1      -7.947   0.830  -3.340  0.00  0.00    +0.029 A 
ATOM      6  C   UNL     1      -6.759   0.118  -3.241  0.00  0.00    +0.097 A 
ENDROOT
BRANCH   1   9
ATOM      7  C   UNL     1      -2.397   0.068  -1.507  0.00  0.00    +0.215 C 
ATOM      8  C   UNL     1      -3.856  -0.375  -1.652  0.00  0.00    +0.147 C 
ATOM      9  N   UNL     1      -4.354   0.076  -2.960  0.00  0.00    -0.324 N 
ATOM     10  C   UNL     1      -3.561  -0.247  -4.156  0.00  0.00    +0.120 C 
ATOM     11  C   UNL     1      -2.113   0.191  -3.912  0.00  0.00    +0.101 C 
ATOM     12  N   UNL     1      -1.626  -0.409  -2.663  0.00  0.00    -0.293 NA
ATOM     13  H   UNL     1      -0.640  -0.235  -2.538  0.00  0.00    +0.124 HD
BRANCH   7  14
ATOM     14  S   UNL     1      -1.700  -0.632   0.015  0.00  0.00    -0.012 S 
ATOM     15  O   UNL     1      -1.658  -2.046  -0.118  0.00  0.00    -0.173 OA
ATOM     16  O   UNL     1      -2.381  -0.062   1.124  0.00  0.00    -0.173 OA
BRANCH  14  18
ATOM     17  C   UNL     1      -0.019   1.526   0.010  0.00  0.00    +0.031 C 
ATOM     18  C   UNL     1       0.002  -0.004   0.002  0.00  0.00    +0.126 C 
ATOM     19  C   UNL     1       0.742  -0.511   1.242  0.00  0.00    +0.031 C 
ENDBRANCH  14  18
ENDBRANCH   7  14
ENDBRANCH   1   9
BRANCH   3  20
ATOM     20  C   UNL     1      -6.721   4.371  -3.030  0.00  0.00    -0.018 A 
ATOM     21  C   UNL     1      -5.518   5.055  -2.864  0.00  0.00    +0.008 A 
ATOM     22  C   UNL     1      -5.514   6.433  -2.798  0.00  0.00    +0.001 A 
ATOM     23  C   UNL     1      -6.701   7.136  -2.896  0.00  0.00    +0.000 A 
ATOM     24  C   UNL     1      -7.898   6.463  -3.061  0.00  0.00    +0.001 A 
ATOM     25  C   UNL     1      -7.913   5.085  -3.135  0.00  0.00    +0.008 A 
ENDBRANCH   3  20
BRANCH   6  26
ATOM     26  N   UNL     1      -6.774  -1.279  -3.314  0.00  0.00    -0.080 NA
BRANCH  26  27
ATOM     27  S   UNL     1      -8.206  -2.082  -3.525  0.00  0.00    +0.187 S 
ATOM     28  O   UNL     1      -8.972  -1.862  -2.348  0.00  0.00    -0.130 OA
ATOM     29  O   UNL     1      -8.680  -1.735  -4.819  0.00  0.00    -0.130 OA
BRANCH  27  30
ATOM     30  S   UNL     1      -7.775  -4.086  -3.576  0.00  0.00    +0.106 S 
ATOM     31  O   UNL     1      -6.969  -4.254  -4.734  0.00  0.00    -0.151 OA
ATOM     32  O   UNL     1      -7.259  -4.379  -2.285  0.00  0.00    -0.151 OA
BRANCH  30  33
ATOM     33  C   UNL     1      -9.379  -4.902  -3.807  0.00  0.00    +0.150 C 
ATOM     34  C   UNL     1     -10.010  -4.425  -5.117  0.00  0.00    +0.033 C 
ATOM     35  C   UNL     1      -9.177  -6.417  -3.861  0.00  0.00    +0.033 C 
ENDBRANCH  30  33
ENDBRANCH  27  30
ENDBRANCH  26  27
ENDBRANCH   6  26
TORSDOF 8
