REMARK  Name = ZINC14884505
REMARK  8 active torsions:
REMARK  status: ('A' for Active; 'I' for Inactive)
REMARK    1  A    between atoms: C_1  and  C_2
REMARK    2  A    between atoms: C_4  and  C_7
REMARK    3  A    between atoms: C_7  and  C_9
REMARK    4  A    between atoms: C_7  and  N_10
REMARK    5  A    between atoms: C_21  and  N_56
REMARK    6  A    between atoms: C_25  and  C_26
REMARK    7  A    between atoms: C_25  and  N_56
REMARK    8  A    between atoms: C_26  and  C_27
REMARK                            x       y       z     vdW  Elec       q    Type
REMARK                         _______ _______ _______ _____ _____    ______ ____
ROOT
ATOM      1  N   UNL     1      -1.120   3.439  -0.558  0.00  0.00    -0.290 N 
ATOM      2  C   UNL     1      -0.235   4.289   0.024  0.00  0.00    +0.203 A 
ATOM      3  N   UNL     1      -0.028   5.484  -0.461  0.00  0.00    -0.230 NA
ATOM      4  C   UNL     1      -0.679   5.906  -1.542  0.00  0.00    +0.116 A 
ATOM      5  C   UNL     1      -1.612   5.098  -2.211  0.00  0.00    +0.076 A 
ATOM      6  C   UNL     1      -1.812   3.792  -1.657  0.00  0.00    +0.263 A 
ATOM      7  O   UNL     1      -2.600   3.015  -2.169  0.00  0.00    -0.267 OA
ATOM      8  C   UNL     1      -2.248   5.694  -3.385  0.00  0.00    -0.023 A 
ATOM      9  C   UNL     1      -1.881   6.952  -3.709  0.00  0.00    -0.006 A 
ATOM     10  S   UNL     1      -0.682   7.409  -2.485  0.00  0.00    -0.073 S 
ATOM     11  C   UNL     1      -2.380   7.777  -4.855  0.00  0.00    +0.027 C 
ATOM     12  C   UNL     1      -3.106   6.850  -5.839  0.00  0.00    -0.067 C 
ATOM     13  C   UNL     1      -4.072   5.959  -5.052  0.00  0.00    -0.011 C 
ATOM     14  C   UNL     1      -3.284   4.946  -4.220  0.00  0.00    +0.035 C 
ENDROOT
BRANCH  12  15
ATOM     15  N   UNL     1      -3.869   7.657  -6.810  0.00  0.00    +0.381 N 
ATOM     16  H   UNL     1      -4.234   8.494  -6.341  0.00  0.00    -0.086 HD
ATOM     17  H   UNL     1      -4.652   7.100  -7.173  0.00  0.00    -0.086 HD
BRANCH  15  18
ATOM     18  C   UNL     1      -3.002   8.065  -7.931  0.00  0.00    -0.077 C 
BRANCH  18  19
ATOM     19  C   UNL     1      -3.819   8.899  -8.919  0.00  0.00    +0.019 C 
BRANCH  19  20
ATOM     20  C   UNL     1      -2.940   9.320 -10.068  0.00  0.00    -0.014 A 
ATOM     21  C   UNL     1      -2.325  10.558 -10.050  0.00  0.00    +0.006 A 
ATOM     22  C   UNL     1      -1.513  10.942 -11.101  0.00  0.00    +0.000 A 
ATOM     23  C   UNL     1      -1.326  10.094 -12.177  0.00  0.00    +0.003 A 
ATOM     24  C   UNL     1      -1.944   8.859 -12.200  0.00  0.00    +0.038 A 
ATOM     25  C   UNL     1      -2.753   8.471 -11.145  0.00  0.00    +0.126 A 
ATOM     26  F   UNL     1      -3.359   7.263 -11.167  0.00  0.00    -0.205 F 
ENDBRANCH  19  20
ENDBRANCH  18  19
ENDBRANCH  15  18
ENDBRANCH  12  15
BRANCH   1  27
ATOM     27  C   UNL     1      -1.321   2.107   0.020  0.00  0.00    +0.137 C 
ATOM     28  C   UNL     1      -1.819   2.246   1.460  0.00  0.00    +0.038 C 
BRANCH  27  32
ATOM     29  C   UNL     1       3.678   1.907  -0.023  0.00  0.00    +0.073 C 
ATOM     30  C   UNL     1       2.277   1.350  -0.012  0.00  0.00    +0.076 A 
ATOM     31  N   UNL     1       1.133   1.995   0.002  0.00  0.00    -0.247 NA
ATOM     32  C   UNL     1      -0.016   1.353   0.009  0.00  0.00    +0.071 A 
ATOM     33  C   UNL     1       0.002  -0.004   0.002  0.00  0.00    +0.072 A 
ATOM     34  S   UNL     1       1.763  -0.308  -0.016  0.00  0.00    -0.080 S 
ENDBRANCH  27  32
ENDBRANCH   1  27
TORSDOF 6
