REMARK  Name = ZINC14523110
REMARK  6 active torsions:
REMARK  status: ('A' for Active; 'I' for Inactive)
REMARK    1  A    between atoms: C_3  and  C_6
REMARK    2  A    between atoms: C_6  and  C_8
REMARK    3  A    between atoms: C_6  and  N_24
REMARK    4  A    between atoms: C_8  and  C_9
REMARK    5  A    between atoms: N_11  and  C_12
REMARK    6  A    between atoms: C_15  and  N_18
REMARK                            x       y       z     vdW  Elec       q    Type
REMARK                         _______ _______ _______ _____ _____    ______ ____
ROOT
ATOM      1  C   UNL     1       4.778   0.038   0.038  0.00  0.00    +0.219 C 
ATOM      2  O   UNL     1       4.758   1.238   0.214  0.00  0.00    -0.275 OA
ATOM      3  N   UNL     1       3.622  -0.651  -0.038  0.00  0.00    -0.285 N 
ATOM      4  H   UNL     1       3.638  -1.618  -0.112  0.00  0.00    +0.155 HD
ENDROOT
BRANCH   3   5
ATOM      5  C   UNL     1       2.398   0.029  -0.009  0.00  0.00    +0.033 A 
ATOM      6  C   UNL     1       1.331  -0.429  -0.771  0.00  0.00    +0.025 A 
ATOM      7  C   UNL     1       0.125   0.241  -0.743  0.00  0.00    +0.025 A 
ATOM      8  C   UNL     1      -0.022   1.374   0.046  0.00  0.00    +0.036 A 
ATOM      9  C   UNL     1       1.045   1.833   0.807  0.00  0.00    +0.025 A 
ATOM     10  C   UNL     1       2.252   1.163   0.779  0.00  0.00    +0.025 A 
BRANCH   8  11
ATOM     11  N   UNL     1      -1.244   2.058   0.069  0.00  0.00    -0.271 N 
ATOM     12  C   UNL     1      -2.390   1.736  -0.790  0.00  0.00    +0.114 C 
ATOM     13  C   UNL     1      -3.308   2.978  -0.735  0.00  0.00    +0.029 C 
ATOM     14  C   UNL     1      -2.925   3.593   0.631  0.00  0.00    +0.098 C 
ATOM     15  C   UNL     1      -1.521   3.090   0.886  0.00  0.00    +0.220 C 
ATOM     16  O   UNL     1      -0.755   3.551   1.706  0.00  0.00    -0.275 OA
ENDBRANCH   8  11
ENDBRANCH   3   5
BRANCH   1  17
ATOM     17  C   UNL     1       6.095  -0.682  -0.095  0.00  0.00    +0.123 C 
BRANCH  17  18
ATOM     18  C   UNL     1       7.241   0.324   0.027  0.00  0.00    +0.120 C 
BRANCH  18  19
ATOM     19  N   UNL     1       7.194   1.258  -1.101  0.00  0.00    -0.292 N 
ATOM     20  C   UNL     1       7.733   2.487  -0.981  0.00  0.00    +0.298 C 
ATOM     21  O   UNL     1       8.259   2.821   0.064  0.00  0.00    -0.253 OA
ATOM     22  N   UNL     1       7.690   3.346  -2.018  0.00  0.00    -0.313 N 
ATOM     23  H   UNL     1       6.775   0.991  -1.934  0.00  0.00    +0.151 HD
ATOM     24  H   UNL     1       7.271   3.080  -2.852  0.00  0.00    +0.146 HD
ATOM     25  H   UNL     1       8.078   4.231  -1.932  0.00  0.00    +0.146 HD
ENDBRANCH  18  19
BRANCH  18  28
ATOM     26  C   UNL     1      10.531  -1.430   0.811  0.00  0.00    +0.008 A 
ATOM     27  C   UNL     1       9.356  -0.745   1.060  0.00  0.00    +0.013 A 
ATOM     28  C   UNL     1       8.557  -0.410   0.017  0.00  0.00    +0.010 A 
ATOM     29  S   UNL     1       9.472  -1.058  -1.372  0.00  0.00    -0.100 S 
ATOM     30  C   UNL     1      10.854  -1.737  -0.469  0.00  0.00    +0.045 A 
ENDBRANCH  18  28
ENDBRANCH  17  18
ENDBRANCH   1  17
TORSDOF 6
