REMARK  Name = ZINC39668722
REMARK  9 active torsions:
REMARK  status: ('A' for Active; 'I' for Inactive)
REMARK    1  A    between atoms: C_1  and  C_2
REMARK    2  A    between atoms: C_4  and  C_11
REMARK    3  A    between atoms: C_5  and  C_7
REMARK    4  A    between atoms: C_15  and  C_24
REMARK    5  A    between atoms: N_26  and  C_27
REMARK    6  A    between atoms: C_27  and  C_28
REMARK    7  A    between atoms: C_28  and  C_30
REMARK    8  A    between atoms: C_28  and  O_31
REMARK    9  A    between atoms: O_31  and  C_32
REMARK                            x       y       z     vdW  Elec       q    Type
REMARK                         _______ _______ _______ _____ _____    ______ ____
ROOT
ATOM      1  C   UNL     1      -1.385  -3.464   0.055  0.00  0.00    +0.250 C 
ATOM      2  O   UNL     1      -0.835  -4.543  -0.046  0.00  0.00    -0.270 OA
ATOM      3  N   UNL     1      -2.728  -3.398   0.154  0.00  0.00    -0.296 N 
ATOM      4  C   UNL     1      -3.580  -2.186   0.164  0.00  0.00    +0.121 C 
ATOM      5  C   UNL     1      -4.818  -2.573  -0.675  0.00  0.00    +0.100 C 
ATOM      6  C   UNL     1      -4.883  -4.107  -0.594  0.00  0.00    -0.004 C 
ATOM      7  C   UNL     1      -3.686  -4.523   0.272  0.00  0.00    +0.115 C 
ATOM      8  C   UNL     1      -4.755  -4.716  -1.988  0.00  0.00    -0.010 C 
ATOM      9  C   UNL     1      -4.880  -6.239  -1.887  0.00  0.00    -0.082 C 
ATOM     10  N   UNL     1      -6.178  -6.587  -1.297  0.00  0.00    +0.379 N 
ATOM     11  C   UNL     1      -6.256  -6.077   0.077  0.00  0.00    -0.082 C 
ATOM     12  C   UNL     1      -6.189  -4.547   0.060  0.00  0.00    -0.010 C 
ATOM     13  H   UNL     1      -6.917  -6.179  -1.848  0.00  0.00    -0.086 HD
ATOM     14  H   UNL     1      -6.283  -7.591  -1.288  0.00  0.00    -0.086 HD
ENDROOT
BRANCH   1  18
ATOM     15  C   UNL     1       0.166   1.328   0.871  0.00  0.00    +0.086 C 
ATOM     16  C   UNL     1       0.082  -0.113   0.439  0.00  0.00    +0.103 A 
ATOM     17  C   UNL     1      -0.950  -0.938   0.674  0.00  0.00    +0.058 A 
ATOM     18  C   UNL     1      -0.584  -2.227   0.070  0.00  0.00    +0.087 A 
ATOM     19  C   UNL     1       0.652  -2.039  -0.475  0.00  0.00    +0.220 A 
ATOM     20  O   UNL     1       1.026  -0.775  -0.248  0.00  0.00    -0.455 OA
BRANCH  19  21
ATOM     21  C   UNL     1       1.458  -3.077  -1.213  0.00  0.00    +0.451 C 
ATOM     22  F   UNL     1       1.150  -3.025  -2.576  0.00  0.00    -0.163 F 
ATOM     23  F   UNL     1       2.822  -2.823  -1.033  0.00  0.00    -0.163 F 
ATOM     24  F   UNL     1       1.150  -4.347  -0.714  0.00  0.00    -0.163 F 
ENDBRANCH  19  21
ENDBRANCH   1  18
BRANCH   5  25
ATOM     25  C   UNL     1      -6.063  -1.961  -0.086  0.00  0.00    +0.218 C 
ATOM     26  O   UNL     1      -6.101  -1.680   1.093  0.00  0.00    -0.275 OA
ATOM     27  N   UNL     1      -7.134  -1.726  -0.870  0.00  0.00    -0.312 N 
ATOM     28  H   UNL     1      -7.104  -1.951  -1.813  0.00  0.00    +0.149 HD
BRANCH  27  29
ATOM     29  C   UNL     1      -8.344  -1.131  -0.297  0.00  0.00    +0.148 C 
BRANCH  29  30
ATOM     30  C   UNL     1      -9.401  -0.972  -1.392  0.00  0.00    +0.187 C 
ATOM     31  C   UNL     1     -10.617  -0.237  -0.823  0.00  0.00    +0.053 C 
BRANCH  30  32
ATOM     32  O   UNL     1      -9.800  -2.261  -1.861  0.00  0.00    -0.486 OA
BRANCH  32  33
ATOM     33  C   UNL     1     -10.308  -2.330  -3.119  0.00  0.00    +0.139 A 
ATOM     34  C   UNL     1     -10.329  -1.203  -3.935  0.00  0.00    +0.049 A 
ATOM     35  C   UNL     1     -10.857  -1.323  -5.210  0.00  0.00    +0.023 A 
ATOM     36  C   UNL     1     -11.341  -2.548  -5.628  0.00  0.00    +0.111 A 
ATOM     37  N   UNL     1     -11.306  -3.598  -4.830  0.00  0.00    -0.260 NA
ATOM     38  C   UNL     1     -10.807  -3.527  -3.611  0.00  0.00    +0.156 A 
ENDBRANCH  32  33
ENDBRANCH  30  32
ENDBRANCH  29  30
ENDBRANCH  27  29
ENDBRANCH   5  25
TORSDOF 7
