REMARK  Name = ZINC59188281
REMARK  13 active torsions:
REMARK  status: ('A' for Active; 'I' for Inactive)
REMARK    1  A    between atoms: C_1  and  C_2
REMARK    2  A    between atoms: C_2  and  C_3
REMARK    3  A    between atoms: C_7  and  C_30
REMARK    4  A    between atoms: C_8  and  N_9
REMARK    5  A    between atoms: N_9  and  C_10
REMARK    6  A    between atoms: C_10  and  N_12
REMARK    7  A    between atoms: N_12  and  C_13
REMARK    8  A    between atoms: N_12  and  C_20
REMARK    9  A    between atoms: C_13  and  C_14
REMARK   10  A    between atoms: C_22  and  C_28
REMARK   11  A    between atoms: C_22  and  C_29
REMARK   12  A    between atoms: C_24  and  C_26
REMARK   13  A    between atoms: C_24  and  C_27
REMARK                            x       y       z     vdW  Elec       q    Type
REMARK                         _______ _______ _______ _____ _____    ______ ____
ROOT
ATOM      1  N   UNL     1      -2.341  -0.390  -3.805  0.00  0.00    -0.305 N 
ENDROOT
BRANCH   1   2
ATOM      2  C   UNL     1      -1.356   0.699  -3.775  0.00  0.00    +0.073 C 
ATOM      3  C   UNL     1      -0.009   0.145  -3.308  0.00  0.00    +0.009 C 
ATOM      4  C   UNL     1       1.025   1.270  -3.260  0.00  0.00    -0.072 C 
ATOM      5  N   UNL     1       0.574   2.394  -2.453  0.00  0.00    +0.386 N 
ATOM      6  C   UNL     1      -0.780   2.880  -2.669  0.00  0.00    -0.072 C 
ATOM      7  C   UNL     1      -1.810   1.762  -2.775  0.00  0.00    +0.009 C 
ATOM      8  C   UNL     1      -1.164   3.742  -1.442  0.00  0.00    -0.010 C 
ATOM      9  C   UNL     1      -0.866   3.789  -3.898  0.00  0.00    -0.010 C 
ATOM     10  C   UNL     1       1.410   1.695  -4.676  0.00  0.00    -0.010 C 
ATOM     11  C   UNL     1       2.296   0.696  -2.591  0.00  0.00    -0.010 C 
ATOM     12  H   UNL     1       0.672   2.141  -1.467  0.00  0.00    -0.084 HD
ATOM     13  H   UNL     1       1.222   3.172  -2.596  0.00  0.00    -0.084 HD
ENDBRANCH   1   2
BRANCH   1  14
ATOM     14  C   UNL     1      -2.862  -0.860  -2.654  0.00  0.00    +0.138 C 
ATOM     15  S   UNL     1      -4.131  -2.008  -2.695  0.00  0.00    -0.018 S 
BRANCH  14  16
ATOM     16  N   UNL     1      -2.383  -0.426  -1.471  0.00  0.00    -0.296 N 
ATOM     17  H   UNL     1      -2.877   0.235  -0.961  0.00  0.00    +0.154 HD
BRANCH  16  23
ATOM     18  C   UNL     1      -0.481  -0.235   0.005  0.00  0.00    -0.026 A 
ATOM     19  C   UNL     1       0.710  -0.736   0.493  0.00  0.00    +0.005 A 
ATOM     20  C   UNL     1       1.215  -1.924  -0.002  0.00  0.00    +0.001 A 
ATOM     21  C   UNL     1       0.531  -2.614  -0.986  0.00  0.00    +0.005 A 
ATOM     22  C   UNL     1      -0.660  -2.118  -1.478  0.00  0.00    -0.029 A 
ATOM     23  C   UNL     1      -1.174  -0.928  -0.980  0.00  0.00    +0.039 A 
ATOM     24  C   UNL     1      -1.405  -2.870  -2.551  0.00  0.00    +0.045 C 
BRANCH  18  26
ATOM     25  C   UNL     1      -2.031   0.763   1.663  0.00  0.00    +0.009 C 
ATOM     26  C   UNL     1      -1.032   1.060   0.544  0.00  0.00    +0.033 C 
ENDBRANCH  18  26
ENDBRANCH  16  23
ENDBRANCH  14  16
ENDBRANCH   1  14
BRANCH   1  27
ATOM     27  C   UNL     1      -2.757  -0.966  -5.086  0.00  0.00    +0.143 C 
BRANCH  27  28
ATOM     28  C   UNL     1      -3.951  -0.211  -5.612  0.00  0.00    -0.012 A 
ATOM     29  C   UNL     1      -5.237  -0.608  -5.277  0.00  0.00    +0.008 A 
ATOM     30  C   UNL     1      -6.304   0.116  -5.784  0.00  0.00    +0.020 A 
ATOM     31  C   UNL     1      -6.054   1.203  -6.601  0.00  0.00    +0.111 A 
ATOM     32  N   UNL     1      -4.817   1.552  -6.899  0.00  0.00    -0.263 NA
ATOM     33  C   UNL     1      -3.778   0.890  -6.430  0.00  0.00    +0.115 A 
ENDBRANCH  27  28
ENDBRANCH   1  27
TORSDOF 7
