REMARK  Name = ZINC04953113
REMARK  4 active torsions:
REMARK  status: ('A' for Active; 'I' for Inactive)
REMARK    1  A    between atoms: C_1  and  C_2
REMARK    2  A    between atoms: C_5  and  C_8
REMARK    3  A    between atoms: C_11  and  C_26
REMARK    4  A    between atoms: C_16  and  C_18
REMARK                            x       y       z     vdW  Elec       q    Type
REMARK                         _______ _______ _______ _____ _____    ______ ____
ROOT
ATOM      1  C   UNL     1       0.059  -4.275  -0.021  0.00  0.00    +0.104 C 
ATOM      2  C   UNL     1      -1.352  -4.810   0.243  0.00  0.00    +0.063 C 
ATOM      3  C   UNL     1      -1.881  -4.253   1.571  0.00  0.00    +0.215 C 
ATOM      4  N   UNL     1      -0.870  -4.466   2.610  0.00  0.00    -0.238 N 
ATOM      5  C   UNL     1       0.449  -4.706   2.347  0.00  0.00    +0.119 A 
ATOM      6  C   UNL     1       1.091  -4.855   3.522  0.00  0.00    +0.078 A 
ATOM      7  C   UNL     1       0.137  -4.700   4.553  0.00  0.00    +0.149 A 
ATOM      8  N   UNL     1      -1.037  -4.466   3.994  0.00  0.00    -0.164 NA
ATOM      9  N   UNL     1       0.959  -4.765   1.042  0.00  0.00    -0.322 N 
ATOM     10  H   UNL     1       1.845  -5.109   0.848  0.00  0.00    +0.148 HD
ENDROOT
BRANCH   1  15
ATOM     11  C   UNL     1      -0.018   1.503   0.010  0.00  0.00    +0.044 C 
ATOM     12  C   UNL     1       0.002  -0.004   0.002  0.00  0.00    -0.050 A 
ATOM     13  C   UNL     1       0.006  -0.689  -1.199  0.00  0.00    +0.004 A 
ATOM     14  C   UNL     1       0.025  -2.071  -1.206  0.00  0.00    +0.006 A 
ATOM     15  C   UNL     1       0.040  -2.768  -0.013  0.00  0.00    -0.027 A 
ATOM     16  C   UNL     1       0.037  -2.084   1.188  0.00  0.00    +0.006 A 
ATOM     17  C   UNL     1       0.023  -0.702   1.195  0.00  0.00    +0.004 A 
ENDBRANCH   1  15
BRANCH   7  18
ATOM     18  C   UNL     1       0.406  -4.785   6.003  0.00  0.00    +0.267 C 
ATOM     19  O   UNL     1       1.533  -5.006   6.400  0.00  0.00    -0.268 OA
ATOM     20  N   UNL     1      -0.599  -4.616   6.885  0.00  0.00    -0.296 N 
ATOM     21  C   UNL     1      -2.004  -4.351   6.544  0.00  0.00    +0.108 C 
ATOM     22  C   UNL     1      -2.779  -4.207   7.870  0.00  0.00    +0.020 C 
ATOM     23  C   UNL     1      -1.665  -3.837   8.885  0.00  0.00    +0.020 C 
ATOM     24  C   UNL     1      -0.472  -4.675   8.353  0.00  0.00    +0.108 C 
ENDBRANCH   7  18
BRANCH   3  25
ATOM     25  C   UNL     1      -3.172  -4.979   1.952  0.00  0.00    +0.412 C 
ATOM     26  F   UNL     1      -2.915  -6.347   2.091  0.00  0.00    -0.168 F 
ATOM     27  F   UNL     1      -3.653  -4.470   3.164  0.00  0.00    -0.168 F 
ATOM     28  F   UNL     1      -4.130  -4.784   0.952  0.00  0.00    -0.168 F 
ENDBRANCH   3  25
TORSDOF 3
