REMARK  Name = ZINC18196095
REMARK  8 active torsions:
REMARK  status: ('A' for Active; 'I' for Inactive)
REMARK    1  A    between atoms: C_1  and  C_2
REMARK    2  A    between atoms: C_5  and  N_8
REMARK    3  A    between atoms: C_11  and  C_13
REMARK    4  A    between atoms: C_14  and  C_24
REMARK    5  A    between atoms: C_26  and  N_33
REMARK    6  A    between atoms: C_27  and  O_32
REMARK    7  A    between atoms: C_28  and  O_30
REMARK    8  A    between atoms: O_30  and  C_31
REMARK                            x       y       z     vdW  Elec       q    Type
REMARK                         _______ _______ _______ _____ _____    ______ ____
ROOT
ATOM      1  N   UNL     1       0.057  -4.172  -0.021  0.00  0.00    -0.218 N 
ATOM      2  C   UNL     1       0.692  -4.965   0.866  0.00  0.00    +0.131 A 
ATOM      3  C   UNL     1       0.455  -6.266   0.506  0.00  0.00    +0.027 A 
ATOM      4  C   UNL     1      -0.340  -6.254  -0.632  0.00  0.00    +0.066 A 
ATOM      5  N   UNL     1      -0.587  -5.005  -0.950  0.00  0.00    -0.170 NA
ATOM      6  C   UNL     1      -0.840  -7.468  -1.372  0.00  0.00    +0.068 C 
ATOM      7  C   UNL     1       1.006  -7.429   1.281  0.00  0.00    +0.089 C 
ATOM      8  C   UNL     1       2.078  -6.944   2.234  0.00  0.00    +0.024 C 
ATOM      9  C   UNL     1       2.255  -5.636   2.521  0.00  0.00    +0.017 C 
ATOM     10  N   UNL     1       1.472  -4.651   1.972  0.00  0.00    -0.302 N 
ATOM     11  C   UNL     1       3.348  -5.192   3.466  0.00  0.00    +0.051 C 
ATOM     12  C   UNL     1       3.596  -6.276   4.515  0.00  0.00    +0.014 C 
ATOM     13  C   UNL     1       3.985  -7.569   3.789  0.00  0.00    +0.080 C 
ATOM     14  C   UNL     1       2.894  -7.928   2.820  0.00  0.00    +0.162 C 
ATOM     15  O   UNL     1       2.713  -9.096   2.536  0.00  0.00    -0.292 OA
ATOM     16  H   UNL     1       1.463  -3.757   2.348  0.00  0.00    +0.153 HD
ENDROOT
BRANCH   1  21
ATOM     17  C   UNL     1      -0.018   1.503   0.010  0.00  0.00    +0.044 C 
ATOM     18  C   UNL     1       0.002  -0.004   0.002  0.00  0.00    -0.050 A 
ATOM     19  C   UNL     1       0.006  -0.688  -1.200  0.00  0.00    +0.005 A 
ATOM     20  C   UNL     1       0.024  -2.068  -1.211  0.00  0.00    +0.028 A 
ATOM     21  C   UNL     1       0.039  -2.771  -0.013  0.00  0.00    +0.067 A 
ATOM     22  C   UNL     1       0.036  -2.082   1.192  0.00  0.00    +0.028 A 
ATOM     23  C   UNL     1       0.023  -0.700   1.196  0.00  0.00    +0.005 A 
ENDBRANCH   1  21
BRANCH   7  24
ATOM     24  C   UNL     1      -0.104  -8.079   2.066  0.00  0.00    -0.029 A 
ATOM     25  C   UNL     1      -0.807  -7.347   3.004  0.00  0.00    +0.041 A 
ATOM     26  C   UNL     1      -1.826  -7.939   3.727  0.00  0.00    +0.171 A 
ATOM     27  C   UNL     1      -2.146  -9.270   3.510  0.00  0.00    +0.189 A 
ATOM     28  C   UNL     1      -1.439 -10.007   2.565  0.00  0.00    +0.164 A 
ATOM     29  C   UNL     1      -0.421  -9.406   1.841  0.00  0.00    +0.054 A 
BRANCH  26  30
ATOM     30  N   UNL     1      -2.575  -7.152   4.731  0.00  0.00    +0.060 N 
ATOM     31  O   UNL     1      -2.296  -5.991   4.920  0.00  0.00    -0.126 OA
ATOM     32  O   UNL     1      -3.467  -7.670   5.363  0.00  0.00    -0.126 OA
ENDBRANCH  26  30
BRANCH  28  33
ATOM     33  O   UNL     1      -1.749 -11.313   2.349  0.00  0.00    -0.491 OA
ATOM     34  C   UNL     1      -0.981 -12.008   1.364  0.00  0.00    +0.277 C 
ENDBRANCH  28  33
BRANCH  27  35
ATOM     35  O   UNL     1      -3.148  -9.854   4.220  0.00  0.00    -0.502 OA
ATOM     36  H   UNL     1      -4.018  -9.783   3.804  0.00  0.00    +0.292 HD
ENDBRANCH  27  35
ENDBRANCH   7  24
TORSDOF 5
