REMARK  Name = ZINC22323708
REMARK  9 active torsions:
REMARK  status: ('A' for Active; 'I' for Inactive)
REMARK    1  A    between atoms: C_1  and  C_2
REMARK    2  A    between atoms: C_5  and  S_8
REMARK    3  A    between atoms: S_8  and  N_11
REMARK    4  A    between atoms: N_11  and  C_12
REMARK    5  A    between atoms: N_11  and  C_29
REMARK    6  A    between atoms: C_12  and  C_13
REMARK    7  A    between atoms: N_15  and  C_16
REMARK    8  A    between atoms: C_16  and  C_17
REMARK    9  A    between atoms: C_21  and  N_23
REMARK                            x       y       z     vdW  Elec       q    Type
REMARK                         _______ _______ _______ _____ _____    ______ ____
ROOT
ATOM      1  N   UNL     1       1.234  -5.984  -3.011  0.00  0.00    -0.191 N 
ENDROOT
BRANCH   1   2
ATOM      2  C   UNL     1       2.452  -6.665  -2.921  0.00  0.00    +0.087 A 
ATOM      3  C   UNL     1       3.027  -6.901  -1.680  0.00  0.00    +0.027 A 
ATOM      4  C   UNL     1       4.228  -7.578  -1.593  0.00  0.00    +0.002 A 
ATOM      5  C   UNL     1       4.864  -8.012  -2.742  0.00  0.00    +0.003 A 
ATOM      6  C   UNL     1       4.298  -7.775  -3.981  0.00  0.00    +0.040 A 
ATOM      7  C   UNL     1       3.093  -7.102  -4.075  0.00  0.00    +0.146 A 
ATOM      8  F   UNL     1       2.541  -6.870  -5.286  0.00  0.00    -0.203 F 
ENDBRANCH   1   2
BRANCH   1   9
ATOM      9  S   UNL     1      -0.184  -6.832  -3.108  0.00  0.00    +0.075 S 
ATOM     10  O   UNL     1       0.065  -8.107  -2.531  0.00  0.00    -0.150 OA
ATOM     11  O   UNL     1      -1.208  -5.969  -2.633  0.00  0.00    -0.150 OA
BRANCH   9  16
ATOM     12  C   UNL     1      -1.304  -7.777  -8.961  0.00  0.00    +0.044 C 
ATOM     13  C   UNL     1      -1.024  -7.541  -7.499  0.00  0.00    -0.050 A 
ATOM     14  C   UNL     1      -0.284  -8.461  -6.780  0.00  0.00    +0.005 A 
ATOM     15  C   UNL     1      -0.027  -8.244  -5.439  0.00  0.00    +0.029 A 
ATOM     16  C   UNL     1      -0.511  -7.108  -4.817  0.00  0.00    +0.109 A 
ATOM     17  C   UNL     1      -1.256  -6.191  -5.535  0.00  0.00    +0.029 A 
ATOM     18  C   UNL     1      -1.508  -6.406  -6.877  0.00  0.00    +0.005 A 
ENDBRANCH   9  16
ENDBRANCH   1   9
BRANCH   1  19
ATOM     19  C   UNL     1       1.213  -4.519  -3.021  0.00  0.00    +0.227 C 
BRANCH  19  20
ATOM     20  C   UNL     1       1.229  -4.007  -1.603  0.00  0.00    +0.232 C 
ATOM     21  O   UNL     1       1.255  -4.789  -0.676  0.00  0.00    -0.274 OA
ATOM     22  N   UNL     1       1.214  -2.681  -1.365  0.00  0.00    -0.310 N 
ATOM     23  H   UNL     1       1.190  -1.971  -2.205  0.00  0.00    +0.149 HD
BRANCH  22  24
ATOM     24  C   UNL     1       1.230  -2.184   0.013  0.00  0.00    +0.139 C 
BRANCH  24  25
ATOM     25  C   UNL     1       1.208  -0.677   0.004  0.00  0.00    -0.029 A 
ATOM     26  C   UNL     1       2.396   0.031  -0.021  0.00  0.00    +0.005 A 
ATOM     27  C   UNL     1       2.381   1.413  -0.030  0.00  0.00    +0.002 A 
ATOM     28  C   UNL     1       1.178   2.092  -0.015  0.00  0.00    +0.023 A 
ATOM     29  C   UNL     1      -0.017   1.385   0.010  0.00  0.00    +0.037 A 
ATOM     30  C   UNL     1       0.002  -0.004   0.019  0.00  0.00    +0.028 A 
BRANCH  29  31
ATOM     31  N   UNL     1      -1.237   2.069   0.019  0.00  0.00    -0.271 N 
ATOM     32  C   UNL     1      -2.550   1.422  -0.084  0.00  0.00    +0.114 C 
ATOM     33  C   UNL     1      -3.536   2.549  -0.467  0.00  0.00    +0.029 C 
ATOM     34  C   UNL     1      -2.817   3.799   0.090  0.00  0.00    +0.098 C 
ATOM     35  C   UNL     1      -1.357   3.404   0.130  0.00  0.00    +0.220 C 
ATOM     36  O   UNL     1      -0.430   4.178   0.241  0.00  0.00    -0.275 OA
ENDBRANCH  29  31
ENDBRANCH  24  25
ENDBRANCH  22  24
ENDBRANCH  19  20
ENDBRANCH   1  19
TORSDOF 8
