REMARK  Name = ZINC08636933
REMARK  8 active torsions:
REMARK  status: ('A' for Active; 'I' for Inactive)
REMARK    1  A    between atoms: C_1  and  C_2
REMARK    2  A    between atoms: C_4  and  C_33
REMARK    3  A    between atoms: C_8  and  N_32
REMARK    4  A    between atoms: C_9  and  C_11
REMARK    5  A    between atoms: N_13  and  N_14
REMARK    6  A    between atoms: C_15  and  C_16
REMARK    7  A    between atoms: N_18  and  C_26
REMARK    8  A    between atoms: C_20  and  C_21
REMARK                            x       y       z     vdW  Elec       q    Type
REMARK                         _______ _______ _______ _____ _____    ______ ____
ROOT
ATOM      1  C   UNL     1       4.812  -0.819   4.322  0.00  0.00    +0.272 C 
ATOM      2  O   UNL     1       3.965  -1.617   3.960  0.00  0.00    -0.268 OA
ATOM      3  N   UNL     1       4.714   0.476   3.963  0.00  0.00    -0.202 N 
ATOM      4  H   UNL     1       5.388   1.112   4.251  0.00  0.00    +0.178 HD
ENDROOT
BRANCH   1  13
ATOM      5  C   UNL     1       7.085  -5.219   6.792  0.00  0.00    +0.044 C 
ATOM      6  C   UNL     1       7.835  -3.925   6.978  0.00  0.00    -0.037 A 
ATOM      7  C   UNL     1       8.995  -3.890   7.716  0.00  0.00    +0.027 A 
ATOM      8  C   UNL     1       9.682  -2.698   7.887  0.00  0.00    +0.040 A 
ATOM      9  N   UNL     1       9.234  -1.584   7.342  0.00  0.00    -0.245 NA
ATOM     10  C   UNL     1       8.130  -1.566   6.627  0.00  0.00    +0.111 A 
ATOM     11  C   UNL     1       7.356  -2.726   6.395  0.00  0.00    +0.032 A 
ATOM     12  C   UNL     1       6.163  -2.522   5.587  0.00  0.00    +0.054 A 
ATOM     13  C   UNL     1       5.899  -1.253   5.120  0.00  0.00    +0.099 A 
ATOM     14  S   UNL     1       7.249  -0.286   5.768  0.00  0.00    -0.062 S 
ATOM     15  C   UNL     1      10.951  -2.676   8.699  0.00  0.00    +0.065 C 
BRANCH  12  16
ATOM     16  N   UNL     1       5.314  -3.579   5.292  0.00  0.00    -0.356 N 
ATOM     17  H   UNL     1       4.378  -3.411   5.101  0.00  0.00    +0.142 HD
ATOM     18  H   UNL     1       5.657  -4.487   5.276  0.00  0.00    +0.142 HD
ENDBRANCH  12  16
ENDBRANCH   1  13
BRANCH   3  19
ATOM     19  N   UNL     1       3.639   0.905   3.174  0.00  0.00    -0.187 NA
ATOM     20  C   UNL     1       3.545   2.153   2.828  0.00  0.00    +0.142 C 
BRANCH  20  21
ATOM     21  C   UNL     1       2.414   2.604   1.997  0.00  0.00    +0.041 A 
ATOM     22  C   UNL     1       2.180   3.877   1.557  0.00  0.00    +0.124 A 
ATOM     23  N   UNL     1       1.044   3.866   0.829  0.00  0.00    -0.239 N 
ATOM     24  N   UNL     1       0.529   2.567   0.788  0.00  0.00    -0.165 NA
ATOM     25  C   UNL     1       1.319   1.775   1.483  0.00  0.00    +0.108 A 
BRANCH  23  26
ATOM     26  C   UNL     1       0.473   4.983   0.207  0.00  0.00    +0.065 A 
ATOM     27  C   UNL     1       1.078   6.228   0.318  0.00  0.00    +0.028 A 
ATOM     28  C   UNL     1       0.514   7.326  -0.301  0.00  0.00    +0.002 A 
ATOM     29  C   UNL     1      -0.658   7.190  -1.022  0.00  0.00    +0.000 A 
ATOM     30  C   UNL     1      -1.266   5.952  -1.131  0.00  0.00    +0.002 A 
ATOM     31  C   UNL     1      -0.704   4.849  -0.519  0.00  0.00    +0.028 A 
ENDBRANCH  23  26
BRANCH  25  32
ATOM     32  C   UNL     1       1.139   0.325   1.698  0.00  0.00    +0.040 A 
ATOM     33  C   UNL     1      -0.020  -0.388   1.854  0.00  0.00    +0.018 A 
ATOM     34  C   UNL     1       0.061  -1.750   2.044  0.00  0.00    +0.008 A 
ATOM     35  C   UNL     1       1.282  -2.343   2.070  0.00  0.00    +0.046 A 
ATOM     36  S   UNL     1       2.377  -0.956   1.822  0.00  0.00    -0.095 S 
ENDBRANCH  25  32
ENDBRANCH  20  21
ENDBRANCH   3  19
TORSDOF 6
