REMARK  Name = ZINC20917792
REMARK  9 active torsions:
REMARK  status: ('A' for Active; 'I' for Inactive)
REMARK    1  A    between atoms: C_1  and  C_2
REMARK    2  A    between atoms: C_5  and  C_8
REMARK    3  A    between atoms: N_9  and  N_10
REMARK    4  A    between atoms: C_14  and  S_17
REMARK    5  A    between atoms: N_15  and  N_16
REMARK    6  A    between atoms: S_17  and  C_18
REMARK    7  A    between atoms: C_18  and  C_19
REMARK    8  A    between atoms: C_19  and  O_21
REMARK    9  A    between atoms: O_21  and  C_22
REMARK                            x       y       z     vdW  Elec       q    Type
REMARK                         _______ _______ _______ _____ _____    ______ ____
ROOT
ATOM      1  N   UNL     1      -2.939   1.589   0.046  0.00  0.00    -0.204 N 
ATOM      2  C   UNL     1      -2.081   1.760  -1.031  0.00  0.00    +0.254 A 
ATOM      3  N   UNL     1      -2.412   2.209  -2.217  0.00  0.00    -0.109 NA
ATOM      4  N   UNL     1      -1.258   2.229  -3.011  0.00  0.00    -0.119 NA
ATOM      5  C   UNL     1      -0.257   1.797  -2.281  0.00  0.00    +0.210 A 
ATOM      6  N   UNL     1      -0.741   1.490  -1.041  0.00  0.00    -0.211 N 
ATOM      7  H   UNL     1      -2.554   1.204   1.001  0.00  0.00    +0.177 HD
ENDROOT
BRANCH   6   8
ATOM      8  N   UNL     1      -0.012   1.005   0.008  0.00  0.00    -0.294 N 
ATOM      9  H   UNL     1       1.067   0.823  -0.110  0.00  0.00    +0.163 HD
ATOM     10  H   UNL     1      -0.503   0.796   0.969  0.00  0.00    +0.163 HD
ENDBRANCH   6   8
BRANCH   1  12
ATOM     11  C   UNL     1      -5.101   1.748   0.924  0.00  0.00    +0.138 C 
ATOM     12  N   UNL     1      -4.298   1.908  -0.084  0.00  0.00    -0.188 NA
BRANCH  11  17
ATOM     13  C   UNL     1     -10.676   3.055   0.391  0.00  0.00    +0.044 C 
ATOM     14  C   UNL     1      -9.215   2.712   0.531  0.00  0.00    -0.050 A 
ATOM     15  C   UNL     1      -8.733   2.228   1.734  0.00  0.00    +0.004 A 
ATOM     16  C   UNL     1      -7.397   1.912   1.869  0.00  0.00    +0.010 A 
ATOM     17  C   UNL     1      -6.530   2.083   0.787  0.00  0.00    -0.005 A 
ATOM     18  C   UNL     1      -7.023   2.578  -0.423  0.00  0.00    +0.010 A 
ATOM     19  C   UNL     1      -8.362   2.884  -0.545  0.00  0.00    +0.004 A 
ENDBRANCH  11  17
ENDBRANCH   1  12
BRANCH   5  20
ATOM     20  S   UNL     1       1.416   1.636  -2.809  0.00  0.00    -0.073 S 
BRANCH  20  21
ATOM     21  C   UNL     1       1.388   2.201  -4.533  0.00  0.00    +0.197 C 
BRANCH  21  22
ATOM     22  C   UNL     1       2.777   2.113  -5.112  0.00  0.00    +0.318 C 
ATOM     23  O   UNL     1       3.691   1.710  -4.433  0.00  0.00    -0.250 OA
BRANCH  22  24
ATOM     24  O   UNL     1       2.998   2.482  -6.384  0.00  0.00    -0.461 OA
BRANCH  24  25
ATOM     25  C   UNL     1       4.359   2.371  -6.876  0.00  0.00    +0.176 C 
ATOM     26  C   UNL     1       5.106   3.680  -6.611  0.00  0.00    +0.044 C 
ATOM     27  C   UNL     1       6.540   3.563  -7.128  0.00  0.00    +0.004 C 
ATOM     28  C   UNL     1       6.519   3.284  -8.633  0.00  0.00    +0.000 C 
ATOM     29  C   UNL     1       5.772   1.975  -8.898  0.00  0.00    +0.004 C 
ATOM     30  C   UNL     1       4.337   2.092  -8.380  0.00  0.00    +0.044 C 
ENDBRANCH  24  25
ENDBRANCH  22  24
ENDBRANCH  21  22
ENDBRANCH  20  21
ENDBRANCH   5  20
TORSDOF 8
