REMARK  Name = ZINC34900460
REMARK  7 active torsions:
REMARK  status: ('A' for Active; 'I' for Inactive)
REMARK    1  A    between atoms: C_1  and  C_2
REMARK    2  A    between atoms: C_7  and  C_8
REMARK    3  A    between atoms: N_10  and  C_11
REMARK    4  A    between atoms: C_17  and  N_19
REMARK    5  A    between atoms: C_20  and  C_22
REMARK    6  A    between atoms: C_29  and  C_31
REMARK    7  A    between atoms: C_31  and  C_32
REMARK                            x       y       z     vdW  Elec       q    Type
REMARK                         _______ _______ _______ _____ _____    ______ ____
ROOT
ATOM      1  N   UNL     1      -1.169  -1.336   5.873  0.00  0.00    -0.310 N 
ATOM      2  C   UNL     1      -1.559  -2.503   6.424  0.00  0.00    +0.218 C 
ATOM      3  O   UNL     1      -0.770  -3.165   7.063  0.00  0.00    -0.275 OA
ATOM      4  H   UNL     1      -1.801  -0.806   5.362  0.00  0.00    +0.149 HD
ENDROOT
BRANCH   2   5
ATOM      5  C   UNL     1      -2.976  -2.985   6.245  0.00  0.00    +0.092 C 
ATOM      6  C   UNL     1      -3.154  -4.325   6.962  0.00  0.00    +0.016 C 
ATOM      7  C   UNL     1      -4.601  -4.799   6.808  0.00  0.00    +0.020 C 
ATOM      8  C   UNL     1      -4.913  -5.001   5.322  0.00  0.00    +0.108 C 
ATOM      9  N   UNL     1      -4.605  -3.758   4.601  0.00  0.00    -0.300 N 
ATOM     10  C   UNL     1      -3.269  -3.166   4.752  0.00  0.00    +0.120 C 
ATOM     11  C   UNL     1      -5.531  -3.173   3.816  0.00  0.00    +0.220 C 
ATOM     12  O   UNL     1      -5.265  -2.147   3.227  0.00  0.00    -0.275 OA
BRANCH  11  13
ATOM     13  C   UNL     1      -6.897  -3.793   3.672  0.00  0.00    +0.138 C 
BRANCH  13  14
ATOM     14  C   UNL     1      -7.736  -2.949   2.747  0.00  0.00    -0.001 A 
ATOM     15  C   UNL     1      -7.874  -3.037   1.401  0.00  0.00    +0.011 A 
ATOM     16  C   UNL     1      -8.709  -2.146   0.753  0.00  0.00    +0.008 A 
ATOM     17  C   UNL     1      -9.367  -1.212   1.483  0.00  0.00    +0.045 A 
ATOM     18  S   UNL     1      -8.813  -1.581   3.140  0.00  0.00    -0.101 S 
ENDBRANCH  13  14
ENDBRANCH  11  13
ENDBRANCH   2   5
BRANCH   1  24
ATOM     19  C   UNL     1       0.578   0.067   4.894  0.00  0.00    +0.093 C 
ATOM     20  C   UNL     1       2.016   0.556   5.076  0.00  0.00    +0.024 C 
ATOM     21  C   UNL     1       2.134   1.311   6.401  0.00  0.00    +0.002 C 
ATOM     22  C   UNL     1       1.764   0.377   7.555  0.00  0.00    +0.002 C 
ATOM     23  C   UNL     1       0.326  -0.113   7.373  0.00  0.00    +0.024 C 
ATOM     24  C   UNL     1       0.207  -0.868   6.048  0.00  0.00    +0.093 C 
BRANCH  19  27
ATOM     25  C   UNL     1       0.242   0.021   2.481  0.00  0.00    +0.245 C 
ATOM     26  O   UNL     1       0.135   1.232   2.503  0.00  0.00    -0.270 OA
ATOM     27  N   UNL     1       0.465  -0.656   3.625  0.00  0.00    -0.307 N 
ATOM     28  H   UNL     1       0.551  -1.622   3.607  0.00  0.00    +0.149 HD
BRANCH  25  35
ATOM     29  C   UNL     1      -0.511   1.452   0.082  0.00  0.00    +0.044 C 
ATOM     30  C   UNL     1      -0.234  -0.028   0.036  0.00  0.00    -0.038 A 
ATOM     31  C   UNL     1      -0.334  -0.714  -1.157  0.00  0.00    +0.004 A 
ATOM     32  C   UNL     1      -0.080  -2.073  -1.200  0.00  0.00    +0.000 A 
ATOM     33  C   UNL     1       0.275  -2.754  -0.049  0.00  0.00    +0.001 A 
ATOM     34  C   UNL     1       0.378  -2.080   1.150  0.00  0.00    +0.013 A 
ATOM     35  C   UNL     1       0.128  -0.708   1.200  0.00  0.00    +0.040 A 
ENDBRANCH  25  35
ENDBRANCH  19  27
ENDBRANCH   1  24
TORSDOF 6
