REMARK  Name = ZINC28462993
REMARK  9 active torsions:
REMARK  status: ('A' for Active; 'I' for Inactive)
REMARK    1  A    between atoms: C_1  and  C_2
REMARK    2  A    between atoms: C_2  and  C_3
REMARK    3  A    between atoms: C_3  and  O_4
REMARK    4  A    between atoms: O_4  and  C_5
REMARK    5  A    between atoms: C_5  and  C_7
REMARK    6  A    between atoms: C_8  and  C_33
REMARK    7  A    between atoms: C_13  and  N_16
REMARK    8  A    between atoms: N_16  and  S_17
REMARK    9  A    between atoms: S_17  and  C_20
REMARK                            x       y       z     vdW  Elec       q    Type
REMARK                         _______ _______ _______ _____ _____    ______ ____
ROOT
ATOM      1  N   UNL     1      -0.070   1.487  -0.043  0.00  0.00    -0.216 N 
ATOM      2  H   UNL     1      -1.012   1.992   0.215  0.00  0.00    +0.174 HD
ENDROOT
BRANCH   1   9
ATOM      3  C   UNL     1      -1.865  -2.723  -2.163  0.00  0.00    +0.107 A 
ATOM      4  C   UNL     1      -1.323  -3.962  -2.007  0.00  0.00    +0.117 A 
ATOM      5  O   UNL     1      -0.249  -3.891  -1.212  0.00  0.00    -0.459 OA
ATOM      6  C   UNL     1      -0.023  -2.625  -0.803  0.00  0.00    +0.136 A 
ATOM      7  C   UNL     1      -1.016  -1.812  -1.369  0.00  0.00    +0.036 A 
ATOM      8  C   UNL     1      -1.036  -0.445  -1.112  0.00  0.00    +0.037 A 
ATOM      9  C   UNL     1      -0.061   0.112  -0.302  0.00  0.00    +0.049 A 
ATOM     10  C   UNL     1       0.925  -0.695   0.259  0.00  0.00    +0.028 A 
ATOM     11  C   UNL     1       0.945  -2.051   0.013  0.00  0.00    +0.049 A 
ATOM     12  C   UNL     1      -1.852  -5.224  -2.636  0.00  0.00    +0.087 C 
BRANCH   3  13
ATOM     13  C   UNL     1      -3.049  -2.366  -2.957  0.00  0.00    +0.343 C 
ATOM     14  O   UNL     1      -2.926  -2.056  -4.126  0.00  0.00    -0.245 OA
BRANCH  13  15
ATOM     15  O   UNL     1      -4.271  -2.382  -2.388  0.00  0.00    -0.461 OA
BRANCH  15  16
ATOM     16  C   UNL     1      -5.395  -2.018  -3.232  0.00  0.00    +0.232 C 
BRANCH  16  18
ATOM     17  C   UNL     1      -7.873  -1.710  -3.308  0.00  0.00    +0.007 C 
ATOM     18  C   UNL     1      -6.689  -2.094  -2.419  0.00  0.00    +0.038 C 
ENDBRANCH  16  18
ENDBRANCH  15  16
ENDBRANCH  13  15
ENDBRANCH   3  13
ENDBRANCH   1   9
BRANCH   1  19
ATOM     19  S   UNL     1       1.339   2.354  -0.124  0.00  0.00    +0.073 S 
ATOM     20  O   UNL     1       0.994   3.713   0.107  0.00  0.00    -0.150 OA
ATOM     21  O   UNL     1       2.288   1.662   0.676  0.00  0.00    -0.150 OA
BRANCH  19  22
ATOM     22  C   UNL     1       1.915   2.257  -1.786  0.00  0.00    +0.116 A 
ATOM     23  C   UNL     1       3.084   1.610  -2.085  0.00  0.00    +0.031 A 
ATOM     24  C   UNL     1       3.585   1.496  -3.381  0.00  0.00    +0.026 A 
ATOM     25  C   UNL     1       2.899   2.063  -4.439  0.00  0.00    +0.042 A 
ATOM     26  C   UNL     1       1.716   2.722  -4.120  0.00  0.00    +0.017 A 
ATOM     27  C   UNL     1       1.189   2.846  -2.834  0.00  0.00    +0.011 A 
ATOM     28  C   UNL     1      -0.021   3.549  -2.701  0.00  0.00    +0.010 A 
ATOM     29  C   UNL     1      -0.612   4.069  -3.822  0.00  0.00    +0.001 A 
ATOM     30  C   UNL     1      -0.071   3.935  -5.100  0.00  0.00    +0.014 A 
ATOM     31  C   UNL     1       1.119   3.250  -5.274  0.00  0.00    +0.047 A 
ATOM     32  C   UNL     1       2.030   2.867  -6.359  0.00  0.00    +0.249 C 
ATOM     33  O   UNL     1       1.886   3.128  -7.539  0.00  0.00    -0.270 OA
ATOM     34  N   UNL     1       3.062   2.170  -5.815  0.00  0.00    -0.281 N 
ATOM     35  H   UNL     1       3.939   1.719  -6.302  0.00  0.00    +0.155 HD
ENDBRANCH  19  22
ENDBRANCH   1  19
TORSDOF 7
