REMARK  Name = ZINC35710481
REMARK  15 active torsions:
REMARK  status: ('A' for Active; 'I' for Inactive)
REMARK    1  A    between atoms: C_1  and  C_2
REMARK    2  A    between atoms: C_2  and  C_3
REMARK    3  A    between atoms: C_3  and  N_4
REMARK    4  A    between atoms: C_5  and  C_39
REMARK    5  A    between atoms: C_6  and  C_32
REMARK    6  A    between atoms: C_7  and  C_12
REMARK    7  A    between atoms: C_15  and  N_18
REMARK    8  A    between atoms: C_19  and  C_21
REMARK    9  A    between atoms: C_22  and  C_23
REMARK   10  A    between atoms: C_26  and  N_29
REMARK   11  A    between atoms: C_32  and  O_34
REMARK   12  A    between atoms: O_34  and  C_35
REMARK   13  A    between atoms: C_35  and  C_36
REMARK   14  A    between atoms: C_36  and  C_37
REMARK   15  A    between atoms: C_36  and  C_38
REMARK                            x       y       z     vdW  Elec       q    Type
REMARK                         _______ _______ _______ _____ _____    ______ ____
ROOT
ATOM      1  C   UNL     1      -0.050  -5.779  -0.268  0.00  0.00    -0.022 A 
ATOM      2  C   UNL     1       1.198  -5.195  -0.149  0.00  0.00    +0.007 A 
ATOM      3  C   UNL     1       2.337  -5.965  -0.281  0.00  0.00    +0.023 A 
ATOM      4  C   UNL     1       2.228  -7.326  -0.534  0.00  0.00    +0.034 A 
ATOM      5  C   UNL     1       0.973  -7.909  -0.652  0.00  0.00    +0.023 A 
ATOM      6  C   UNL     1      -0.162  -7.135  -0.514  0.00  0.00    +0.007 A 
ENDROOT
BRANCH   1  10
ATOM      7  N   UNL     1      -1.411  -2.176  -0.254  0.00  0.00    -0.259 N 
ATOM      8  C   UNL     1      -1.571  -2.870  -1.419  0.00  0.00    +0.024 C 
ATOM      9  C   UNL     1      -1.526  -4.220  -1.438  0.00  0.00    +0.078 C 
ATOM     10  C   UNL     1      -1.291  -4.936  -0.123  0.00  0.00    +0.143 C 
ATOM     11  N   UNL     1      -1.131  -4.095   1.075  0.00  0.00    -0.288 N 
ATOM     12  C   UNL     1      -1.197  -2.757   0.933  0.00  0.00    +0.307 C 
ATOM     13  O   UNL     1      -1.062  -2.054   1.916  0.00  0.00    -0.252 OA
ATOM     14  C   UNL     1      -1.802  -2.118  -2.704  0.00  0.00    +0.061 C 
ATOM     15  H   UNL     1      -0.979  -4.495   1.946  0.00  0.00    +0.151 HD
BRANCH   9  16
ATOM     16  C   UNL     1      -1.692  -4.940  -2.644  0.00  0.00    +0.339 C 
ATOM     17  O   UNL     1      -1.879  -4.344  -3.688  0.00  0.00    -0.245 OA
BRANCH  16  18
ATOM     18  O   UNL     1      -1.643  -6.289  -2.636  0.00  0.00    -0.461 OA
BRANCH  18  19
ATOM     19  C   UNL     1      -1.818  -6.951  -3.890  0.00  0.00    +0.235 C 
BRANCH  19  20
ATOM     20  C   UNL     1      -1.732  -8.465  -3.684  0.00  0.00    +0.020 C 
ATOM     21  C   UNL     1      -2.901  -8.929  -2.813  0.00  0.00    +0.010 C 
ATOM     22  C   UNL     1      -1.795  -9.169  -5.040  0.00  0.00    +0.010 C 
ENDBRANCH  19  20
ENDBRANCH  18  19
ENDBRANCH  16  18
ENDBRANCH   9  16
BRANCH   7  23
ATOM     23  C   UNL     1      -1.471  -0.713  -0.307  0.00  0.00    +0.114 C 
BRANCH  23  25
ATOM     24  C   UNL     1      -2.995   1.267  -0.298  0.00  0.00    +0.005 C 
ATOM     25  C   UNL     1      -2.932  -0.260  -0.243  0.00  0.00    +0.016 C 
ENDBRANCH  23  25
ENDBRANCH   7  23
ENDBRANCH   1  10
BRANCH   4  26
ATOM     26  N   UNL     1       3.379  -8.108  -0.668  0.00  0.00    -0.282 N 
ATOM     27  C   UNL     1       4.470  -7.835   0.075  0.00  0.00    +0.241 C 
ATOM     28  O   UNL     1       4.481  -6.862   0.805  0.00  0.00    -0.270 OA
ATOM     29  H   UNL     1       3.393  -8.847  -1.297  0.00  0.00    +0.155 HD
BRANCH  27  30
ATOM     30  C   UNL     1       5.642  -8.710   0.004  0.00  0.00    +0.068 C 
ATOM     31  C   UNL     1       6.733  -8.437   0.747  0.00  0.00    +0.013 C 
BRANCH  31  32
ATOM     32  C   UNL     1       7.911  -9.316   0.676  0.00  0.00    -0.025 A 
ATOM     33  C   UNL     1       7.904 -10.433  -0.167  0.00  0.00    +0.010 A 
ATOM     34  C   UNL     1       9.012 -11.252  -0.228  0.00  0.00    +0.033 A 
ATOM     35  C   UNL     1      10.128 -10.972   0.541  0.00  0.00    +0.126 A 
ATOM     36  C   UNL     1      10.142  -9.868   1.377  0.00  0.00    +0.033 A 
ATOM     37  C   UNL     1       9.044  -9.037   1.445  0.00  0.00    +0.010 A 
BRANCH  35  38
ATOM     38  N   UNL     1      11.313 -11.856   0.470  0.00  0.00    +0.056 N 
ATOM     39  O   UNL     1      11.304 -12.821  -0.259  0.00  0.00    -0.126 OA
ATOM     40  O   UNL     1      12.289 -11.614   1.140  0.00  0.00    -0.126 OA
ENDBRANCH  35  38
ENDBRANCH  31  32
ENDBRANCH  27  30
ENDBRANCH   4  26
TORSDOF 11
