REMARK  Name = ZINC35908213
REMARK  13 active torsions:
REMARK  status: ('A' for Active; 'I' for Inactive)
REMARK    1  A    between atoms: C_1  and  C_2
REMARK    2  A    between atoms: C_2  and  C_3
REMARK    3  A    between atoms: C_12  and  C_13
REMARK    4  A    between atoms: C_13  and  C_15
REMARK    5  A    between atoms: C_13  and  C_31
REMARK    6  A    between atoms: C_15  and  C_16
REMARK    7  A    between atoms: N_18  and  C_19
REMARK    8  A    between atoms: N_18  and  C_24
REMARK    9  A    between atoms: C_19  and  C_20
REMARK   10  A    between atoms: C_20  and  N_21
REMARK   11  A    between atoms: N_21  and  C_22
REMARK   12  A    between atoms: N_21  and  C_23
REMARK   13  A    between atoms: C_24  and  C_25
REMARK                            x       y       z     vdW  Elec       q    Type
REMARK                         _______ _______ _______ _____ _____    ______ ____
ROOT
ATOM      1  C   UNL     1       0.025  -1.613   6.063  0.00  0.00    +0.063 C 
ENDROOT
BRANCH   1  11
ATOM      2  C   UNL     1       0.731  -0.503   1.223  0.00  0.00    -0.024 A 
ATOM      3  C   UNL     1       2.073  -0.808   1.151  0.00  0.00    +0.005 A 
ATOM      4  C   UNL     1       2.756  -1.268   2.268  0.00  0.00    +0.001 A 
ATOM      5  C   UNL     1       2.107  -1.427   3.460  0.00  0.00    +0.010 A 
ATOM      6  C   UNL     1       0.748  -1.125   3.556  0.00  0.00    +0.004 A 
ATOM      7  C   UNL     1       0.053  -0.653   2.428  0.00  0.00    +0.050 A 
ATOM      8  N   UNL     1      -1.250  -0.435   2.816  0.00  0.00    -0.360 N 
ATOM      9  H   UNL     1      -1.957  -0.111   2.236  0.00  0.00    +0.165 HD
ATOM     10  C   UNL     1      -1.400  -0.746   4.140  0.00  0.00    +0.088 A 
ATOM     11  C   UNL     1      -0.232  -1.176   4.644  0.00  0.00    -0.014 A 
BRANCH   2  13
ATOM     12  C   UNL     1      -0.019   1.526   0.010  0.00  0.00    +0.009 C 
ATOM     13  C   UNL     1       0.002  -0.004   0.002  0.00  0.00    +0.034 C 
ENDBRANCH   2  13
ENDBRANCH   1  11
BRANCH   1  14
ATOM     14  C   UNL     1      -0.850  -2.796   6.390  0.00  0.00    +0.006 A 
ATOM     15  C   UNL     1      -2.226  -2.679   6.316  0.00  0.00    +0.008 A 
ATOM     16  C   UNL     1      -3.031  -3.761   6.615  0.00  0.00    +0.004 A 
ATOM     17  C   UNL     1      -2.465  -4.966   6.990  0.00  0.00    +0.049 A 
ATOM     18  C   UNL     1      -1.088  -5.090   7.067  0.00  0.00    +0.167 A 
ATOM     19  C   UNL     1      -0.276  -4.001   6.760  0.00  0.00    +0.170 A 
ATOM     20  O   UNL     1       1.029  -4.375   6.903  0.00  0.00    -0.452 OA
ATOM     21  C   UNL     1       0.999  -5.582   7.688  0.00  0.00    +0.466 C 
ATOM     22  O   UNL     1      -0.292  -6.146   7.405  0.00  0.00    -0.453 OA
ENDBRANCH   1  14
BRANCH   1  23
ATOM     23  C   UNL     1      -0.295  -0.462   7.018  0.00  0.00    +0.109 C 
BRANCH  23  24
ATOM     24  C   UNL     1       0.077  -0.857   8.424  0.00  0.00    +0.217 C 
ATOM     25  O   UNL     1       0.552  -1.951   8.640  0.00  0.00    -0.276 OA
ATOM     26  N   UNL     1      -0.117   0.007   9.440  0.00  0.00    -0.299 N 
BRANCH  26  27
ATOM     27  C   UNL     1      -0.691   1.329   9.178  0.00  0.00    +0.089 C 
BRANCH  27  28
ATOM     28  C   UNL     1      -2.216   1.254   9.288  0.00  0.00    -0.060 C 
BRANCH  28  29
ATOM     29  N   UNL     1      -2.791   2.580   9.025  0.00  0.00    +0.377 N 
ATOM     30  C   UNL     1      -2.520   2.965   7.634  0.00  0.00    -0.097 C 
ATOM     31  C   UNL     1      -4.242   2.536   9.248  0.00  0.00    -0.097 C 
ATOM     32  H   UNL     1      -2.376   3.256   9.648  0.00  0.00    -0.083 HD
ENDBRANCH  28  29
ENDBRANCH  27  28
ENDBRANCH  26  27
BRANCH  26  33
ATOM     33  C   UNL     1       0.245  -0.377  10.807  0.00  0.00    +0.142 C 
BRANCH  33  34
ATOM     34  C   UNL     1       1.674   0.019  11.077  0.00  0.00    -0.030 A 
ATOM     35  C   UNL     1       2.700  -0.864  10.799  0.00  0.00    +0.005 A 
ATOM     36  C   UNL     1       4.011  -0.502  11.047  0.00  0.00    +0.000 A 
ATOM     37  C   UNL     1       4.295   0.745  11.574  0.00  0.00    +0.000 A 
ATOM     38  C   UNL     1       3.269   1.628  11.852  0.00  0.00    +0.000 A 
ATOM     39  C   UNL     1       1.958   1.267  11.599  0.00  0.00    +0.005 A 
ENDBRANCH  33  34
ENDBRANCH  26  33
ENDBRANCH  23  24
ENDBRANCH   1  23
TORSDOF 10
