REMARK  Name = ZINC13130171
REMARK  9 active torsions:
REMARK  status: ('A' for Active; 'I' for Inactive)
REMARK    1  A    between atoms: C_1  and  O_2
REMARK    2  A    between atoms: O_2  and  C_3
REMARK    3  A    between atoms: C_6  and  C_9
REMARK    4  A    between atoms: C_9  and  C_11
REMARK    5  A    between atoms: C_9  and  N_64
REMARK    6  A    between atoms: C_11  and  N_12
REMARK    7  A    between atoms: C_13  and  C_15
REMARK    8  A    between atoms: N_17  and  C_26
REMARK    9  A    between atoms: C_19  and  C_20
REMARK                            x       y       z     vdW  Elec       q    Type
REMARK                         _______ _______ _______ _____ _____    ______ ____
ROOT
ATOM      1  N   UNL     1      -2.835   0.110  -0.050  0.00  0.00    -0.312 N 
ATOM      2  C   UNL     1      -2.561   1.429  -0.097  0.00  0.00    +0.248 C 
ATOM      3  O   UNL     1      -3.468   2.238  -0.133  0.00  0.00    -0.270 OA
ATOM      4  H   UNL     1      -2.111  -0.535  -0.021  0.00  0.00    +0.149 HD
ENDROOT
BRANCH   2   5
ATOM      5  C   UNL     1      -1.162   1.890  -0.104  0.00  0.00    +0.082 A 
ATOM      6  C   UNL     1      -0.031   1.101  -0.068  0.00  0.00    +0.128 A 
ATOM      7  N   UNL     1       1.040   1.914  -0.095  0.00  0.00    -0.239 N 
ATOM      8  N   UNL     1       0.618   3.245  -0.145  0.00  0.00    -0.166 NA
ATOM      9  C   UNL     1      -0.696   3.280  -0.149  0.00  0.00    +0.107 A 
BRANCH   9  10
ATOM     10  C   UNL     1      -1.545   4.494  -0.195  0.00  0.00    +0.021 A 
ATOM     11  C   UNL     1      -1.146   5.666   0.454  0.00  0.00    +0.013 A 
ATOM     12  C   UNL     1      -1.975   6.772   0.381  0.00  0.00    +0.020 A 
ATOM     13  C   UNL     1      -3.161   6.683  -0.326  0.00  0.00    +0.111 A 
ATOM     14  N   UNL     1      -3.511   5.564  -0.929  0.00  0.00    -0.263 NA
ATOM     15  C   UNL     1      -2.752   4.487  -0.892  0.00  0.00    +0.120 A 
ENDBRANCH   9  10
BRANCH   7  16
ATOM     16  C   UNL     1       2.375   1.490  -0.077  0.00  0.00    +0.065 A 
ATOM     17  C   UNL     1       2.675   0.135  -0.021  0.00  0.00    +0.028 A 
ATOM     18  C   UNL     1       3.992  -0.279  -0.007  0.00  0.00    +0.002 A 
ATOM     19  C   UNL     1       5.012   0.654  -0.039  0.00  0.00    +0.000 A 
ATOM     20  C   UNL     1       4.717   2.004  -0.090  0.00  0.00    +0.002 A 
ATOM     21  C   UNL     1       3.402   2.424  -0.109  0.00  0.00    +0.028 A 
ENDBRANCH   7  16
ENDBRANCH   2   5
BRANCH   1  22
ATOM     22  C   UNL     1      -4.226  -0.349  -0.043  0.00  0.00    +0.094 C 
BRANCH  22  23
ATOM     23  C   UNL     1      -4.258  -1.878   0.013  0.00  0.00    -0.020 C 
BRANCH  23  27
ATOM     24  C   UNL     1      -8.304  -3.204   0.385  0.00  0.00    +0.120 A 
ATOM     25  C   UNL     1      -7.885  -2.058   1.045  0.00  0.00    +0.046 A 
ATOM     26  C   UNL     1      -6.577  -1.631   0.924  0.00  0.00    +0.005 A 
ATOM     27  C   UNL     1      -5.685  -2.345   0.145  0.00  0.00    -0.059 A 
ATOM     28  C   UNL     1      -6.101  -3.485  -0.518  0.00  0.00    +0.005 A 
ATOM     29  C   UNL     1      -7.407  -3.919  -0.395  0.00  0.00    +0.046 A 
BRANCH  24  31
ATOM     30  C   UNL     1      -9.951  -4.813  -0.204  0.00  0.00    +0.277 C 
ATOM     31  O   UNL     1      -9.590  -3.625   0.503  0.00  0.00    -0.495 OA
ENDBRANCH  24  31
ENDBRANCH  23  27
BRANCH  23  36
ATOM     32  C   UNL     1      -4.145  -1.959   2.444  0.00  0.00    -0.078 C 
ATOM     33  C   UNL     1      -3.526  -2.936   3.474  0.00  0.00    -0.020 C 
ATOM     34  C   UNL     1      -3.396  -4.250   2.670  0.00  0.00    -0.020 C 
ATOM     35  C   UNL     1      -3.392  -3.818   1.192  0.00  0.00    -0.078 C 
ATOM     36  N   UNL     1      -3.479  -2.357   1.194  0.00  0.00    +0.385 N 
ATOM     37  H   UNL     1      -2.535  -1.953   1.161  0.00  0.00    -0.081 HD
ENDBRANCH  23  36
ENDBRANCH  22  23
ENDBRANCH   1  22
TORSDOF 8
