REMARK  Name = ZINC39665500
REMARK  9 active torsions:
REMARK  status: ('A' for Active; 'I' for Inactive)
REMARK    1  A    between atoms: C_1  and  C_2
REMARK    2  A    between atoms: C_2  and  C_4
REMARK    3  A    between atoms: C_2  and  O_29
REMARK    4  A    between atoms: C_4  and  N_5
REMARK    5  A    between atoms: C_6  and  C_8
REMARK    6  A    between atoms: C_19  and  C_21
REMARK    7  A    between atoms: O_29  and  C_30
REMARK    8  A    between atoms: C_33  and  O_36
REMARK    9  A    between atoms: O_36  and  C_37
REMARK                            x       y       z     vdW  Elec       q    Type
REMARK                         _______ _______ _______ _____ _____    ______ ____
ROOT
ATOM      1  C   UNL     1      -3.632  -3.724   0.513  0.00  0.00    +0.100 C 
ATOM      2  C   UNL     1      -3.038  -4.484   1.720  0.00  0.00    +0.121 C 
ATOM      3  N   UNL     1      -4.170  -4.628   2.665  0.00  0.00    -0.296 N 
ATOM      4  C   UNL     1      -5.338  -4.918   1.800  0.00  0.00    +0.115 C 
ATOM      5  C   UNL     1      -5.141  -4.014   0.567  0.00  0.00    -0.004 C 
ATOM      6  C   UNL     1      -5.924  -2.716   0.736  0.00  0.00    -0.010 C 
ATOM      7  C   UNL     1      -7.424  -3.025   0.730  0.00  0.00    -0.082 C 
ATOM      8  N   UNL     1      -7.786  -3.677  -0.534  0.00  0.00    +0.379 N 
ATOM      9  C   UNL     1      -7.099  -4.969  -0.646  0.00  0.00    -0.082 C 
ATOM     10  C   UNL     1      -5.586  -4.742  -0.698  0.00  0.00    -0.010 C 
ATOM     11  C   UNL     1      -4.144  -4.520   4.008  0.00  0.00    +0.248 C 
ATOM     12  O   UNL     1      -3.118  -4.190   4.572  0.00  0.00    -0.270 OA
ATOM     13  H   UNL     1      -8.784  -3.824  -0.561  0.00  0.00    -0.086 HD
ATOM     14  H   UNL     1      -7.515  -3.086  -1.306  0.00  0.00    -0.086 HD
ENDROOT
BRANCH  11  15
ATOM     15  C   UNL     1      -5.361  -4.801   4.796  0.00  0.00    +0.055 A 
ATOM     16  C   UNL     1      -6.233  -5.818   4.400  0.00  0.00    +0.016 A 
ATOM     17  C   UNL     1      -7.367  -6.076   5.139  0.00  0.00    +0.021 A 
ATOM     18  C   UNL     1      -7.644  -5.330   6.274  0.00  0.00    +0.042 A 
ATOM     19  C   UNL     1      -6.785  -4.321   6.673  0.00  0.00    +0.040 A 
ATOM     20  C   UNL     1      -5.642  -4.056   5.945  0.00  0.00    +0.054 A 
ATOM     21 CL   UNL     1      -4.561  -2.796   6.450  0.00  0.00    -0.083 Cl
ATOM     22 CL   UNL     1      -9.076  -5.662   7.199  0.00  0.00    -0.083 Cl
ENDBRANCH  11  15
BRANCH   1  24
ATOM     23  N   UNL     1      -3.385  -1.458  -0.447  0.00  0.00    -0.312 N 
ATOM     24  C   UNL     1      -3.378  -2.244   0.647  0.00  0.00    +0.218 C 
ATOM     25  O   UNL     1      -3.166  -1.762   1.739  0.00  0.00    -0.275 OA
ATOM     26  H   UNL     1      -3.555  -1.843  -1.321  0.00  0.00    +0.149 HD
BRANCH  23  27
ATOM     27  C   UNL     1      -3.138  -0.019  -0.317  0.00  0.00    +0.148 C 
BRANCH  27  29
ATOM     28  C   UNL     1      -2.821   2.114  -1.579  0.00  0.00    +0.053 C 
ATOM     29  C   UNL     1      -3.201   0.636  -1.698  0.00  0.00    +0.187 C 
BRANCH  29  30
ATOM     30  O   UNL     1      -4.529   0.527  -2.216  0.00  0.00    -0.488 OA
BRANCH  30  31
ATOM     31  C   UNL     1      -4.670   0.584  -3.567  0.00  0.00    +0.121 A 
ATOM     32  C   UNL     1      -5.935   0.536  -4.135  0.00  0.00    +0.049 A 
ATOM     33  C   UNL     1      -6.079   0.594  -5.507  0.00  0.00    +0.049 A 
ATOM     34  C   UNL     1      -4.958   0.700  -6.318  0.00  0.00    +0.120 A 
ATOM     35  C   UNL     1      -3.694   0.748  -5.751  0.00  0.00    +0.049 A 
ATOM     36  C   UNL     1      -3.550   0.694  -4.378  0.00  0.00    +0.049 A 
BRANCH  34  37
ATOM     37  O   UNL     1      -5.100   0.755  -7.669  0.00  0.00    -0.495 OA
ATOM     38  C   UNL     1      -3.904   0.864  -8.443  0.00  0.00    +0.277 C 
ENDBRANCH  34  37
ENDBRANCH  30  31
ENDBRANCH  29  30
ENDBRANCH  27  29
ENDBRANCH  23  27
ENDBRANCH   1  24
TORSDOF 7
