REMARK  Name = ZINC12202308
REMARK  7 active torsions:
REMARK  status: ('A' for Active; 'I' for Inactive)
REMARK    1  A    between atoms: C_1  and  C_2
REMARK    2  A    between atoms: C_7  and  C_8
REMARK    3  A    between atoms: C_11  and  C_14
REMARK    4  A    between atoms: C_14  and  N_68
REMARK    5  A    between atoms: C_16  and  N_31
REMARK    6  A    between atoms: C_19  and  C_21
REMARK    7  A    between atoms: N_23  and  C_24
REMARK                            x       y       z     vdW  Elec       q    Type
REMARK                         _______ _______ _______ _____ _____    ______ ____
ROOT
ATOM      1  C   UNL     1      -2.271   0.226  -1.984  0.00  0.00    -0.050 C 
ATOM      2  C   UNL     1      -3.148  -0.270  -3.154  0.00  0.00    +0.093 C 
ATOM      3  C   UNL     1      -3.541  -1.713  -2.777  0.00  0.00    +0.019 C 
ATOM      4  C   UNL     1      -2.867  -1.969  -1.412  0.00  0.00    +0.022 C 
ATOM      5  N   UNL     1      -1.760  -1.016  -1.391  0.00  0.00    +0.391 N 
ATOM      6  H   UNL     1      -0.977  -1.376  -1.949  0.00  0.00    -0.080 HD
ENDROOT
BRANCH   2   7
ATOM      7  N   UNL     1      -4.345   0.566  -3.284  0.00  0.00    -0.231 N 
ATOM      8  C   UNL     1      -4.987   1.202  -2.287  0.00  0.00    +0.245 A 
ATOM      9  N   UNL     1      -5.999   1.831  -2.834  0.00  0.00    -0.117 NA
ATOM     10  N   UNL     1      -5.979   1.593  -4.100  0.00  0.00    -0.023 NA
ATOM     11  N   UNL     1      -4.978   0.833  -4.376  0.00  0.00    -0.044 NA
ENDBRANCH   2   7
BRANCH   4  12
ATOM     12  C   UNL     1      -2.367  -3.388  -1.327  0.00  0.00    +0.200 C 
ATOM     13  O   UNL     1      -1.177  -3.607  -1.241  0.00  0.00    -0.278 OA
ATOM     14  N   UNL     1      -3.241  -4.413  -1.348  0.00  0.00    -0.314 N 
ATOM     15  H   UNL     1      -4.193  -4.238  -1.417  0.00  0.00    +0.149 HD
BRANCH  14  16
ATOM     16  C   UNL     1      -2.755  -5.793  -1.266  0.00  0.00    +0.073 C 
ATOM     17  C   UNL     1      -2.305  -6.248  -2.669  0.00  0.00    +0.022 C 
ATOM     18  C   UNL     1      -1.365  -7.412  -2.515  0.00  0.00    +0.002 C 
ATOM     19  C   UNL     1      -2.085  -8.770  -2.618  0.00  0.00    +0.000 C 
ATOM     20  C   UNL     1      -3.432  -8.790  -1.871  0.00  0.00    +0.000 C 
ATOM     21  C   UNL     1      -3.361  -8.097  -0.537  0.00  0.00    +0.002 C 
ATOM     22  C   UNL     1      -3.811  -6.633  -0.721  0.00  0.00    +0.022 C 
ENDBRANCH  14  16
ENDBRANCH   4  12
BRANCH   5  23
ATOM     23  C   UNL     1      -1.294  -0.772   0.011  0.00  0.00    -0.042 C 
BRANCH  23  27
ATOM     24  C   UNL     1       2.384   1.408  -0.014  0.00  0.00    -0.018 A 
ATOM     25  C   UNL     1       1.168   2.088   0.002  0.00  0.00    +0.009 A 
ATOM     26  C   UNL     1      -0.017   1.379   0.010  0.00  0.00    +0.002 A 
ATOM     27  C   UNL     1       0.002  -0.004   0.002  0.00  0.00    -0.064 A 
ATOM     28  C   UNL     1       1.206  -0.684  -0.013  0.00  0.00    +0.002 A 
ATOM     29  C   UNL     1       2.397   0.014  -0.021  0.00  0.00    +0.009 A 
BRANCH  24  36
ATOM     30  C   UNL     1       2.774   3.538  -1.932  0.00  0.00    +0.044 C 
ATOM     31  C   UNL     1       3.857   3.192  -0.942  0.00  0.00    -0.043 A 
ATOM     32  C   UNL     1       5.046   3.893  -0.946  0.00  0.00    +0.004 A 
ATOM     33  C   UNL     1       6.041   3.577  -0.039  0.00  0.00    +0.000 A 
ATOM     34  C   UNL     1       5.851   2.557   0.876  0.00  0.00    +0.001 A 
ATOM     35  C   UNL     1       4.664   1.853   0.893  0.00  0.00    +0.009 A 
ATOM     36  C   UNL     1       3.660   2.164  -0.023  0.00  0.00    -0.015 A 
ENDBRANCH  24  36
ENDBRANCH  23  27
ENDBRANCH   5  23
TORSDOF 6
