REMARK  Name = ZINC06077502
REMARK  14 active torsions:
REMARK  status: ('A' for Active; 'I' for Inactive)
REMARK    1  A    between atoms: C_1  and  C_2
REMARK    2  A    between atoms: C_2  and  C_3
REMARK    3  A    between atoms: C_3  and  C_4
REMARK    4  A    between atoms: C_3  and  C_5
REMARK    5  A    between atoms: C_3  and  N_6
REMARK    6  A    between atoms: C_7  and  C_11
REMARK    7  A    between atoms: C_11  and  C_13
REMARK    8  A    between atoms: C_11  and  N_71
REMARK    9  A    between atoms: C_17  and  C_26
REMARK   10  A    between atoms: C_18  and  C_25
REMARK   11  A    between atoms: C_27  and  C_28
REMARK   12  A    between atoms: C_27  and  N_71
REMARK   13  A    between atoms: C_34  and  C_35
REMARK   14  A    between atoms: C_34  and  N_71
REMARK                            x       y       z     vdW  Elec       q    Type
REMARK                         _______ _______ _______ _____ _____    ______ ____
ROOT
ATOM      1  C   UNL     1       1.805   3.209   0.312  0.00  0.00    +0.040 C 
ENDROOT
BRANCH   1   2
ATOM      2  C   UNL     1       1.101   3.816  -0.874  0.00  0.00    +0.011 A 
ATOM      3  C   UNL     1       0.233   4.841  -0.693  0.00  0.00    +0.017 A 
ATOM      4  C   UNL     1      -0.430   5.412  -1.867  0.00  0.00    -0.001 A 
ATOM      5  C   UNL     1      -1.332   6.474  -1.743  0.00  0.00    +0.013 A 
ATOM      6  C   UNL     1      -1.937   6.982  -2.858  0.00  0.00    -0.047 A 
ATOM      7  C   UNL     1      -1.666   6.452  -4.112  0.00  0.00    -0.046 A 
ATOM      8  C   UNL     1      -0.782   5.405  -4.258  0.00  0.00    +0.030 A 
ATOM      9  C   UNL     1      -0.153   4.872  -3.137  0.00  0.00    +0.049 A 
ATOM     10  N   UNL     1       0.736   3.825  -3.253  0.00  0.00    -0.322 N 
ATOM     11  H   UNL     1       0.931   3.442  -4.156  0.00  0.00    +0.169 HD
ATOM     12  C   UNL     1       1.344   3.311  -2.170  0.00  0.00    +0.251 A 
ATOM     13  O   UNL     1       2.125   2.386  -2.310  0.00  0.00    -0.268 OA
ATOM     14  C   UNL     1      -2.346   7.028  -5.328  0.00  0.00    +0.044 C 
ATOM     15  C   UNL     1      -2.908   8.127  -2.725  0.00  0.00    +0.044 C 
ENDBRANCH   1   2
BRANCH   1  17
ATOM     16  N   UNL     1       4.027   4.268   0.977  0.00  0.00    -0.225 N 
ATOM     17  C   UNL     1       3.287   3.457   0.199  0.00  0.00    +0.143 A 
ATOM     18  N   UNL     1       4.104   2.930  -0.680  0.00  0.00    -0.115 NA
ATOM     19  N   UNL     1       5.285   3.389  -0.451  0.00  0.00    -0.023 NA
ATOM     20  N   UNL     1       5.244   4.196   0.552  0.00  0.00    -0.043 NA
BRANCH  16  21
ATOM     21  C   UNL     1       3.545   5.078   2.098  0.00  0.00    +0.061 C 
ATOM     22  C   UNL     1       2.452   6.029   1.606  0.00  0.00    +0.036 C 
ATOM     23  C   UNL     1       2.973   4.161   3.181  0.00  0.00    +0.036 C 
BRANCH  21  25
ATOM     24  C   UNL     1       4.200   6.736   3.848  0.00  0.00    +0.006 C 
ATOM     25  C   UNL     1       4.705   5.890   2.678  0.00  0.00    +0.026 C 
ENDBRANCH  21  25
ENDBRANCH  16  21
ENDBRANCH   1  17
BRANCH   1  26
ATOM     26  N   UNL     1       1.563   1.751   0.320  0.00  0.00    +0.397 N 
ATOM     27  H   UNL     1       1.954   1.343  -0.537  0.00  0.00    -0.079 HD
BRANCH  26  28
ATOM     28  C   UNL     1       2.224   1.135   1.490  0.00  0.00    -0.039 C 
BRANCH  28  29
ATOM     29  C   UNL     1       2.361  -0.345   1.244  0.00  0.00    -0.046 A 
ATOM     30  C   UNL     1       1.347  -1.216   1.613  0.00  0.00    +0.005 A 
ATOM     31  C   UNL     1       1.516  -2.569   1.363  0.00  0.00    +0.020 A 
ATOM     32  C   UNL     1       2.684  -3.003   0.767  0.00  0.00    +0.111 A 
ATOM     33  N   UNL     1       3.630  -2.147   0.433  0.00  0.00    -0.263 NA
ATOM     34  C   UNL     1       3.502  -0.852   0.652  0.00  0.00    +0.112 A 
ENDBRANCH  28  29
ENDBRANCH  26  28
BRANCH  26  35
ATOM     35  C   UNL     1       0.110   1.480   0.360  0.00  0.00    -0.001 C 
BRANCH  35  36
ATOM     36  C   UNL     1      -0.493   2.016   1.633  0.00  0.00    +0.089 A 
ATOM     37  C   UNL     1      -1.087   3.215   1.778  0.00  0.00    +0.042 A 
ATOM     38  C   UNL     1      -1.504   3.304   3.126  0.00  0.00    +0.041 A 
ATOM     39  C   UNL     1      -1.140   2.155   3.724  0.00  0.00    +0.195 A 
ATOM     40  O   UNL     1      -0.533   1.377   2.813  0.00  0.00    -0.470 OA
ENDBRANCH  35  36
ENDBRANCH  26  35
ENDBRANCH   1  26
TORSDOF 9
