REMARK  Name = ZINC59402847
REMARK  5 active torsions:
REMARK  status: ('A' for Active; 'I' for Inactive)
REMARK    1  A    between atoms: C_4  and  C_7
REMARK    2  A    between atoms: N_16  and  C_17
REMARK    3  A    between atoms: C_17  and  C_18
REMARK    4  A    between atoms: N_20  and  C_21
REMARK    5  A    between atoms: C_22  and  C_30
REMARK                            x       y       z     vdW  Elec       q    Type
REMARK                         _______ _______ _______ _____ _____    ______ ____
ROOT
ATOM      1  C   UNL     1       3.476  -1.498   2.243  0.00  0.00    +0.181 C 
ENDROOT
BRANCH   1  10
ATOM      2  C   UNL     1       3.711  -0.707  -0.038  0.00  0.00    +0.134 C 
ATOM      3  C   UNL     1       4.013  -1.179  -1.439  0.00  0.00    +0.041 A 
ATOM      4  C   UNL     1       3.894  -0.497  -2.587  0.00  0.00    +0.024 A 
ATOM      5  C   UNL     1       4.291  -1.359  -3.632  0.00  0.00    +0.019 A 
ATOM      6  C   UNL     1       4.638  -2.539  -3.074  0.00  0.00    +0.086 A 
ATOM      7  N   UNL     1       4.473  -2.437  -1.730  0.00  0.00    -0.348 N 
ATOM      8  C   UNL     1       4.728  -3.458  -0.707  0.00  0.00    +0.137 C 
ATOM      9  C   UNL     1       4.801  -2.762   0.657  0.00  0.00    +0.107 C 
ATOM     10  N   UNL     1       3.631  -1.891   0.836  0.00  0.00    -0.280 NA
BRANCH   2  14
ATOM     11  C   UNL     1      -0.017   1.378   0.010  0.00  0.00    +0.000 A 
ATOM     12  C   UNL     1       1.171   2.086   0.002  0.00  0.00    +0.000 A 
ATOM     13  C   UNL     1       2.377   1.411  -0.013  0.00  0.00    +0.005 A 
ATOM     14  C   UNL     1       2.396   0.029  -0.020  0.00  0.00    -0.024 A 
ATOM     15  C   UNL     1       1.208  -0.679  -0.012  0.00  0.00    +0.005 A 
ATOM     16  C   UNL     1       0.002  -0.004   0.002  0.00  0.00    +0.000 A 
ENDBRANCH   2  14
ENDBRANCH   1  10
BRANCH   1  17
ATOM     17  C   UNL     1       3.153  -2.714   3.072  0.00  0.00    +0.232 C 
ATOM     18  O   UNL     1       3.061  -3.802   2.542  0.00  0.00    -0.274 OA
ATOM     19  N   UNL     1       2.966  -2.594   4.401  0.00  0.00    -0.278 N 
ATOM     20  H   UNL     1       3.040  -1.724   4.824  0.00  0.00    +0.155 HD
BRANCH  19  21
ATOM     21  C   UNL     1       2.669  -3.714   5.165  0.00  0.00    +0.090 A 
ATOM     22  C   UNL     1       2.442  -3.779   6.529  0.00  0.00    +0.084 A 
ATOM     23  C   UNL     1       2.146  -5.084   7.093  0.00  0.00    -0.018 A 
ATOM     24  C   UNL     1       2.133  -6.086   6.187  0.00  0.00    -0.004 A 
ATOM     25  S   UNL     1       2.495  -5.301   4.644  0.00  0.00    -0.077 S 
ATOM     26  C   UNL     1       1.864  -7.535   6.454  0.00  0.00    +0.043 C 
ATOM     27  C   UNL     1       1.976  -7.776   7.966  0.00  0.00    +0.005 C 
ATOM     28  C   UNL     1       1.172  -6.700   8.701  0.00  0.00    +0.005 C 
ATOM     29  C   UNL     1       1.869  -5.345   8.566  0.00  0.00    +0.037 C 
BRANCH  22  30
ATOM     30  C   UNL     1       2.496  -2.607   7.350  0.00  0.00    +0.102 C 
ATOM     31  N   UNL     1       2.539  -1.677   8.002  0.00  0.00    -0.191 NA
ENDBRANCH  22  30
ENDBRANCH  19  21
ENDBRANCH   1  17
TORSDOF 5
