REMARK  Name = ZINC13506004
REMARK  10 active torsions:
REMARK  status: ('A' for Active; 'I' for Inactive)
REMARK    1  A    between atoms: C_1  and  C_2
REMARK    2  A    between atoms: C_5  and  C_7
REMARK    3  A    between atoms: C_7  and  C_9
REMARK    4  A    between atoms: C_7  and  N_17
REMARK    5  A    between atoms: N_11  and  C_12
REMARK    6  A    between atoms: N_17  and  C_18
REMARK    7  A    between atoms: C_18  and  C_19
REMARK    8  A    between atoms: C_25  and  C_27
REMARK    9  A    between atoms: C_27  and  N_28
REMARK   10  A    between atoms: C_29  and  C_31
REMARK                            x       y       z     vdW  Elec       q    Type
REMARK                         _______ _______ _______ _____ _____    ______ ____
ROOT
ATOM      1  N   UNL     1       3.987  -0.348  -2.244  0.00  0.00    -0.278 N 
ATOM      2  C   UNL     1       3.957   0.429  -3.345  0.00  0.00    +0.234 C 
ATOM      3  O   UNL     1       3.673  -0.054  -4.420  0.00  0.00    -0.274 OA
ENDROOT
BRANCH   1   4
ATOM      4  C   UNL     1       3.829  -1.799  -2.367  0.00  0.00    +0.228 C 
BRANCH   4   9
ATOM      5  C   UNL     1       6.899  -3.351   1.322  0.00  0.00    +0.086 C 
ATOM      6  C   UNL     1       6.295  -3.165  -0.046  0.00  0.00    +0.102 A 
ATOM      7  C   UNL     1       6.751  -3.711  -1.188  0.00  0.00    +0.045 A 
ATOM      8  C   UNL     1       5.887  -3.280  -2.221  0.00  0.00    +0.047 A 
ATOM      9  C   UNL     1       4.960  -2.490  -1.650  0.00  0.00    +0.135 A 
ATOM     10  O   UNL     1       5.210  -2.427  -0.332  0.00  0.00    -0.462 OA
ENDBRANCH   4   9
BRANCH   4  11
ATOM     11  C   UNL     1       2.517  -2.215  -1.754  0.00  0.00    +0.241 C 
ATOM     12  O   UNL     1       1.823  -1.394  -1.191  0.00  0.00    -0.273 OA
ATOM     13  N   UNL     1       2.114  -3.499  -1.830  0.00  0.00    -0.311 N 
ATOM     14  H   UNL     1       2.669  -4.155  -2.280  0.00  0.00    +0.149 HD
BRANCH  13  15
ATOM     15  C   UNL     1       0.839  -3.903  -1.234  0.00  0.00    +0.073 C 
ATOM     16  C   UNL     1       1.044  -4.283   0.247  0.00  0.00    +0.022 C 
ATOM     17  C   UNL     1       0.086  -5.479   0.469  0.00  0.00    +0.002 C 
ATOM     18  C   UNL     1       0.200  -6.261  -0.863  0.00  0.00    +0.002 C 
ATOM     19  C   UNL     1       0.302  -5.161  -1.940  0.00  0.00    +0.022 C 
ENDBRANCH  13  15
ENDBRANCH   4  11
ENDBRANCH   1   4
BRANCH   1  20
ATOM     20  C   UNL     1       4.178   0.259  -0.924  0.00  0.00    +0.144 C 
BRANCH  20  21
ATOM     21  C   UNL     1       5.519   0.945  -0.876  0.00  0.00    -0.030 A 
ATOM     22  C   UNL     1       5.608   2.305  -1.111  0.00  0.00    +0.005 A 
ATOM     23  C   UNL     1       6.838   2.934  -1.067  0.00  0.00    +0.000 A 
ATOM     24  C   UNL     1       7.979   2.205  -0.788  0.00  0.00    +0.000 A 
ATOM     25  C   UNL     1       7.889   0.846  -0.552  0.00  0.00    +0.000 A 
ATOM     26  C   UNL     1       6.659   0.216  -0.596  0.00  0.00    +0.005 A 
ENDBRANCH  20  21
ENDBRANCH   1  20
BRANCH   2  27
ATOM     27  C   UNL     1       4.277   1.898  -3.239  0.00  0.00    +0.200 C 
BRANCH  27  28
ATOM     28  N   UNL     1       4.052   2.541  -4.536  0.00  0.00    -0.302 N 
ATOM     29  C   UNL     1       4.274   3.863  -4.681  0.00  0.00    +0.251 C 
ATOM     30  O   UNL     1       4.662   4.522  -3.733  0.00  0.00    -0.270 OA
ATOM     31  H   UNL     1       3.743   2.016  -5.291  0.00  0.00    +0.150 HD
BRANCH  29  32
ATOM     32  C   UNL     1       4.050   4.506  -5.978  0.00  0.00    +0.074 A 
ATOM     33  C   UNL     1       4.210   5.836  -6.333  0.00  0.00    +0.021 A 
ATOM     34  C   UNL     1       3.930   6.174  -7.634  0.00  0.00    +0.008 A 
ATOM     35  C   UNL     1       3.506   5.211  -8.493  0.00  0.00    +0.046 A 
ATOM     36  S   UNL     1       3.490   3.783  -7.510  0.00  0.00    -0.092 S 
ENDBRANCH  29  32
ENDBRANCH  27  28
ENDBRANCH   2  27
TORSDOF 9
