REMARK  Name = ZINC06422029
REMARK  7 active torsions:
REMARK  status: ('A' for Active; 'I' for Inactive)
REMARK    1  A    between atoms: C_1  and  C_2
REMARK    2  A    between atoms: C_5  and  N_8
REMARK    3  A    between atoms: C_9  and  C_11
REMARK    4  A    between atoms: C_11  and  O_12
REMARK    5  A    between atoms: O_12  and  C_13
REMARK    6  A    between atoms: C_13  and  C_15
REMARK    7  A    between atoms: C_19  and  N_21
REMARK                            x       y       z     vdW  Elec       q    Type
REMARK                         _______ _______ _______ _____ _____    ______ ____
ROOT
ATOM      1  O   UNL     1      -2.420   0.986   0.019  0.00  0.00    -0.452 OA
ENDROOT
BRANCH   1   2
ATOM      2  C   UNL     1      -3.672   1.484   0.028  0.00  0.00    +0.340 C 
ATOM      3  O   UNL     1      -3.848   2.686   0.035  0.00  0.00    -0.245 OA
BRANCH   2   4
ATOM      4  C   UNL     1      -4.831   0.568   0.028  0.00  0.00    +0.061 A 
ATOM      5  C   UNL     1      -4.632  -0.814   0.014  0.00  0.00    +0.016 A 
ATOM      6  C   UNL     1      -5.715  -1.667   0.020  0.00  0.00    +0.022 A 
ATOM      7  C   UNL     1      -7.002  -1.159   0.029  0.00  0.00    +0.062 A 
ATOM      8  C   UNL     1      -7.211   0.217   0.037  0.00  0.00    +0.044 A 
ATOM      9  C   UNL     1      -6.129   1.082   0.037  0.00  0.00    +0.039 A 
ATOM     10 CL   UNL     1      -8.360  -2.240   0.030  0.00  0.00    -0.082 Cl
BRANCH   8  11
ATOM     11  N   UNL     1      -8.513   0.726   0.047  0.00  0.00    -0.357 N 
ATOM     12  H   UNL     1      -8.659   1.685   0.053  0.00  0.00    +0.142 HD
ATOM     13  H   UNL     1      -9.271   0.120   0.047  0.00  0.00    +0.142 HD
ENDBRANCH   8  11
ENDBRANCH   2   4
ENDBRANCH   1   2
BRANCH   1  14
ATOM     14  C   UNL     1      -1.330   1.944   0.019  0.00  0.00    +0.328 C 
BRANCH  14  16
ATOM     15  N   UNL     1       1.143   1.898   0.001  0.00  0.00    -0.310 N 
ATOM     16  C   UNL     1      -0.014   1.209   0.009  0.00  0.00    +0.251 C 
ATOM     17  O   UNL     1       0.002  -0.004   0.002  0.00  0.00    -0.272 OA
ATOM     18  H   UNL     1       1.130   2.868   0.007  0.00  0.00    +0.149 HD
BRANCH  15  23
ATOM     19  C   UNL     1       4.176   4.264   2.467  0.00  0.00    +0.007 C 
ATOM     20  C   UNL     1       4.037   2.988   1.634  0.00  0.00    -0.014 C 
ATOM     21  C   UNL     1       3.639   3.354   0.203  0.00  0.00    +0.005 C 
ATOM     22  C   UNL     1       3.499   2.078  -0.630  0.00  0.00    +0.022 C 
ATOM     23  C   UNL     1       2.422   1.183  -0.015  0.00  0.00    +0.073 C 
ATOM     24  C   UNL     1       2.819   0.817   1.417  0.00  0.00    +0.022 C 
ATOM     25  C   UNL     1       2.959   2.092   2.250  0.00  0.00    +0.005 C 
ENDBRANCH  15  23
ENDBRANCH  14  16
ENDBRANCH   1  14
TORSDOF 6
