REMARK  Name = ZINC06135295
REMARK  10 active torsions:
REMARK  status: ('A' for Active; 'I' for Inactive)
REMARK    1  A    between atoms: C_1  and  C_2
REMARK    2  A    between atoms: C_2  and  C_3
REMARK    3  A    between atoms: C_10  and  C_15
REMARK    4  A    between atoms: C_15  and  C_17
REMARK    5  A    between atoms: C_15  and  N_69
REMARK    6  A    between atoms: N_21  and  C_22
REMARK    7  A    between atoms: C_27  and  C_28
REMARK    8  A    between atoms: C_27  and  N_69
REMARK    9  A    between atoms: C_34  and  C_35
REMARK   10  A    between atoms: C_34  and  N_69
REMARK                            x       y       z     vdW  Elec       q    Type
REMARK                         _______ _______ _______ _____ _____    ______ ____
ROOT
ATOM      1  C   UNL     1       3.520  -0.244  -1.302  0.00  0.00    +0.040 C 
ENDROOT
BRANCH   1   9
ATOM      2  C   UNL     1       8.312  -1.060  -5.130  0.00  0.00    -0.047 A 
ATOM      3  C   UNL     1       7.560  -1.356  -6.260  0.00  0.00    +0.005 A 
ATOM      4  C   UNL     1       6.184  -1.379  -6.202  0.00  0.00    +0.026 A 
ATOM      5  C   UNL     1       5.538  -1.101  -5.001  0.00  0.00    +0.049 A 
ATOM      6  C   UNL     1       6.304  -0.801  -3.859  0.00  0.00    -0.001 A 
ATOM      7  C   UNL     1       7.700  -0.785  -3.941  0.00  0.00    +0.013 A 
ATOM      8  C   UNL     1       5.615  -0.505  -2.601  0.00  0.00    +0.017 A 
ATOM      9  C   UNL     1       4.260  -0.540  -2.581  0.00  0.00    +0.011 A 
ATOM     10  C   UNL     1       3.539  -0.846  -3.755  0.00  0.00    +0.251 A 
ATOM     11  O   UNL     1       2.321  -0.868  -3.716  0.00  0.00    -0.268 OA
ATOM     12  N   UNL     1       4.163  -1.115  -4.916  0.00  0.00    -0.322 N 
ATOM     13  H   UNL     1       3.620  -1.328  -5.728  0.00  0.00    +0.169 HD
BRANCH   2  15
ATOM     14  C   UNL     1      10.362  -2.437  -4.905  0.00  0.00    +0.009 C 
ATOM     15  C   UNL     1       9.816  -1.042  -5.218  0.00  0.00    +0.032 C 
ENDBRANCH   2  15
ENDBRANCH   1   9
BRANCH   1  16
ATOM     16  C   UNL     1       2.946  -1.522  -0.747  0.00  0.00    +0.143 A 
ATOM     17  N   UNL     1       1.900  -2.170  -1.197  0.00  0.00    -0.115 NA
ATOM     18  N   UNL     1       1.728  -3.212  -0.458  0.00  0.00    -0.023 NA
ATOM     19  N   UNL     1       2.638  -3.244   0.452  0.00  0.00    -0.044 NA
ATOM     20  N   UNL     1       3.411  -2.222   0.304  0.00  0.00    -0.227 N 
BRANCH  20  21
ATOM     21  C   UNL     1       4.575  -1.885   1.128  0.00  0.00    +0.111 C 
ATOM     22  C   UNL     1       5.595  -3.043   1.100  0.00  0.00    +0.027 C 
ATOM     23  C   UNL     1       6.166  -3.079   2.540  0.00  0.00    +0.002 C 
ATOM     24  C   UNL     1       4.923  -2.765   3.410  0.00  0.00    +0.002 C 
ATOM     25  C   UNL     1       4.149  -1.708   2.596  0.00  0.00    +0.027 C 
ENDBRANCH  20  21
ENDBRANCH   1  16
BRANCH   1  26
ATOM     26  N   UNL     1       2.418   0.696  -1.597  0.00  0.00    +0.397 N 
ATOM     27  H   UNL     1       1.924   0.377  -2.439  0.00  0.00    -0.079 HD
BRANCH  26  28
ATOM     28  C   UNL     1       1.467   0.730  -0.466  0.00  0.00    -0.039 C 
BRANCH  28  29
ATOM     29  C   UNL     1       0.250   1.517  -0.878  0.00  0.00    -0.046 A 
ATOM     30  C   UNL     1      -0.823   0.884  -1.488  0.00  0.00    +0.005 A 
ATOM     31  C   UNL     1      -1.919   1.649  -1.855  0.00  0.00    +0.020 A 
ATOM     32  C   UNL     1      -1.911   3.006  -1.592  0.00  0.00    +0.111 A 
ATOM     33  N   UNL     1      -0.874   3.575  -1.010  0.00  0.00    -0.263 NA
ATOM     34  C   UNL     1       0.188   2.879  -0.653  0.00  0.00    +0.112 A 
ENDBRANCH  28  29
ENDBRANCH  26  28
BRANCH  26  35
ATOM     35  C   UNL     1       2.960   2.049  -1.842  0.00  0.00    -0.001 C 
BRANCH  35  36
ATOM     36  C   UNL     1       3.570   2.083  -3.220  0.00  0.00    +0.089 A 
ATOM     37  C   UNL     1       2.899   2.256  -4.373  0.00  0.00    +0.042 A 
ATOM     38  C   UNL     1       3.857   2.221  -5.412  0.00  0.00    +0.041 A 
ATOM     39  C   UNL     1       5.055   2.029  -4.832  0.00  0.00    +0.195 A 
ATOM     40  O   UNL     1       4.876   1.952  -3.504  0.00  0.00    -0.470 OA
ENDBRANCH  35  36
ENDBRANCH  26  35
ENDBRANCH   1  26
TORSDOF 9
