REMARK  Name = ZINC38556122
REMARK  8 active torsions:
REMARK  status: ('A' for Active; 'I' for Inactive)
REMARK    1  A    between atoms: C_1  and  C_2
REMARK    2  A    between atoms: C_5  and  N_8
REMARK    3  A    between atoms: C_9  and  C_31
REMARK    4  A    between atoms: C_13  and  S_15
REMARK    5  A    between atoms: S_15  and  C_16
REMARK    6  A    between atoms: C_16  and  C_17
REMARK    7  A    between atoms: N_19  and  N_20
REMARK    8  A    between atoms: C_21  and  C_22
REMARK                            x       y       z     vdW  Elec       q    Type
REMARK                         _______ _______ _______ _____ _____    ______ ____
ROOT
ATOM      1  N   UNL     1       0.105  -4.255  -0.198  0.00  0.00    -0.284 N 
ATOM      2  C   UNL     1       0.280  -5.255   0.870  0.00  0.00    +0.189 C 
ATOM      3  N   UNL     1       0.106  -6.583   0.239  0.00  0.00    -0.230 NA
ATOM      4  N   UNL     1      -0.702  -6.314  -0.961  0.00  0.00    -0.226 NA
ATOM      5  C   UNL     1      -0.176  -5.010  -1.436  0.00  0.00    +0.218 C 
ATOM      6  H   UNL     1       0.997  -6.985  -0.008  0.00  0.00    +0.143 HD
ATOM      7  H   UNL     1      -1.682  -6.241  -0.729  0.00  0.00    +0.143 HD
ENDROOT
BRANCH   1  12
ATOM      8  C   UNL     1       0.421   1.381   0.341  0.00  0.00    +0.044 C 
ATOM      9  C   UNL     1       0.337  -0.117   0.198  0.00  0.00    -0.050 A 
ATOM     10  C   UNL     1       0.183  -0.682  -1.055  0.00  0.00    +0.005 A 
ATOM     11  C   UNL     1       0.106  -2.054  -1.190  0.00  0.00    +0.023 A 
ATOM     12  C   UNL     1       0.183  -2.867  -0.065  0.00  0.00    +0.033 A 
ATOM     13  C   UNL     1       0.338  -2.295   1.191  0.00  0.00    +0.023 A 
ATOM     14  C   UNL     1       0.420  -0.923   1.319  0.00  0.00    +0.005 A 
ENDBRANCH   1  12
BRANCH   2  15
ATOM     15  C   UNL     1       1.661  -5.141   1.462  0.00  0.00    -0.009 A 
ATOM     16  C   UNL     1       2.533  -4.146   1.045  0.00  0.00    +0.026 A 
ATOM     17  C   UNL     1       3.792  -4.073   1.611  0.00  0.00    +0.111 A 
ATOM     18  N   UNL     1       4.166  -4.934   2.536  0.00  0.00    -0.263 NA
ATOM     19  C   UNL     1       3.364  -5.892   2.957  0.00  0.00    +0.111 A 
ATOM     20  C   UNL     1       2.088  -6.024   2.442  0.00  0.00    +0.026 A 
ENDBRANCH   2  15
BRANCH   5  21
ATOM     21  S   UNL     1       1.348  -5.256  -2.389  0.00  0.00    -0.112 S 
BRANCH  21  22
ATOM     22  C   UNL     1       0.763  -5.748  -4.034  0.00  0.00    +0.169 C 
BRANCH  22  23
ATOM     23  C   UNL     1       1.938  -5.868  -4.970  0.00  0.00    +0.242 C 
ATOM     24  O   UNL     1       3.059  -5.643  -4.568  0.00  0.00    -0.273 OA
ATOM     25  N   UNL     1       1.742  -6.224  -6.255  0.00  0.00    -0.206 N 
ATOM     26  H   UNL     1       0.844  -6.404  -6.577  0.00  0.00    +0.177 HD
BRANCH  25  27
ATOM     27  N   UNL     1       2.834  -6.335  -7.126  0.00  0.00    -0.188 NA
ATOM     28  C   UNL     1       2.643  -6.681  -8.374  0.00  0.00    +0.136 C 
BRANCH  28  29
ATOM     29  C   UNL     1       3.736  -6.793  -9.245  0.00  0.00    +0.000 C 
ATOM     30  C   UNL     1       3.707  -7.142 -10.593  0.00  0.00    +0.004 A 
ATOM     31  C   UNL     1       2.651  -7.476 -11.469  0.00  0.00    +0.010 A 
ATOM     32  C   UNL     1       2.921  -7.782 -12.763  0.00  0.00    +0.001 A 
ATOM     33  C   UNL     1       4.228  -7.774 -13.260  0.00  0.00    +0.002 A 
ATOM     34  C   UNL     1       5.289  -7.464 -12.478  0.00  0.00    +0.026 A 
ATOM     35  C   UNL     1       5.086  -7.133 -11.111  0.00  0.00    +0.043 A 
ATOM     36  N   UNL     1       5.933  -6.801 -10.160  0.00  0.00    -0.380 N 
ATOM     37  C   UNL     1       5.194  -6.552  -8.919  0.00  0.00    +0.150 C 
ATOM     38  H   UNL     1       6.895  -6.729 -10.265  0.00  0.00    +0.160 HD
ENDBRANCH  28  29
ENDBRANCH  25  27
ENDBRANCH  22  23
ENDBRANCH  21  22
ENDBRANCH   5  21
TORSDOF 7
