REMARK  Name = ZINC04927336
REMARK  6 active torsions:
REMARK  status: ('A' for Active; 'I' for Inactive)
REMARK    1  A    between atoms: C_1  and  C_2
REMARK    2  A    between atoms: C_2  and  C_3
REMARK    3  A    between atoms: C_3  and  C_5
REMARK    4  A    between atoms: C_3  and  N_6
REMARK    5  A    between atoms: C_7  and  C_9
REMARK    6  A    between atoms: C_19  and  C_21
REMARK                            x       y       z     vdW  Elec       q    Type
REMARK                         _______ _______ _______ _____ _____    ______ ____
ROOT
ATOM      1  C   UNL     1       2.465  -0.705  -5.331  0.00  0.00    +0.028 C 
ATOM      2  C   UNL     1       3.515  -0.070  -6.291  0.00  0.00    +0.061 C 
ATOM      3  S   UNL     1       2.979  -0.888  -7.862  0.00  0.00    -0.174 S 
ATOM      4  C   UNL     1       1.194  -1.033  -7.446  0.00  0.00    -0.016 C 
ATOM      5  C   UNL     1       0.699  -2.425  -7.808  0.00  0.00    +0.017 C 
ATOM      6  C   UNL     1      -0.785  -2.550  -7.443  0.00  0.00    +0.107 C 
ATOM      7  N   UNL     1      -1.520  -1.442  -8.069  0.00  0.00    -0.301 N 
ATOM      8  C   UNL     1      -1.075  -0.065  -7.816  0.00  0.00    +0.107 C 
ATOM      9  C   UNL     1       0.411   0.046  -8.179  0.00  0.00    +0.017 C 
ATOM     10  C   UNL     1      -2.583  -1.685  -8.861  0.00  0.00    +0.219 C 
ATOM     11  O   UNL     1      -2.893  -2.827  -9.126  0.00  0.00    -0.275 OA
ATOM     12  N   UNL     1       1.121  -0.813  -5.968  0.00  0.00    +0.397 N 
ATOM     13  H   UNL     1       0.603   0.055  -5.791  0.00  0.00    -0.083 HD
ATOM     14  H   UNL     1       0.620  -1.603  -5.544  0.00  0.00    -0.083 HD
ENDROOT
BRANCH  10  15
ATOM     15  C   UNL     1      -3.386  -0.538  -9.417  0.00  0.00    +0.075 C 
ATOM     16  C   UNL     1      -4.386  -0.057  -8.363  0.00  0.00    +0.013 C 
ATOM     17  C   UNL     1      -5.201   1.108  -8.928  0.00  0.00    +0.001 C 
ATOM     18  C   UNL     1      -5.957   0.645 -10.175  0.00  0.00    +0.000 C 
ATOM     19  C   UNL     1      -4.957   0.164 -11.228  0.00  0.00    +0.001 C 
ATOM     20  C   UNL     1      -4.142  -1.001 -10.664  0.00  0.00    +0.013 C 
ENDBRANCH  10  15
BRANCH   1  22
ATOM     21  N   UNL     1       3.398   0.385  -3.316  0.00  0.00    -0.314 N 
ATOM     22  C   UNL     1       2.328   0.160  -4.104  0.00  0.00    +0.200 C 
ATOM     23  O   UNL     1       1.255   0.652  -3.826  0.00  0.00    -0.278 OA
ATOM     24  H   UNL     1       4.256  -0.009  -3.539  0.00  0.00    +0.149 HD
BRANCH  21  25
ATOM     25  C   UNL     1       3.265   1.225  -2.123  0.00  0.00    +0.070 C 
ATOM     26  C   UNL     1       3.427   2.695  -2.515  0.00  0.00    +0.028 C 
BRANCH  25  28
ATOM     27  C   UNL     1       4.109  -0.587  -0.624  0.00  0.00    +0.005 C 
ATOM     28  C   UNL     1       4.346   0.845  -1.109  0.00  0.00    +0.018 C 
ENDBRANCH  25  28
ENDBRANCH  21  25
ENDBRANCH   1  22
TORSDOF 4
