REMARK  Name = ZINC00903757
REMARK  11 active torsions:
REMARK  status: ('A' for Active; 'I' for Inactive)
REMARK    1  A    between atoms: C_1  and  C_2
REMARK    2  A    between atoms: C_5  and  N_8
REMARK    3  A    between atoms: N_8  and  C_9
REMARK    4  A    between atoms: C_9  and  C_11
REMARK    5  A    between atoms: C_9  and  C_18
REMARK    6  A    between atoms: N_20  and  C_21
REMARK    7  A    between atoms: C_21  and  C_22
REMARK    8  A    between atoms: C_28  and  C_30
REMARK    9  A    between atoms: C_30  and  N_31
REMARK   10  A    between atoms: C_33  and  C_36
REMARK   11  A    between atoms: C_39  and  C_41
REMARK                            x       y       z     vdW  Elec       q    Type
REMARK                         _______ _______ _______ _____ _____    ______ ____
ROOT
ATOM      1  N   UNL     1      -0.289  -4.185  -0.002  0.00  0.00    -0.254 N 
ATOM      2  C   UNL     1      -0.320  -4.923  -1.130  0.00  0.00    +0.244 C 
ATOM      3  O   UNL     1      -0.085  -6.111  -1.084  0.00  0.00    -0.273 OA
ENDROOT
BRANCH   1   8
ATOM      4  C   UNL     1      -1.803   1.281  -0.143  0.00  0.00    +0.044 C 
ATOM      5  C   UNL     1      -1.401  -0.171  -0.106  0.00  0.00    -0.050 A 
ATOM      6  C   UNL     1      -2.206  -1.094   0.536  0.00  0.00    +0.005 A 
ATOM      7  C   UNL     1      -1.841  -2.425   0.572  0.00  0.00    +0.024 A 
ATOM      8  C   UNL     1      -0.663  -2.837  -0.037  0.00  0.00    +0.038 A 
ATOM      9  C   UNL     1       0.143  -1.908  -0.682  0.00  0.00    +0.024 A 
ATOM     10  C   UNL     1      -0.230  -0.579  -0.719  0.00  0.00    +0.005 A 
ENDBRANCH   1   8
BRANCH   1  11
ATOM     11  C   UNL     1       0.136  -4.794   1.260  0.00  0.00    +0.197 C 
BRANCH  11  12
ATOM     12  C   UNL     1      -0.043  -3.804   2.382  0.00  0.00    -0.018 A 
ATOM     13  C   UNL     1       0.593  -2.578   2.328  0.00  0.00    +0.009 A 
ATOM     14  C   UNL     1       0.429  -1.668   3.356  0.00  0.00    +0.038 A 
ATOM     15  C   UNL     1      -0.372  -1.985   4.439  0.00  0.00    +0.123 A 
ATOM     16  C   UNL     1      -1.009  -3.214   4.492  0.00  0.00    +0.038 A 
ATOM     17  C   UNL     1      -0.848  -4.120   3.461  0.00  0.00    +0.009 A 
ATOM     18  F   UNL     1      -0.532  -1.097   5.444  0.00  0.00    -0.205 F 
ENDBRANCH  11  12
BRANCH  11  19
ATOM     19  C   UNL     1       1.587  -5.188   1.164  0.00  0.00    +0.239 C 
ATOM     20  O   UNL     1       2.206  -4.980   0.142  0.00  0.00    -0.273 OA
ATOM     21  N   UNL     1       2.198  -5.771   2.215  0.00  0.00    -0.311 N 
ATOM     22  H   UNL     1       1.703  -5.938   3.032  0.00  0.00    +0.149 HD
BRANCH  21  23
ATOM     23  C   UNL     1       3.609  -6.154   2.122  0.00  0.00    +0.135 C 
BRANCH  23  24
ATOM     24  C   UNL     1       4.053  -6.791   3.440  0.00  0.00    +0.135 C 
ATOM     25  C   UNL     1       5.568  -7.087   3.395  0.00  0.00    +0.035 C 
ATOM     26  C   UNL     1       5.657  -8.459   4.117  0.00  0.00    +0.031 C 
ATOM     27  C   UNL     1       4.325  -9.113   3.672  0.00  0.00    +0.160 C 
ATOM     28  O   UNL     1       3.372  -8.036   3.632  0.00  0.00    -0.375 OA
ENDBRANCH  23  24
ENDBRANCH  21  23
ENDBRANCH  11  19
ENDBRANCH   1  11
BRANCH   2  29
ATOM     29  C   UNL     1      -0.648  -4.270  -2.448  0.00  0.00    +0.264 C 
BRANCH  29  30
ATOM     30  N   UNL     1      -0.742  -5.295  -3.490  0.00  0.00    -0.154 N 
ATOM     31  N   UNL     1       0.238  -5.710  -4.218  0.00  0.00    -0.127 NA
ATOM     32  C   UNL     1      -0.230  -6.631  -5.039  0.00  0.00    +0.239 A 
ATOM     33  N   UNL     1      -1.540  -6.752  -4.772  0.00  0.00    -0.105 NA
ATOM     34  N   UNL     1      -1.814  -5.927  -3.819  0.00  0.00    -0.045 NA
BRANCH  32  35
ATOM     35  C   UNL     1       0.538  -7.382  -6.055  0.00  0.00    +0.175 A 
ATOM     36  C   UNL     1       0.038  -8.325  -6.897  0.00  0.00    +0.053 A 
ATOM     37  C   UNL     1       1.114  -8.775  -7.688  0.00  0.00    +0.045 A 
ATOM     38  C   UNL     1       2.206  -8.092  -7.293  0.00  0.00    +0.103 A 
ATOM     39  O   UNL     1       1.853  -7.247  -6.311  0.00  0.00    -0.457 OA
ATOM     40  C   UNL     1       3.592  -8.245  -7.865  0.00  0.00    +0.086 C 
ENDBRANCH  32  35
ENDBRANCH  29  30
ENDBRANCH   2  29
TORSDOF 9
