REMARK  Name = ZINC65182632
REMARK  11 active torsions:
REMARK  status: ('A' for Active; 'I' for Inactive)
REMARK    1  A    between atoms: C_1  and  C_2
REMARK    2  A    between atoms: C_2  and  C_3
REMARK    3  A    between atoms: C_3  and  C_5
REMARK    4  A    between atoms: C_3  and  C_11
REMARK    5  A    between atoms: N_13  and  C_14
REMARK    6  A    between atoms: N_13  and  C_15
REMARK    7  A    between atoms: C_15  and  C_16
REMARK    8  A    between atoms: C_16  and  C_17
REMARK    9  A    between atoms: C_20  and  C_23
REMARK   10  A    between atoms: C_25  and  C_34
REMARK   11  A    between atoms: C_28  and  C_33
REMARK                            x       y       z     vdW  Elec       q    Type
REMARK                         _______ _______ _______ _____ _____    ______ ____
ROOT
ATOM      1  C   UNL     1       5.577   2.595  -2.458  0.00  0.00    +0.139 C 
ATOM      2  N   UNL     1       6.281   2.681  -1.388  0.00  0.00    -0.072 NA
ATOM      3  O   UNL     1       7.583   3.155  -1.673  0.00  0.00    -0.367 OA
ATOM      4  C   UNL     1       7.633   3.370  -3.092  0.00  0.00    +0.318 C 
ATOM      5  N   UNL     1       6.294   2.984  -3.565  0.00  0.00    -0.291 N 
ATOM      6  H   UNL     1       5.978   3.001  -4.482  0.00  0.00    +0.151 HD
ENDROOT
BRANCH   4   7
ATOM      7  C   UNL     1       8.702   2.480  -3.730  0.00  0.00    +0.168 C 
ATOM      8  C   UNL     1      10.069   2.838  -3.191  0.00  0.00    -0.036 C 
ATOM      9  C   UNL     1      10.799   3.237  -4.256  0.00  0.00    -0.001 A 
ATOM     10  C   UNL     1      12.184   3.705  -4.393  0.00  0.00    +0.013 A 
ATOM     11  C   UNL     1      12.644   4.043  -5.620  0.00  0.00    -0.050 A 
ATOM     12  C   UNL     1      11.834   3.957  -6.760  0.00  0.00    +0.005 A 
ATOM     13  C   UNL     1      10.552   3.536  -6.714  0.00  0.00    +0.026 A 
ATOM     14  C   UNL     1       9.964   3.156  -5.476  0.00  0.00    +0.043 A 
ATOM     15  N   UNL     1       8.763   2.721  -5.176  0.00  0.00    -0.373 N 
ATOM     16  C   UNL     1      14.065   4.524  -5.763  0.00  0.00    +0.044 C 
ATOM     17  C   UNL     1      10.524   2.764  -1.756  0.00  0.00    +0.042 C 
ATOM     18  H   UNL     1       8.037   2.583  -5.804  0.00  0.00    +0.160 HD
ENDBRANCH   4   7
BRANCH   1  19
ATOM     19  C   UNL     1       4.147   2.123  -2.497  0.00  0.00    +0.094 C 
BRANCH  19  20
ATOM     20  C   UNL     1       3.685   1.778  -1.079  0.00  0.00    +0.115 C 
BRANCH  20  23
ATOM     21  C   UNL     1       2.022   0.009  -1.282  0.00  0.00    +0.223 C 
ATOM     22  O   UNL     1       2.922  -0.776  -1.489  0.00  0.00    -0.275 OA
ATOM     23  N   UNL     1       2.295   1.319  -1.117  0.00  0.00    -0.304 N 
ATOM     24  C   UNL     1       1.200   2.283  -0.976  0.00  0.00    +0.132 C 
BRANCH  21  25
ATOM     25  C   UNL     1       0.598  -0.479  -1.209  0.00  0.00    +0.105 C 
BRANCH  25  26
ATOM     26  C   UNL     1       0.020  -0.550  -2.599  0.00  0.00    -0.036 A 
ATOM     27  C   UNL     1       0.601  -1.371  -3.548  0.00  0.00    +0.004 A 
ATOM     28  C   UNL     1       0.070  -1.436  -4.823  0.00  0.00    +0.000 A 
ATOM     29  C   UNL     1      -1.041  -0.682  -5.149  0.00  0.00    +0.000 A 
ATOM     30  C   UNL     1      -1.623   0.138  -4.199  0.00  0.00    +0.000 A 
ATOM     31  C   UNL     1      -1.095   0.200  -2.923  0.00  0.00    +0.004 A 
ENDBRANCH  25  26
BRANCH  25  33
ATOM     32  C   UNL     1       1.021  -1.773   0.886  0.00  0.00    +0.005 C 
ATOM     33  C   UNL     1       0.567  -1.869  -0.572  0.00  0.00    +0.014 C 
ENDBRANCH  25  33
ENDBRANCH  21  25
ENDBRANCH  20  23
ENDBRANCH  19  20
ENDBRANCH   1  19
TORSDOF 7
