REMARK  Name = ZINC57288303
REMARK  7 active torsions:
REMARK  status: ('A' for Active; 'I' for Inactive)
REMARK    1  A    between atoms: C_1  and  C_2
REMARK    2  A    between atoms: C_2  and  C_4
REMARK    3  A    between atoms: C_2  and  N_20
REMARK    4  A    between atoms: N_6  and  C_7
REMARK    5  A    between atoms: C_7  and  C_8
REMARK    6  A    between atoms: C_8  and  C_10
REMARK    7  A    between atoms: C_8  and  N_15
REMARK                            x       y       z     vdW  Elec       q    Type
REMARK                         _______ _______ _______ _____ _____    ______ ____
ROOT
ATOM      1  C   UNL     1       1.714  -2.773  -2.772  0.00  0.00    +0.233 C 
ATOM      2  O   UNL     1       2.432  -2.173  -2.000  0.00  0.00    -0.274 OA
ATOM      3  N   UNL     1       0.998  -2.095  -3.691  0.00  0.00    -0.315 N 
ATOM      4  H   UNL     1       0.424  -2.574  -4.309  0.00  0.00    +0.149 HD
ENDROOT
BRANCH   1   6
ATOM      5  C   UNL     1       0.176  -4.686  -2.423  0.00  0.00    +0.038 C 
ATOM      6  C   UNL     1       1.623  -4.275  -2.705  0.00  0.00    +0.157 C 
BRANCH   6   7
ATOM      7  N   UNL     1       2.489  -4.769  -1.631  0.00  0.00    -0.289 N 
ATOM      8  C   UNL     1       2.972  -6.026  -1.680  0.00  0.00    +0.298 C 
ATOM      9  O   UNL     1       2.690  -6.750  -2.615  0.00  0.00    -0.253 OA
ATOM     10  N   UNL     1       3.769  -6.481  -0.693  0.00  0.00    -0.313 N 
ATOM     11  H   UNL     1       2.714  -4.192  -0.885  0.00  0.00    +0.151 HD
ATOM     12  H   UNL     1       3.994  -5.903   0.053  0.00  0.00    +0.146 HD
ATOM     13  H   UNL     1       4.117  -7.386  -0.728  0.00  0.00    +0.146 HD
ENDBRANCH   6   7
ENDBRANCH   1   6
BRANCH   3  14
ATOM     14  C   UNL     1       1.087  -0.634  -3.757  0.00  0.00    +0.094 C 
BRANCH  14  15
ATOM     15  C   UNL     1       0.288  -0.128  -4.960  0.00  0.00    -0.013 C 
BRANCH  15  16
ATOM     16  N   UNL     1       0.268   1.341  -4.952  0.00  0.00    +0.386 N 
ATOM     17  C   UNL     1      -0.522   1.849  -6.103  0.00  0.00    -0.078 C 
ATOM     18  C   UNL     1      -0.919   3.279  -5.657  0.00  0.00    -0.020 C 
ATOM     19  C   UNL     1      -1.191   3.106  -4.145  0.00  0.00    -0.020 C 
ATOM     20  C   UNL     1      -0.422   1.835  -3.740  0.00  0.00    -0.078 C 
ATOM     21  H   UNL     1       1.209   1.702  -4.988  0.00  0.00    -0.081 HD
ENDBRANCH  15  16
BRANCH  15  22
ATOM     22  C   UNL     1       0.933  -0.615  -6.232  0.00  0.00    -0.022 A 
ATOM     23  C   UNL     1       0.580  -1.657  -7.023  0.00  0.00    +0.009 A 
ATOM     24  C   UNL     1       1.326  -1.921  -8.157  0.00  0.00    +0.008 A 
ATOM     25  C   UNL     1       2.389  -1.130  -8.443  0.00  0.00    +0.045 A 
ATOM     26  S   UNL     1       2.355   0.037  -7.092  0.00  0.00    -0.103 S 
ENDBRANCH  15  22
ENDBRANCH  14  15
ENDBRANCH   3  14
TORSDOF 6
