REMARK  Name = ZINC67536454
REMARK  10 active torsions:
REMARK  status: ('A' for Active; 'I' for Inactive)
REMARK    1  A    between atoms: C_1  and  C_2
REMARK    2  A    between atoms: C_2  and  C_4
REMARK    3  A    between atoms: C_2  and  N_14
REMARK    4  A    between atoms: C_8  and  O_10
REMARK    5  A    between atoms: O_10  and  C_11
REMARK    6  A    between atoms: C_11  and  C_12
REMARK    7  A    between atoms: C_11  and  C_13
REMARK    8  A    between atoms: N_17  and  C_18
REMARK    9  A    between atoms: C_18  and  C_19
REMARK   10  A    between atoms: C_23  and  N_25
REMARK                            x       y       z     vdW  Elec       q    Type
REMARK                         _______ _______ _______ _____ _____    ______ ____
ROOT
ATOM      1  N   UNL     1       0.631   0.540   0.867  0.00  0.00    -0.293 N 
ATOM      2  C   UNL     1      -0.039   0.599   2.034  0.00  0.00    +0.300 C 
ATOM      3  O   UNL     1      -1.226   0.861   2.042  0.00  0.00    -0.253 OA
ATOM      4  N   UNL     1       0.607   0.368   3.195  0.00  0.00    -0.295 N 
ATOM      5  H   UNL     1       1.578   0.330   0.861  0.00  0.00    +0.151 HD
ATOM      6  H   UNL     1       1.554   0.158   3.189  0.00  0.00    +0.151 HD
ENDROOT
BRANCH   1   8
ATOM      7  C   UNL     1      -0.113   2.297  -0.663  0.00  0.00    +0.033 C 
ATOM      8  C   UNL     1      -0.071   0.791  -0.394  0.00  0.00    +0.102 C 
BRANCH   8   9
ATOM      9  C   UNL     1       0.654   0.099  -1.520  0.00  0.00    -0.024 A 
ATOM     10  C   UNL     1       2.037   0.092  -1.550  0.00  0.00    +0.006 A 
ATOM     11  C   UNL     1       2.705  -0.541  -2.581  0.00  0.00    +0.004 A 
ATOM     12  C   UNL     1       1.993  -1.169  -3.585  0.00  0.00    +0.045 A 
ATOM     13  C   UNL     1       0.606  -1.163  -3.557  0.00  0.00    +0.121 A 
ATOM     14  C   UNL     1      -0.062  -0.532  -2.518  0.00  0.00    +0.051 A 
BRANCH  13  15
ATOM     15  O   UNL     1      -0.097  -1.780  -4.543  0.00  0.00    -0.489 OA
BRANCH  15  16
ATOM     16  C   UNL     1      -1.517  -1.836  -4.390  0.00  0.00    +0.167 C 
ATOM     17  C   UNL     1      -2.138  -0.539  -4.913  0.00  0.00    +0.051 C 
ATOM     18  C   UNL     1      -2.069  -3.022  -5.184  0.00  0.00    +0.051 C 
ENDBRANCH  15  16
ENDBRANCH  13  15
ENDBRANCH   8   9
ENDBRANCH   1   8
BRANCH   4  19
ATOM     19  C   UNL     1      -0.121   0.432   4.464  0.00  0.00    +0.141 C 
BRANCH  19  20
ATOM     20  C   UNL     1       0.824   0.137   5.601  0.00  0.00    -0.028 A 
ATOM     21  C   UNL     1       1.003  -1.165   6.029  0.00  0.00    +0.005 A 
ATOM     22  C   UNL     1       1.869  -1.437   7.072  0.00  0.00    +0.003 A 
ATOM     23  C   UNL     1       2.557  -0.406   7.685  0.00  0.00    +0.033 A 
ATOM     24  C   UNL     1       2.378   0.896   7.256  0.00  0.00    +0.127 A 
ATOM     25  C   UNL     1       1.515   1.167   6.210  0.00  0.00    +0.038 A 
BRANCH  24  26
ATOM     26  N   UNL     1       3.114   2.000   7.913  0.00  0.00    +0.056 N 
ATOM     27  O   UNL     1       3.871   1.762   8.825  0.00  0.00    -0.126 OA
ATOM     28  O   UNL     1       2.957   3.138   7.537  0.00  0.00    -0.126 OA
ENDBRANCH  24  26
ENDBRANCH  19  20
ENDBRANCH   4  19
TORSDOF 7
