REMARK  Name = ZINC40173233
REMARK  11 active torsions:
REMARK  status: ('A' for Active; 'I' for Inactive)
REMARK    1  A    between atoms: C_1  and  C_2
REMARK    2  A    between atoms: C_2  and  O_3
REMARK    3  A    between atoms: O_3  and  C_4
REMARK    4  A    between atoms: C_4  and  C_6
REMARK    5  A    between atoms: C_10  and  N_11
REMARK    6  A    between atoms: C_12  and  C_14
REMARK    7  A    between atoms: C_14  and  C_16
REMARK    8  A    between atoms: C_14  and  N_17
REMARK    9  A    between atoms: C_21  and  S_22
REMARK   10  A    between atoms: S_22  and  C_23
REMARK   11  A    between atoms: C_23  and  C_24
REMARK                            x       y       z     vdW  Elec       q    Type
REMARK                         _______ _______ _______ _____ _____    ______ ____
ROOT
ATOM      1  C   UNL     1      -2.591  -2.599  -5.391  0.00  0.00    +0.175 C 
ATOM      2  C   UNL     1      -3.396  -3.444  -4.401  0.00  0.00    +0.041 C 
ENDROOT
BRANCH   1   3
ATOM      3  N   UNL     1      -2.898  -3.024  -6.759  0.00  0.00    -0.279 N 
ATOM      4  C   UNL     1      -2.707  -4.276  -7.273  0.00  0.00    +0.216 A 
ATOM      5  N   UNL     1      -3.100  -4.265  -8.523  0.00  0.00    -0.113 NA
ATOM      6  N   UNL     1      -3.556  -2.974  -8.822  0.00  0.00    -0.121 NA
ATOM      7  C   UNL     1      -3.431  -2.240  -7.743  0.00  0.00    +0.194 A 
ATOM      8  N   UNL     1      -2.187  -5.368  -6.590  0.00  0.00    -0.328 N 
ATOM      9  H   UNL     1      -1.921  -5.278  -5.662  0.00  0.00    +0.145 HD
ATOM     10  H   UNL     1      -2.088  -6.220  -7.043  0.00  0.00    +0.145 HD
BRANCH   7  11
ATOM     11  S   UNL     1      -3.869  -0.540  -7.590  0.00  0.00    -0.081 S 
BRANCH  11  12
ATOM     12  C   UNL     1      -4.509  -0.103  -9.230  0.00  0.00    +0.114 C 
BRANCH  12  13
ATOM     13  C   UNL     1      -4.926   1.345  -9.236  0.00  0.00    -0.019 A 
ATOM     14  C   UNL     1      -6.217   1.695  -8.888  0.00  0.00    +0.006 A 
ATOM     15  C   UNL     1      -6.599   3.023  -8.894  0.00  0.00    +0.000 A 
ATOM     16  C   UNL     1      -5.691   4.003  -9.248  0.00  0.00    +0.001 A 
ATOM     17  C   UNL     1      -4.399   3.655  -9.597  0.00  0.00    +0.020 A 
ATOM     18  C   UNL     1      -4.015   2.326  -9.585  0.00  0.00    +0.045 A 
ATOM     19 CL   UNL     1      -2.391   1.888 -10.016  0.00  0.00    -0.083 Cl
ENDBRANCH  12  13
ENDBRANCH  11  12
ENDBRANCH   7  11
ENDBRANCH   1   3
BRANCH   1  21
ATOM     20  N   UNL     1      -0.604  -2.455  -3.925  0.00  0.00    -0.278 N 
ATOM     21  C   UNL     1      -1.119  -2.783  -5.126  0.00  0.00    +0.240 C 
ATOM     22  O   UNL     1      -0.397  -3.225  -5.995  0.00  0.00    -0.273 OA
ATOM     23  H   UNL     1      -1.181  -2.102  -3.230  0.00  0.00    +0.155 HD
BRANCH  20  28
ATOM     24  C   UNL     1       1.449  -2.344  -2.516  0.00  0.00    +0.091 A 
ATOM     25  C   UNL     1       2.876  -2.619  -2.515  0.00  0.00    -0.021 A 
ATOM     26  C   UNL     1       3.343  -3.117  -3.680  0.00  0.00    -0.004 A 
ATOM     27  S   UNL     1       1.922  -3.212  -4.730  0.00  0.00    -0.077 S 
ATOM     28  C   UNL     1       0.750  -2.624  -3.681  0.00  0.00    +0.086 A 
ATOM     29  C   UNL     1       4.757  -3.498  -3.993  0.00  0.00    +0.043 C 
ATOM     30  C   UNL     1       5.669  -2.887  -2.920  0.00  0.00    +0.005 C 
ATOM     31  C   UNL     1       5.082  -3.191  -1.538  0.00  0.00    +0.005 C 
ATOM     32  C   UNL     1       3.799  -2.383  -1.329  0.00  0.00    +0.037 C 
BRANCH  24  33
ATOM     33  C   UNL     1       0.776  -1.800  -1.335  0.00  0.00    +0.342 C 
ATOM     34  O   UNL     1       0.312  -2.552  -0.499  0.00  0.00    -0.245 OA
BRANCH  33  35
ATOM     35  O   UNL     1       0.671  -0.465  -1.174  0.00  0.00    -0.461 OA
BRANCH  35  37
ATOM     36  C   UNL     1      -0.019   1.526   0.010  0.00  0.00    +0.048 C 
ATOM     37  C   UNL     1       0.002  -0.004   0.002  0.00  0.00    +0.229 C 
ENDBRANCH  35  37
ENDBRANCH  33  35
ENDBRANCH  24  33
ENDBRANCH  20  28
ENDBRANCH   1  21
TORSDOF 9
