REMARK  Name = ZINC00918718
REMARK  4 active torsions:
REMARK  status: ('A' for Active; 'I' for Inactive)
REMARK    1  A    between atoms: C_5  and  N_7
REMARK    2  A    between atoms: C_8  and  C_10
REMARK    3  A    between atoms: C_15  and  C_26
REMARK    4  A    between atoms: C_18  and  C_21
REMARK                            x       y       z     vdW  Elec       q    Type
REMARK                         _______ _______ _______ _____ _____    ______ ____
ROOT
ATOM      1  C   UNL     1       0.118  -4.245   0.189  0.00  0.00    +0.149 A 
ATOM      2  C   UNL     1      -1.007  -5.094   0.302  0.00  0.00    +0.078 A 
ATOM      3  C   UNL     1      -0.555  -6.362   0.368  0.00  0.00    +0.119 A 
ATOM      4  N   UNL     1       0.809  -6.332   0.303  0.00  0.00    -0.238 N 
ATOM      5  N   UNL     1       1.204  -5.000   0.185  0.00  0.00    -0.164 NA
ATOM      6  C   UNL     1       1.651  -7.530   0.350  0.00  0.00    +0.215 C 
ATOM      7  C   UNL     1       0.841  -8.683   0.953  0.00  0.00    +0.066 C 
ATOM      8  C   UNL     1      -0.513  -8.796   0.243  0.00  0.00    +0.140 C 
ATOM      9  N   UNL     1      -1.274  -7.555   0.483  0.00  0.00    -0.319 N 
ATOM     10  H   UNL     1      -2.218  -7.566   0.707  0.00  0.00    +0.148 HD
ENDROOT
BRANCH   8  11
ATOM     11  C   UNL     1      -1.274  -9.976   0.791  0.00  0.00    +0.125 A 
ATOM     12  C   UNL     1      -1.367 -11.188   0.216  0.00  0.00    +0.046 A 
ATOM     13  C   UNL     1      -2.171 -11.984   1.065  0.00  0.00    +0.041 A 
ATOM     14  C   UNL     1      -2.522 -11.210   2.107  0.00  0.00    +0.195 A 
ATOM     15  O   UNL     1      -1.971  -9.996   1.939  0.00  0.00    -0.466 OA
ENDBRANCH   8  11
BRANCH   1  17
ATOM     16  N   UNL     1       1.237  -2.079  -0.022  0.00  0.00    -0.279 N 
ATOM     17  C   UNL     1       0.086  -2.772   0.087  0.00  0.00    +0.268 C 
ATOM     18  O   UNL     1      -0.978  -2.185   0.102  0.00  0.00    -0.268 OA
ATOM     19  H   UNL     1       2.082  -2.550  -0.100  0.00  0.00    +0.155 HD
BRANCH  16  24
ATOM     20  C   UNL     1       0.136   1.378  -0.616  0.00  0.00    +0.002 A 
ATOM     21  C   UNL     1       1.168   2.087  -0.029  0.00  0.00    +0.001 A 
ATOM     22  C   UNL     1       2.224   1.416   0.560  0.00  0.00    +0.017 A 
ATOM     23  C   UNL     1       2.250   0.034   0.564  0.00  0.00    +0.039 A 
ATOM     24  C   UNL     1       1.214  -0.681  -0.024  0.00  0.00    +0.048 A 
ATOM     25  C   UNL     1       0.155  -0.003  -0.615  0.00  0.00    +0.024 A 
ATOM     26 BR   UNL     1       3.695  -0.883   1.369  0.00  0.00    -0.048 Br
ENDBRANCH  16  24
ENDBRANCH   1  17
BRANCH   6  27
ATOM     27  C   UNL     1       2.882  -7.257   1.218  0.00  0.00    +0.412 C 
ATOM     28  F   UNL     1       2.474  -6.923   2.514  0.00  0.00    -0.168 F 
ATOM     29  F   UNL     1       3.685  -8.402   1.262  0.00  0.00    -0.168 F 
ATOM     30  F   UNL     1       3.612  -6.196   0.671  0.00  0.00    -0.168 F 
ENDBRANCH   6  27
TORSDOF 4
