REMARK  Name = ZINC02088789
REMARK  12 active torsions:
REMARK  status: ('A' for Active; 'I' for Inactive)
REMARK    1  A    between atoms: C_1  and  C_2
REMARK    2  A    between atoms: C_3  and  C_22
REMARK    3  A    between atoms: C_4  and  C_19
REMARK    4  A    between atoms: C_5  and  N_7
REMARK    5  A    between atoms: C_8  and  C_10
REMARK    6  A    between atoms: C_10  and  C_11
REMARK    7  A    between atoms: C_11  and  C_12
REMARK    8  A    between atoms: C_12  and  C_13
REMARK    9  A    between atoms: C_25  and  C_28
REMARK   10  A    between atoms: C_28  and  C_29
REMARK   11  A    between atoms: C_28  and  C_30
REMARK   12  A    between atoms: C_28  and  C_31
REMARK                            x       y       z     vdW  Elec       q    Type
REMARK                         _______ _______ _______ _____ _____    ______ ____
ROOT
ATOM      1  C   UNL     1       5.326  -1.704  -0.058  0.00  0.00    +0.052 C 
ATOM      2  C   UNL     1       4.405  -0.510  -0.043  0.00  0.00    -0.003 A 
ATOM      3  C   UNL     1       4.734   0.807  -0.038  0.00  0.00    +0.006 A 
ATOM      4  C   UNL     1       3.635   1.753  -0.029  0.00  0.00    +0.073 A 
ATOM      5  C   UNL     1       2.353   1.222  -0.014  0.00  0.00    +0.085 A 
ATOM      6  S   UNL     1       2.625  -0.488  -0.026  0.00  0.00    -0.077 S 
ENDROOT
BRANCH   3   7
ATOM      7  C   UNL     1       6.147   1.256  -0.050  0.00  0.00    -0.016 A 
ATOM      8  C   UNL     1       6.668   1.953   1.040  0.00  0.00    +0.009 A 
ATOM      9  C   UNL     1       7.985   2.364   1.026  0.00  0.00    +0.005 A 
ATOM     10  C   UNL     1       8.785   2.095  -0.070  0.00  0.00    -0.042 A 
ATOM     11  C   UNL     1       8.272   1.409  -1.156  0.00  0.00    +0.005 A 
ATOM     12  C   UNL     1       6.958   0.989  -1.152  0.00  0.00    +0.009 A 
BRANCH  10  13
ATOM     13  C   UNL     1      10.221   2.552  -0.082  0.00  0.00    -0.013 C 
ATOM     14  C   UNL     1      10.445   3.502  -1.260  0.00  0.00    +0.015 C 
ATOM     15  C   UNL     1      10.535   3.280   1.227  0.00  0.00    +0.015 C 
ATOM     16  C   UNL     1      11.142   1.338  -0.223  0.00  0.00    +0.015 C 
ENDBRANCH  10  13
ENDBRANCH   3   7
BRANCH   4  17
ATOM     17  C   UNL     1       3.866   3.199  -0.031  0.00  0.00    +0.244 C 
ATOM     18  O   UNL     1       3.976   3.800   1.022  0.00  0.00    -0.270 OA
ATOM     19  N   UNL     1       3.959   3.865  -1.199  0.00  0.00    -0.325 N 
ATOM     20  H   UNL     1       3.872   3.387  -2.038  0.00  0.00    +0.145 HD
ATOM     21  H   UNL     1       4.112   4.823  -1.200  0.00  0.00    +0.145 HD
ENDBRANCH   4  17
BRANCH   5  22
ATOM     22  N   UNL     1       1.143   1.898   0.001  0.00  0.00    -0.279 N 
ATOM     23  C   UNL     1      -0.014   1.209   0.009  0.00  0.00    +0.218 C 
ATOM     24  O   UNL     1       0.002  -0.004   0.002  0.00  0.00    -0.275 OA
ATOM     25  H   UNL     1       1.130   2.868   0.007  0.00  0.00    +0.155 HD
BRANCH  23  26
ATOM     26  C   UNL     1      -1.330   1.944   0.019  0.00  0.00    +0.096 C 
BRANCH  26  27
ATOM     27  C   UNL     1      -2.479   0.934   0.019  0.00  0.00    +0.014 C 
BRANCH  27  28
ATOM     28  C   UNL     1      -3.814   1.681   0.029  0.00  0.00    +0.035 C 
BRANCH  28  29
ATOM     29  C   UNL     1      -4.946   0.686   0.029  0.00  0.00    -0.047 A 
ATOM     30  C   UNL     1      -5.475   0.241  -1.168  0.00  0.00    +0.003 A 
ATOM     31  C   UNL     1      -6.510  -0.675  -1.168  0.00  0.00    +0.000 A 
ATOM     32  C   UNL     1      -7.023  -1.138   0.029  0.00  0.00    +0.000 A 
ATOM     33  C   UNL     1      -6.498  -0.688   1.226  0.00  0.00    +0.000 A 
ATOM     34  C   UNL     1      -5.460   0.224   1.226  0.00  0.00    +0.003 A 
ENDBRANCH  28  29
ENDBRANCH  27  28
ENDBRANCH  26  27
ENDBRANCH  23  26
ENDBRANCH   5  22
TORSDOF 8
