REMARK  Name = ZINC22437042
REMARK  8 active torsions:
REMARK  status: ('A' for Active; 'I' for Inactive)
REMARK    1  A    between atoms: C_1  and  C_2
REMARK    2  A    between atoms: C_7  and  N_8
REMARK    3  A    between atoms: C_9  and  C_13
REMARK    4  A    between atoms: C_13  and  N_20
REMARK    5  A    between atoms: C_16  and  C_19
REMARK    6  A    between atoms: N_20  and  C_21
REMARK    7  A    between atoms: C_24  and  O_27
REMARK    8  A    between atoms: O_27  and  C_28
REMARK                            x       y       z     vdW  Elec       q    Type
REMARK                         _______ _______ _______ _____ _____    ______ ____
ROOT
ATOM      1  C   UNL     1       2.736  -0.497  -0.343  0.00  0.00    +0.094 C 
ATOM      2  C   UNL     1       2.872   0.462  -1.526  0.00  0.00    +0.034 C 
ATOM      3  C   UNL     1       4.320   0.949  -1.625  0.00  0.00    +0.006 C 
ATOM      4  C   UNL     1       5.248  -0.250  -1.830  0.00  0.00    -0.014 C 
ATOM      5  C   UNL     1       5.111  -1.210  -0.646  0.00  0.00    +0.006 C 
ATOM      6  C   UNL     1       3.664  -1.696  -0.548  0.00  0.00    +0.034 C 
ATOM      7  C   UNL     1       6.695   0.236  -1.929  0.00  0.00    +0.007 C 
ENDROOT
BRANCH   1   9
ATOM      8  N   UNL     1       0.232  -0.224   0.063  0.00  0.00    -0.195 N 
ATOM      9  C   UNL     1       1.310  -0.976  -0.246  0.00  0.00    +0.180 A 
ATOM     10  N   UNL     1       0.888  -2.197  -0.445  0.00  0.00    -0.111 NA
ATOM     11  N   UNL     1      -0.384  -2.268  -0.283  0.00  0.00    -0.023 NA
ATOM     12  N   UNL     1      -0.858  -1.111   0.033  0.00  0.00    -0.039 NA
BRANCH   8  19
ATOM     13  C   UNL     1      -0.557   1.579  -1.993  0.00  0.00    +0.046 C 
ATOM     14  C   UNL     1      -0.173   2.061  -0.617  0.00  0.00    -0.025 A 
ATOM     15  C   UNL     1      -0.202   3.410  -0.323  0.00  0.00    +0.005 A 
ATOM     16  C   UNL     1       0.156   3.853   0.936  0.00  0.00    +0.000 A 
ATOM     17  C   UNL     1       0.539   2.946   1.908  0.00  0.00    +0.002 A 
ATOM     18  C   UNL     1       0.565   1.595   1.621  0.00  0.00    +0.028 A 
ATOM     19  C   UNL     1       0.206   1.148   0.357  0.00  0.00    +0.072 A 
ENDBRANCH   8  19
ENDBRANCH   1   9
BRANCH   1  20
ATOM     20  N   UNL     1       3.103   0.198   0.894  0.00  0.00    -0.332 N 
ATOM     21  H   UNL     1       3.380   1.262   0.865  0.00  0.00    +0.147 HD
BRANCH  20  22
ATOM     22  C   UNL     1       3.099  -0.492   2.111  0.00  0.00    +0.028 A 
ATOM     23  C   UNL     1       2.623  -1.795   2.171  0.00  0.00    +0.026 A 
ATOM     24  C   UNL     1       2.625  -2.477   3.372  0.00  0.00    +0.047 A 
ATOM     25  C   UNL     1       3.093  -1.857   4.521  0.00  0.00    +0.120 A 
ATOM     26  C   UNL     1       3.564  -0.554   4.464  0.00  0.00    +0.047 A 
ATOM     27  C   UNL     1       3.568   0.128   3.262  0.00  0.00    +0.026 A 
BRANCH  25  28
ATOM     28  O   UNL     1       3.089  -2.527   5.704  0.00  0.00    -0.495 OA
ATOM     29  C   UNL     1       2.696  -3.900   5.671  0.00  0.00    +0.277 C 
ENDBRANCH  25  28
ENDBRANCH  20  22
ENDBRANCH   1  20
TORSDOF 5
