REMARK  Name = ZINC38884767
REMARK  3 active torsions:
REMARK  status: ('A' for Active; 'I' for Inactive)
REMARK    1  A    between atoms: C_1  and  N_2
REMARK    2  A    between atoms: C_3  and  N_10
REMARK    3  A    between atoms: C_11  and  C_13
REMARK                            x       y       z     vdW  Elec       q    Type
REMARK                         _______ _______ _______ _____ _____    ______ ____
ROOT
ATOM      1  C   UNL     1       0.350   1.309  -4.188  0.00  0.00    +0.142 C 
ATOM      2  C   UNL     1       1.444   0.593  -4.933  0.00  0.00    +0.011 A 
ATOM      3  C   UNL     1       1.254  -0.722  -5.318  0.00  0.00    +0.008 A 
ATOM      4  C   UNL     1       2.247  -1.396  -6.004  0.00  0.00    +0.001 A 
ATOM      5  C   UNL     1       3.435  -0.757  -6.307  0.00  0.00    +0.004 A 
ATOM      6  C   UNL     1       3.629   0.555  -5.926  0.00  0.00    +0.046 A 
ATOM      7  C   UNL     1       2.633   1.236  -5.236  0.00  0.00    +0.133 A 
ATOM      8  O   UNL     1       2.841   2.524  -4.871  0.00  0.00    -0.455 OA
ATOM      9  C   UNL     1       1.788   3.329  -4.592  0.00  0.00    +0.133 A 
ATOM     10  C   UNL     1       0.554   2.798  -4.255  0.00  0.00    +0.011 A 
ATOM     11  C   UNL     1      -0.506   3.642  -3.975  0.00  0.00    +0.008 A 
ATOM     12  C   UNL     1      -0.339   5.012  -4.032  0.00  0.00    +0.001 A 
ATOM     13  C   UNL     1       0.892   5.545  -4.369  0.00  0.00    +0.004 A 
ATOM     14  C   UNL     1       1.954   4.708  -4.648  0.00  0.00    +0.046 A 
ENDROOT
BRANCH   1  16
ATOM     15  N   UNL     1       0.193  -0.432  -2.438  0.00  0.00    -0.270 N 
ATOM     16  C   UNL     1       0.359   0.869  -2.746  0.00  0.00    +0.230 C 
ATOM     17  O   UNL     1       0.516   1.687  -1.864  0.00  0.00    -0.274 OA
ATOM     18  H   UNL     1       0.133  -1.095  -3.144  0.00  0.00    +0.156 HD
BRANCH  15  21
ATOM     19  C   UNL     1      -1.257  -2.908  -1.438  0.00  0.00    +0.174 C 
ATOM     20  N   UNL     1      -0.530  -1.923  -0.633  0.00  0.00    -0.253 N 
ATOM     21  C   UNL     1       0.107  -0.827  -1.103  0.00  0.00    +0.126 A 
ATOM     22  C   UNL     1       0.651  -0.178  -0.035  0.00  0.00    +0.015 A 
ATOM     23  C   UNL     1       0.333  -0.904   1.115  0.00  0.00    +0.068 A 
ATOM     24  N   UNL     1      -0.379  -1.946   0.759  0.00  0.00    -0.175 NA
ATOM     25  C   UNL     1       0.920  -0.215   2.328  0.00  0.00    +0.058 C 
ATOM     26  C   UNL     1       1.988   0.749   1.768  0.00  0.00    +0.011 C 
ATOM     27  C   UNL     1       1.470   1.036   0.343  0.00  0.00    +0.041 C 
ENDBRANCH  15  21
ENDBRANCH   1  16
TORSDOF 2
