REMARK  Name = ZINC16293477
REMARK  9 active torsions:
REMARK  status: ('A' for Active; 'I' for Inactive)
REMARK    1  A    between atoms: C_1  and  C_2
REMARK    2  A    between atoms: C_2  and  O_3
REMARK    3  A    between atoms: O_3  and  C_4
REMARK    4  A    between atoms: C_7  and  C_10
REMARK    5  A    between atoms: C_10  and  C_11
REMARK    6  A    between atoms: C_11  and  C_27
REMARK    7  A    between atoms: N_17  and  C_20
REMARK    8  A    between atoms: C_27  and  C_28
REMARK    9  A    between atoms: C_28  and  C_29
REMARK                            x       y       z     vdW  Elec       q    Type
REMARK                         _______ _______ _______ _____ _____    ______ ____
ROOT
ATOM      1  C   UNL     1       1.195   1.911  -0.640  0.00  0.00    +0.128 C 
ATOM      2  C   UNL     1       0.010   1.378   0.142  0.00  0.00    +0.236 C 
ATOM      3  O   UNL     1      -1.022   2.009   0.229  0.00  0.00    -0.274 OA
ATOM      4  N   UNL     1       0.145   0.172   0.735  0.00  0.00    -0.239 N 
ATOM      5  C   UNL     1       1.274  -0.539   0.644  0.00  0.00    +0.319 C 
ATOM      6  O   UNL     1       1.310  -1.614   1.209  0.00  0.00    -0.251 OA
ATOM      7  N   UNL     1       2.368  -0.152  -0.021  0.00  0.00    -0.193 N 
ATOM      8  C   UNL     1       2.426   1.025  -0.679  0.00  0.00    +0.243 C 
ATOM      9  O   UNL     1       3.424   1.363  -1.279  0.00  0.00    -0.274 OA
ATOM     10  H   UNL     1      -0.600  -0.190   1.240  0.00  0.00    +0.159 HD
ENDROOT
BRANCH   7  11
ATOM     11  C   UNL     1       3.489  -0.995  -0.037  0.00  0.00    +0.045 A 
ATOM     12  C   UNL     1       4.471  -0.864   0.936  0.00  0.00    +0.025 A 
ATOM     13  C   UNL     1       5.571  -1.700   0.922  0.00  0.00    +0.017 A 
ATOM     14  C   UNL     1       5.700  -2.659  -0.066  0.00  0.00    +0.018 A 
ATOM     15  C   UNL     1       4.725  -2.787  -1.040  0.00  0.00    +0.017 A 
ATOM     16  C   UNL     1       3.621  -1.958  -1.027  0.00  0.00    +0.025 A 
ATOM     17 BR   UNL     1       7.211  -3.796  -0.086  0.00  0.00    -0.050 Br
ENDBRANCH   7  11
BRANCH   1  18
ATOM     18  C   UNL     1       0.741   2.159  -2.080  0.00  0.00    +0.060 C 
BRANCH  18  22
ATOM     19  C   UNL     1      -0.625  -1.509  -3.796  0.00  0.00    +0.121 A 
ATOM     20  C   UNL     1      -1.514  -0.681  -3.127  0.00  0.00    +0.046 A 
ATOM     21  C   UNL     1      -1.070   0.504  -2.573  0.00  0.00    +0.007 A 
ATOM     22  C   UNL     1       0.260   0.866  -2.685  0.00  0.00    -0.046 A 
ATOM     23  C   UNL     1       1.147   0.045  -3.356  0.00  0.00    +0.007 A 
ATOM     24  C   UNL     1       0.709  -1.144  -3.907  0.00  0.00    +0.046 A 
BRANCH  19  25
ATOM     25  O   UNL     1      -1.059  -2.675  -4.343  0.00  0.00    -0.492 OA
BRANCH  25  27
ATOM     26  C   UNL     1      -0.758  -4.740  -5.561  0.00  0.00    +0.048 C 
ATOM     27  C   UNL     1      -0.088  -3.477  -5.016  0.00  0.00    +0.225 C 
ENDBRANCH  25  27
ENDBRANCH  19  25
ENDBRANCH  18  22
ENDBRANCH   1  18
BRANCH   1  28
ATOM     28  C   UNL     1       1.596   3.259  -0.037  0.00  0.00    +0.030 C 
BRANCH  28  29
ATOM     29  C   UNL     1       1.979   3.066   1.432  0.00  0.00    +0.037 C 
BRANCH  29  30
ATOM     30  C   UNL     1       2.374   4.393   2.026  0.00  0.00    -0.044 A 
ATOM     31  C   UNL     1       3.692   4.822   1.991  0.00  0.00    +0.023 A 
ATOM     32  C   UNL     1       4.016   6.048   2.541  0.00  0.00    +0.111 A 
ATOM     33  N   UNL     1       3.091   6.801   3.104  0.00  0.00    -0.263 NA
ATOM     34  C   UNL     1       1.829   6.422   3.160  0.00  0.00    +0.111 A 
ATOM     35  C   UNL     1       1.429   5.212   2.626  0.00  0.00    +0.023 A 
ENDBRANCH  29  30
ENDBRANCH  28  29
ENDBRANCH   1  28
TORSDOF 8
