REMARK  Name = ZINC36749606
REMARK  7 active torsions:
REMARK  status: ('A' for Active; 'I' for Inactive)
REMARK    1  A    between atoms: C_1  and  C_2
REMARK    2  A    between atoms: C_2  and  C_3
REMARK    3  A    between atoms: C_5  and  O_10
REMARK    4  A    between atoms: O_10  and  C_11
REMARK    5  A    between atoms: C_12  and  N_18
REMARK    6  A    between atoms: C_13  and  C_17
REMARK    7  A    between atoms: N_15  and  C_16
REMARK                            x       y       z     vdW  Elec       q    Type
REMARK                         _______ _______ _______ _____ _____    ______ ____
ROOT
ATOM      1  O   UNL     1      -0.009  -1.849   4.519  0.00  0.00    -0.437 OA
ENDROOT
BRANCH   1   4
ATOM      2  C   UNL     1       0.752  -0.321   1.307  0.00  0.00    -0.026 A 
ATOM      3  C   UNL     1       0.034  -0.859   2.357  0.00  0.00    +0.051 A 
ATOM      4  C   UNL     1       0.696  -1.320   3.485  0.00  0.00    +0.131 A 
ATOM      5  C   UNL     1       2.080  -1.241   3.556  0.00  0.00    +0.048 A 
ATOM      6  C   UNL     1       2.794  -0.703   2.504  0.00  0.00    +0.024 A 
ATOM      7  C   UNL     1       2.132  -0.247   1.377  0.00  0.00    +0.044 A 
ATOM      8 CL   UNL     1       3.033   0.422   0.053  0.00  0.00    -0.083 Cl
BRANCH   2  10
ATOM      9  C   UNL     1      -0.089   1.704   0.149  0.00  0.00    +0.009 C 
ATOM     10  C   UNL     1       0.033   0.180   0.081  0.00  0.00    +0.033 C 
ENDBRANCH   2  10
ENDBRANCH   1   4
BRANCH   1  11
ATOM     11  C   UNL     1       0.686  -2.387   5.556  0.00  0.00    +0.240 A 
ATOM     12  C   UNL     1       1.012  -1.758   6.720  0.00  0.00    +0.110 A 
ATOM     13  C   UNL     1       1.725  -2.666   7.512  0.00  0.00    +0.084 A 
ATOM     14  N   UNL     1       1.828  -3.796   6.857  0.00  0.00    -0.172 NA
ATOM     15  N   UNL     1       1.178  -3.654   5.624  0.00  0.00    -0.234 N 
ATOM     16  C   UNL     1       1.054  -4.684   4.591  0.00  0.00    +0.176 C 
ATOM     17  C   UNL     1       2.281  -2.390   8.885  0.00  0.00    +0.069 C 
BRANCH  12  18
ATOM     18  N   UNL     1       0.688  -0.428   7.066  0.00  0.00    -0.352 N 
ATOM     19  H   UNL     1       0.188   0.126   6.447  0.00  0.00    +0.143 HD
ATOM     20  H   UNL     1       0.966  -0.068   7.923  0.00  0.00    +0.143 HD
ENDBRANCH  12  18
ENDBRANCH   1  11
TORSDOF 4
