REMARK  Name = ZINC13063725
REMARK  13 active torsions:
REMARK  status: ('A' for Active; 'I' for Inactive)
REMARK    1  A    between atoms: C_1  and  C_2
REMARK    2  A    between atoms: C_2  and  C_3
REMARK    3  A    between atoms: C_10  and  C_15
REMARK    4  A    between atoms: C_15  and  N_69
REMARK    5  A    between atoms: C_16  and  C_17
REMARK    6  A    between atoms: C_16  and  N_69
REMARK    7  A    between atoms: C_20  and  C_23
REMARK    8  A    between atoms: C_24  and  C_26
REMARK    9  A    between atoms: C_24  and  C_28
REMARK   10  A    between atoms: C_24  and  N_69
REMARK   11  A    between atoms: C_26  and  C_27
REMARK   12  A    between atoms: N_32  and  C_33
REMARK   13  A    between atoms: C_33  and  C_34
REMARK                            x       y       z     vdW  Elec       q    Type
REMARK                         _______ _______ _______ _____ _____    ______ ____
ROOT
ATOM      1  N   UNL     1       0.015   0.144   0.393  0.00  0.00    +0.392 N 
ATOM      2  H   UNL     1       0.703  -0.319   0.998  0.00  0.00    -0.080 HD
ENDROOT
BRANCH   1   3
ATOM      3  C   UNL     1       0.145  -0.391  -0.980  0.00  0.00    -0.036 C 
BRANCH   3  11
ATOM      4  C   UNL     1      -2.420   3.493  -5.057  0.00  0.00    -0.047 A 
ATOM      5  C   UNL     1      -3.663   2.876  -5.098  0.00  0.00    +0.005 A 
ATOM      6  C   UNL     1      -3.918   1.754  -4.339  0.00  0.00    +0.026 A 
ATOM      7  C   UNL     1      -2.921   1.234  -3.520  0.00  0.00    +0.049 A 
ATOM      8  C   UNL     1      -1.662   1.863  -3.480  0.00  0.00    -0.001 A 
ATOM      9  C   UNL     1      -1.426   3.000  -4.260  0.00  0.00    +0.013 A 
ATOM     10  C   UNL     1      -0.621   1.312  -2.611  0.00  0.00    +0.017 A 
ATOM     11  C   UNL     1      -0.905   0.205  -1.881  0.00  0.00    +0.001 A 
ATOM     12  C   UNL     1      -2.184  -0.387  -1.957  0.00  0.00    +0.251 A 
ATOM     13  O   UNL     1      -2.421  -1.379  -1.289  0.00  0.00    -0.268 OA
ATOM     14  N   UNL     1      -3.148   0.115  -2.749  0.00  0.00    -0.322 N 
ATOM     15  H   UNL     1      -4.016  -0.317  -2.778  0.00  0.00    +0.169 HD
BRANCH   4  17
ATOM     16  C   UNL     1      -1.627   4.295  -7.265  0.00  0.00    +0.009 C 
ATOM     17  C   UNL     1      -2.166   4.718  -5.897  0.00  0.00    +0.032 C 
ENDBRANCH   4  17
ENDBRANCH   3  11
ENDBRANCH   1   3
BRANCH   1  18
ATOM     18  C   UNL     1       0.275   1.599   0.395  0.00  0.00    -0.042 C 
BRANCH  18  19
ATOM     19  C   UNL     1       1.762   1.824   0.302  0.00  0.00    -0.064 A 
ATOM     20  C   UNL     1       2.542   1.771   1.442  0.00  0.00    +0.002 A 
ATOM     21  C   UNL     1       3.906   1.973   1.356  0.00  0.00    +0.003 A 
ATOM     22  C   UNL     1       4.490   2.238   0.131  0.00  0.00    -0.050 A 
ATOM     23  C   UNL     1       3.709   2.295  -1.009  0.00  0.00    +0.003 A 
ATOM     24  C   UNL     1       2.345   2.089  -0.923  0.00  0.00    +0.002 A 
ATOM     25  C   UNL     1       5.977   2.463   0.038  0.00  0.00    +0.044 C 
ENDBRANCH  18  19
ENDBRANCH   1  18
BRANCH   1  26
ATOM     26  C   UNL     1      -1.341  -0.128   0.913  0.00  0.00    +0.003 C 
BRANCH  26  27
ATOM     27  C   UNL     1      -1.531   0.618   2.209  0.00  0.00    +0.139 A 
ATOM     28  N   UNL     1      -0.673   0.703   3.196  0.00  0.00    -0.115 NA
ATOM     29  N   UNL     1      -1.201   1.428   4.121  0.00  0.00    -0.023 NA
ATOM     30  N   UNL     1      -2.377   1.801   3.753  0.00  0.00    -0.044 NA
ATOM     31  N   UNL     1      -2.617   1.321   2.580  0.00  0.00    -0.223 N 
BRANCH  31  32
ATOM     32  C   UNL     1      -3.842   1.508   1.798  0.00  0.00    +0.221 C 
BRANCH  32  33
ATOM     33  C   UNL     1      -4.816   0.405   2.120  0.00  0.00    +0.126 A 
ATOM     34  C   UNL     1      -5.742   0.433   3.096  0.00  0.00    +0.046 A 
ATOM     35  C   UNL     1      -6.433  -0.799   3.041  0.00  0.00    +0.041 A 
ATOM     36  C   UNL     1      -5.883  -1.510   2.041  0.00  0.00    +0.195 A 
ATOM     37  O   UNL     1      -4.904  -0.776   1.487  0.00  0.00    -0.466 OA
ENDBRANCH  32  33
ENDBRANCH  31  32
ENDBRANCH  26  27
BRANCH  26  38
ATOM     38  C   UNL     1      -1.480  -1.631   1.165  0.00  0.00    -0.011 C 
ATOM     39  C   UNL     1      -0.486  -2.061   2.246  0.00  0.00    +0.002 C 
ENDBRANCH  26  38
ENDBRANCH   1  26
TORSDOF 10
