REMARK  Name = ZINC21240236
REMARK  7 active torsions:
REMARK  status: ('A' for Active; 'I' for Inactive)
REMARK    1  A    between atoms: C_1  and  C_2
REMARK    2  A    between atoms: C_2  and  C_3
REMARK    3  A    between atoms: C_2  and  C_4
REMARK    4  A    between atoms: C_2  and  C_5
REMARK    5  A    between atoms: C_8  and  C_11
REMARK    6  A    between atoms: C_16  and  C_22
REMARK    7  A    between atoms: C_26  and  N_28
REMARK                            x       y       z     vdW  Elec       q    Type
REMARK                         _______ _______ _______ _____ _____    ______ ____
ROOT
ATOM      1  C   UNL     1      -2.553   3.869   0.045  0.00  0.00    +0.032 C 
ATOM      2  C   UNL     1      -3.374   3.479  -1.186  0.00  0.00    +0.059 C 
ATOM      3  C   UNL     1      -4.710   4.177  -1.145  0.00  0.00    +0.018 C 
ATOM      4  C   UNL     1      -5.300   4.474   0.033  0.00  0.00    +0.020 C 
ATOM      5  C   UNL     1      -6.646   5.159   0.049  0.00  0.00    +0.063 C 
ATOM      6  C   UNL     1      -6.731   6.138  -1.123  0.00  0.00    +0.109 C 
ATOM      7  C   UNL     1      -6.282   5.441  -2.382  0.00  0.00    +0.218 C 
ATOM      8  O   UNL     1      -6.791   5.727  -3.445  0.00  0.00    -0.275 OA
ATOM      9  N   UNL     1      -5.320   4.504  -2.329  0.00  0.00    -0.289 N 
ATOM     10  C   UNL     1      -4.689   4.156   1.257  0.00  0.00    +0.162 C 
ATOM     11  O   UNL     1      -5.255   4.429   2.297  0.00  0.00    -0.292 OA
ATOM     12  C   UNL     1      -3.342   3.484   1.301  0.00  0.00    +0.088 C 
ATOM     13  H   UNL     1      -5.024   3.997  -3.259  0.00  0.00    +0.155 HD
ENDROOT
BRANCH   1  17
ATOM     14  C   UNL     1       1.175   1.783   0.000  0.00  0.00    -0.042 A 
ATOM     15  C   UNL     1      -0.013   1.076   0.008  0.00  0.00    +0.004 A 
ATOM     16  C   UNL     1      -1.219   1.751   0.017  0.00  0.00    +0.004 A 
ATOM     17  C   UNL     1      -1.238   3.133   0.030  0.00  0.00    -0.043 A 
ATOM     18  C   UNL     1      -0.050   3.840   0.022  0.00  0.00    +0.004 A 
ATOM     19  C   UNL     1       1.156   3.165   0.008  0.00  0.00    +0.004 A 
BRANCH  14  21
ATOM     20  C   UNL     1       2.571   0.176  -1.271  0.00  0.00    +0.015 C 
ATOM     21  C   UNL     1       2.490   1.048  -0.016  0.00  0.00    -0.013 C 
ATOM     22  C   UNL     1       3.639   2.058  -0.022  0.00  0.00    +0.015 C 
ATOM     23  C   UNL     1       2.595   0.162   1.227  0.00  0.00    +0.015 C 
ENDBRANCH  14  21
ENDBRANCH   1  17
BRANCH   5  24
ATOM     24  C   UNL     1      -7.737   4.127  -0.077  0.00  0.00    -0.037 A 
ATOM     25  C   UNL     1      -7.795   3.315  -1.194  0.00  0.00    +0.004 A 
ATOM     26  C   UNL     1      -8.793   2.366  -1.308  0.00  0.00    +0.003 A 
ATOM     27  C   UNL     1      -9.739   2.235  -0.308  0.00  0.00    +0.033 A 
ATOM     28  C   UNL     1      -9.684   3.050   0.806  0.00  0.00    +0.126 A 
ATOM     29  C   UNL     1      -8.683   3.997   0.922  0.00  0.00    +0.037 A 
BRANCH  28  30
ATOM     30  N   UNL     1     -10.698   2.910   1.876  0.00  0.00    +0.056 N 
ATOM     31  O   UNL     1     -10.649   3.629   2.859  0.00  0.00    -0.126 OA
ATOM     32  O   UNL     1     -11.580   2.077   1.774  0.00  0.00    -0.126 OA
ENDBRANCH  28  30
ENDBRANCH   5  24
TORSDOF 4
