REMARK  Name = ZINC17135911
REMARK  9 active torsions:
REMARK  status: ('A' for Active; 'I' for Inactive)
REMARK    1  A    between atoms: C_1  and  C_2
REMARK    2  A    between atoms: C_7  and  C_8
REMARK    3  A    between atoms: C_8  and  S_9
REMARK    4  A    between atoms: S_9  and  C_10
REMARK    5  A    between atoms: C_13  and  C_23
REMARK    6  A    between atoms: N_14  and  C_15
REMARK    7  A    between atoms: C_18  and  O_21
REMARK    8  A    between atoms: O_21  and  C_22
REMARK    9  A    between atoms: C_23  and  C_24
REMARK                            x       y       z     vdW  Elec       q    Type
REMARK                         _______ _______ _______ _____ _____    ______ ____
ROOT
ATOM      1  C   UNL     1      -1.388   1.185   4.552  0.00  0.00    +0.196 A 
ATOM      2  N   UNL     1      -0.217   1.492   5.062  0.00  0.00    -0.122 NA
ATOM      3  N   UNL     1      -0.375   2.126   6.168  0.00  0.00    -0.133 NA
ATOM      4  C   UNL     1      -1.644   2.254   6.435  0.00  0.00    +0.144 A 
ATOM      5  N   UNL     1      -2.337   1.659   5.415  0.00  0.00    -0.274 N 
ENDROOT
BRANCH   5   6
ATOM      6  C   UNL     1      -3.731   1.558   5.282  0.00  0.00    +0.050 A 
ATOM      7  C   UNL     1      -4.498   2.703   5.121  0.00  0.00    +0.030 A 
ATOM      8  C   UNL     1      -5.869   2.602   4.986  0.00  0.00    +0.047 A 
ATOM      9  C   UNL     1      -6.480   1.357   5.021  0.00  0.00    +0.120 A 
ATOM     10  C   UNL     1      -5.713   0.212   5.188  0.00  0.00    +0.047 A 
ATOM     11  C   UNL     1      -4.342   0.312   5.318  0.00  0.00    +0.030 A 
BRANCH   9  12
ATOM     12  O   UNL     1      -7.829   1.259   4.893  0.00  0.00    -0.495 OA
ATOM     13  C   UNL     1      -8.556   2.478   4.724  0.00  0.00    +0.277 C 
ENDBRANCH   9  12
ENDBRANCH   5   6
BRANCH   1  14
ATOM     14  S   UNL     1      -1.680   0.321   3.045  0.00  0.00    -0.081 S 
BRANCH  14  15
ATOM     15  C   UNL     1       0.025   0.045   2.504  0.00  0.00    +0.112 C 
BRANCH  15  22
ATOM     16  C   UNL     1      -0.018   1.503   0.010  0.00  0.00    +0.044 C 
ATOM     17  C   UNL     1       0.002  -0.004   0.002  0.00  0.00    -0.046 A 
ATOM     18  C   UNL     1      -0.006  -0.689  -1.199  0.00  0.00    +0.003 A 
ATOM     19  C   UNL     1       0.018  -2.071  -1.207  0.00  0.00    +0.000 A 
ATOM     20  C   UNL     1       0.039  -2.768  -0.013  0.00  0.00    +0.000 A 
ATOM     21  C   UNL     1       0.041  -2.084   1.188  0.00  0.00    +0.005 A 
ATOM     22  C   UNL     1       0.023  -0.702   1.195  0.00  0.00    -0.034 A 
ENDBRANCH  15  22
ENDBRANCH  14  15
ENDBRANCH   1  14
BRANCH   4  23
ATOM     23  C   UNL     1      -2.239   2.932   7.643  0.00  0.00    +0.130 C 
BRANCH  23  24
ATOM     24  C   UNL     1      -2.414   1.924   8.749  0.00  0.00    +0.033 A 
ATOM     25  C   UNL     1      -1.463   1.785   9.697  0.00  0.00    +0.091 A 
ATOM     26  C   UNL     1      -1.650   0.831  10.727  0.00  0.00    +0.254 A 
ATOM     27  O   UNL     1      -0.806   0.688  11.593  0.00  0.00    -0.268 OA
ATOM     28  N   UNL     1      -2.772   0.083  10.739  0.00  0.00    -0.275 N 
ATOM     29  H   UNL     1      -2.911  -0.593  11.462  0.00  0.00    +0.173 HD
ATOM     30  C   UNL     1      -3.704   0.241   9.781  0.00  0.00    +0.327 A 
ATOM     31  O   UNL     1      -4.710  -0.441   9.805  0.00  0.00    -0.247 OA
ATOM     32  N   UNL     1      -3.540   1.148   8.801  0.00  0.00    -0.311 N 
ATOM     33  H   UNL     1      -4.249   1.257   8.103  0.00  0.00    +0.170 HD
ENDBRANCH  23  24
ENDBRANCH   4  23
TORSDOF 7
