REMARK  Name = ZINC06770669
REMARK  5 active torsions:
REMARK  status: ('A' for Active; 'I' for Inactive)
REMARK    1  A    between atoms: C_1  and  C_2
REMARK    2  A    between atoms: C_2  and  C_3
REMARK    3  A    between atoms: C_6  and  C_9
REMARK    4  A    between atoms: C_9  and  N_10
REMARK    5  A    between atoms: N_17  and  C_20
REMARK                            x       y       z     vdW  Elec       q    Type
REMARK                         _______ _______ _______ _____ _____    ______ ____
ROOT
ATOM      1  N   UNL     1       3.149  -0.719  -5.546  0.00  0.00    -0.219 N 
ATOM      2  C   UNL     1       4.418  -0.015  -5.469  0.00  0.00    +0.216 C 
ATOM      3  C   UNL     1       4.503   0.303  -7.010  0.00  0.00    +0.246 C 
ATOM      4  C   UNL     1       5.886   0.692  -7.155  0.00  0.00    +0.255 C 
ATOM      5  O   UNL     1       6.345   1.510  -7.922  0.00  0.00    -0.272 OA
ATOM      6  N   UNL     1       6.569  -0.066  -6.235  0.00  0.00    -0.207 N 
ATOM      7  C   UNL     1       5.730  -0.725  -5.354  0.00  0.00    +0.251 C 
ATOM      8  O   UNL     1       5.991  -1.673  -4.646  0.00  0.00    -0.273 OA
ATOM      9  N   UNL     1       3.192   0.608  -7.359  0.00  0.00    -0.156 NA
ATOM     10  N   UNL     1       2.439  -0.039  -6.571  0.00  0.00    -0.082 NA
ENDROOT
BRANCH   6  11
ATOM     11  C   UNL     1       7.968  -0.155  -6.184  0.00  0.00    +0.047 A 
ATOM     12  C   UNL     1       8.578  -0.951  -5.224  0.00  0.00    +0.027 A 
ATOM     13  C   UNL     1       9.956  -1.039  -5.173  0.00  0.00    +0.043 A 
ATOM     14  C   UNL     1      10.729  -0.334  -6.080  0.00  0.00    +0.159 A 
ATOM     15  C   UNL     1      10.122   0.462  -7.040  0.00  0.00    +0.160 A 
ATOM     16  C   UNL     1       8.743   0.547  -7.096  0.00  0.00    +0.065 A 
ATOM     17  F   UNL     1      10.878   1.150  -7.923  0.00  0.00    -0.202 F 
ATOM     18  F   UNL     1      12.076  -0.421  -6.028  0.00  0.00    -0.202 F 
ENDBRANCH   6  11
BRANCH   1  19
ATOM     19  C   UNL     1       2.707  -1.868  -4.752  0.00  0.00    +0.163 C 
BRANCH  19  23
ATOM     20  C   UNL     1       0.707  -0.490  -1.238  0.00  0.00    -0.048 A 
ATOM     21  C   UNL     1      -0.011  -0.719  -2.397  0.00  0.00    +0.004 A 
ATOM     22  C   UNL     1       0.636  -1.164  -3.534  0.00  0.00    +0.005 A 
ATOM     23  C   UNL     1       2.002  -1.381  -3.513  0.00  0.00    -0.029 A 
ATOM     24  C   UNL     1       2.720  -1.152  -2.354  0.00  0.00    +0.005 A 
ATOM     25  C   UNL     1       2.073  -0.702  -1.218  0.00  0.00    +0.004 A 
BRANCH  20  27
ATOM     26  C   UNL     1      -0.019   1.526   0.010  0.00  0.00    +0.009 C 
ATOM     27  C   UNL     1       0.002  -0.004   0.002  0.00  0.00    +0.032 C 
ENDBRANCH  20  27
ENDBRANCH  19  23
ENDBRANCH   1  19
TORSDOF 4
