REMARK  Name = ZINC13476620
REMARK  9 active torsions:
REMARK  status: ('A' for Active; 'I' for Inactive)
REMARK    1  A    between atoms: C_1  and  N_2
REMARK    2  A    between atoms: N_2  and  C_3
REMARK    3  A    between atoms: N_2  and  C_4
REMARK    4  A    between atoms: C_7  and  C_10
REMARK    5  A    between atoms: C_11  and  C_12
REMARK    6  A    between atoms: C_11  and  N_22
REMARK    7  A    between atoms: N_14  and  N_15
REMARK    8  A    between atoms: C_16  and  C_17
REMARK    9  A    between atoms: C_23  and  C_25
REMARK                            x       y       z     vdW  Elec       q    Type
REMARK                         _______ _______ _______ _____ _____    ______ ____
ROOT
ATOM      1  C   UNL     1       0.055   1.080   0.060  0.00  0.00    +0.036 C 
ATOM      2  C   UNL     1      -1.144   1.697   0.194  0.00  0.00    +0.098 C 
ENDROOT
BRANCH   1   6
ATOM      3  C   UNL     1       3.452   3.289  -1.190  0.00  0.00    +0.029 A 
ATOM      4  C   UNL     1       3.549   2.423  -0.105  0.00  0.00    +0.023 A 
ATOM      5  C   UNL     1       2.449   1.704   0.304  0.00  0.00    +0.010 A 
ATOM      6  C   UNL     1       1.231   1.845  -0.372  0.00  0.00    -0.023 A 
ATOM      7  C   UNL     1       1.140   2.714  -1.467  0.00  0.00    +0.010 A 
ATOM      8  C   UNL     1       2.244   3.432  -1.867  0.00  0.00    +0.023 A 
BRANCH   3  10
ATOM      9  C   UNL     1       5.841   3.865  -0.892  0.00  0.00    +0.129 C 
ATOM     10  N   UNL     1       4.568   4.014  -1.601  0.00  0.00    -0.336 N 
ATOM     11  C   UNL     1       4.469   4.926  -2.744  0.00  0.00    +0.129 C 
ENDBRANCH   3  10
ENDBRANCH   1   6
BRANCH   2  12
ATOM     12  C   UNL     1      -1.224   3.162   0.143  0.00  0.00    +0.277 C 
ATOM     13  O   UNL     1      -0.205   3.827   0.119  0.00  0.00    -0.267 OA
ATOM     14  N   UNL     1      -2.427   3.770   0.122  0.00  0.00    -0.202 N 
ATOM     15  H   UNL     1      -3.239   3.240   0.141  0.00  0.00    +0.178 HD
BRANCH  14  16
ATOM     16  N   UNL     1      -2.504   5.168   0.073  0.00  0.00    -0.187 NA
ATOM     17  C   UNL     1      -3.664   5.755   0.053  0.00  0.00    +0.145 C 
BRANCH  17  18
ATOM     18  C   UNL     1      -3.745   7.218   0.002  0.00  0.00    +0.032 A 
ATOM     19  C   UNL     1      -4.866   8.030  -0.032  0.00  0.00    +0.017 A 
ATOM     20  C   UNL     1      -4.684   9.393  -0.074  0.00  0.00    +0.008 A 
ATOM     21  C   UNL     1      -3.422   9.896  -0.093  0.00  0.00    +0.046 A 
ATOM     22  S   UNL     1      -2.423   8.418  -0.042  0.00  0.00    -0.096 S 
ENDBRANCH  17  18
ENDBRANCH  14  16
ENDBRANCH   2  12
BRANCH   2  23
ATOM     23  N   UNL     1      -2.305   0.939   0.382  0.00  0.00    -0.277 N 
ATOM     24  C   UNL     1      -3.062   1.126   1.481  0.00  0.00    +0.250 C 
ATOM     25  O   UNL     1      -2.790   2.018   2.261  0.00  0.00    -0.270 OA
ATOM     26  H   UNL     1      -2.564   0.278  -0.279  0.00  0.00    +0.155 HD
BRANCH  24  27
ATOM     27  C   UNL     1      -4.222   0.248   1.737  0.00  0.00    +0.055 A 
ATOM     28  C   UNL     1      -4.540  -0.773   0.840  0.00  0.00    +0.014 A 
ATOM     29  C   UNL     1      -5.622  -1.592   1.087  0.00  0.00    +0.001 A 
ATOM     30  C   UNL     1      -6.398  -1.398   2.217  0.00  0.00    +0.001 A 
ATOM     31  C   UNL     1      -6.093  -0.385   3.108  0.00  0.00    +0.021 A 
ATOM     32  C   UNL     1      -5.009   0.440   2.875  0.00  0.00    +0.053 A 
ATOM     33 CL   UNL     1      -4.627   1.711   3.994  0.00  0.00    -0.083 Cl
ENDBRANCH  24  27
ENDBRANCH   2  23
TORSDOF 7
