REMARK  Name = ZINC39988174
REMARK  15 active torsions:
REMARK  status: ('A' for Active; 'I' for Inactive)
REMARK    1  A    between atoms: C_1  and  C_2
REMARK    2  A    between atoms: C_2  and  C_3
REMARK    3  A    between atoms: C_3  and  C_4
REMARK    4  A    between atoms: C_4  and  C_6
REMARK    5  A    between atoms: C_4  and  O_32
REMARK    6  A    between atoms: N_8  and  N_9
REMARK    7  A    between atoms: C_13  and  C_31
REMARK    8  A    between atoms: N_17  and  C_20
REMARK    9  A    between atoms: C_20  and  C_21
REMARK   10  A    between atoms: C_21  and  O_22
REMARK   11  A    between atoms: O_22  and  C_23
REMARK   12  A    between atoms: C_26  and  O_29
REMARK   13  A    between atoms: O_29  and  C_30
REMARK   14  A    between atoms: O_32  and  C_33
REMARK   15  A    between atoms: C_36  and  O_39
REMARK                            x       y       z     vdW  Elec       q    Type
REMARK                         _______ _______ _______ _____ _____    ______ ____
ROOT
ATOM      1  N   UNL     1       3.672  -2.913  -3.470  0.00  0.00    -0.174 NA
ATOM      2  C   UNL     1       4.962  -2.684  -3.513  0.00  0.00    +0.153 C 
ATOM      3  C   UNL     1       5.928  -3.157  -4.531  0.00  0.00    +0.029 A 
ATOM      4  C   UNL     1       5.800  -3.933  -5.677  0.00  0.00    +0.015 A 
ATOM      5  C   UNL     1       6.914  -4.213  -6.443  0.00  0.00    -0.050 A 
ATOM      6  C   UNL     1       8.154  -3.721  -6.070  0.00  0.00    +0.005 A 
ATOM      7  C   UNL     1       8.291  -2.949  -4.934  0.00  0.00    +0.024 A 
ATOM      8  C   UNL     1       7.180  -2.658  -4.150  0.00  0.00    +0.046 A 
ATOM      9  N   UNL     1       7.044  -1.919  -2.979  0.00  0.00    -0.262 N 
ATOM     10  C   UNL     1       5.767  -1.892  -2.561  0.00  0.00    +0.271 C 
ATOM     11  O   UNL     1       5.349  -1.320  -1.572  0.00  0.00    -0.268 OA
ATOM     12  C   UNL     1       6.782  -5.054  -7.687  0.00  0.00    +0.044 C 
ENDROOT
BRANCH   1  15
ATOM     13  C   UNL     1       1.574  -2.615  -2.385  0.00  0.00    +0.273 C 
ATOM     14  O   UNL     1       1.049  -3.289  -3.245  0.00  0.00    -0.270 OA
ATOM     15  N   UNL     1       2.900  -2.379  -2.429  0.00  0.00    -0.203 N 
ATOM     16  H   UNL     1       3.320  -1.839  -1.742  0.00  0.00    +0.177 HD
BRANCH  13  17
ATOM     17  C   UNL     1       0.744  -2.040  -1.266  0.00  0.00    +0.260 C 
BRANCH  17  18
ATOM     18  C   UNL     1       0.747  -0.513  -1.361  0.00  0.00    +0.054 C 
BRANCH  18  20
ATOM     19  C   UNL     1       0.012   1.602  -0.252  0.00  0.00    +0.004 C 
ATOM     20  C   UNL     1       0.009   0.075  -0.157  0.00  0.00    +0.001 C 
ENDBRANCH  18  20
ENDBRANCH  17  18
BRANCH  17  21
ATOM     21  O   UNL     1      -0.598  -2.521  -1.373  0.00  0.00    -0.480 OA
BRANCH  21  22
ATOM     22  C   UNL     1      -1.232  -2.842  -0.213  0.00  0.00    +0.122 A 
ATOM     23  C   UNL     1      -2.489  -3.429  -0.250  0.00  0.00    +0.049 A 
ATOM     24  C   UNL     1      -3.133  -3.754   0.928  0.00  0.00    +0.049 A 
ATOM     25  C   UNL     1      -2.524  -3.494   2.146  0.00  0.00    +0.117 A 
ATOM     26  C   UNL     1      -1.268  -2.908   2.183  0.00  0.00    +0.049 A 
ATOM     27  C   UNL     1      -0.621  -2.587   1.005  0.00  0.00    +0.049 A 
BRANCH  25  28
ATOM     28  O   UNL     1      -3.159  -3.814   3.306  0.00  0.00    -0.507 OA
ATOM     29  H   UNL     1      -2.970  -4.707   3.625  0.00  0.00    +0.292 HD
ENDBRANCH  25  28
ENDBRANCH  21  22
ENDBRANCH  17  21
ENDBRANCH  13  17
ENDBRANCH   1  15
BRANCH   9  30
ATOM     30  C   UNL     1       8.151  -1.249  -2.293  0.00  0.00    +0.155 C 
BRANCH  30  31
ATOM     31  C   UNL     1       8.299   0.175  -2.834  0.00  0.00    +0.248 C 
BRANCH  31  32
ATOM     32  O   UNL     1       7.134   0.934  -2.502  0.00  0.00    -0.490 OA
BRANCH  32  33
ATOM     33  C   UNL     1       7.105   2.230  -2.912  0.00  0.00    +0.121 A 
ATOM     34  C   UNL     1       8.172   2.757  -3.624  0.00  0.00    +0.049 A 
ATOM     35  C   UNL     1       8.142   4.074  -4.040  0.00  0.00    +0.049 A 
ATOM     36  C   UNL     1       7.044   4.868  -3.748  0.00  0.00    +0.120 A 
ATOM     37  C   UNL     1       5.976   4.341  -3.037  0.00  0.00    +0.049 A 
ATOM     38  C   UNL     1       6.004   3.023  -2.624  0.00  0.00    +0.049 A 
BRANCH  36  39
ATOM     39  O   UNL     1       7.014   6.165  -4.157  0.00  0.00    -0.495 OA
ATOM     40  C   UNL     1       5.852   6.925  -3.821  0.00  0.00    +0.277 C 
ENDBRANCH  36  39
ENDBRANCH  32  33
ENDBRANCH  31  32
ENDBRANCH  30  31
ENDBRANCH   9  30
TORSDOF 12
