REMARK  Name = ZINC61542295
REMARK  2 active torsions:
REMARK  status: ('A' for Active; 'I' for Inactive)
REMARK    1  A    between atoms: N_14  and  C_15
REMARK    2  A    between atoms: C_21  and  O_23
REMARK                            x       y       z     vdW  Elec       q    Type
REMARK                         _______ _______ _______ _____ _____    ______ ____
ROOT
ATOM      1  C   UNL     1      -0.019   1.526   0.010  0.00  0.00    +0.003 C 
ATOM      2  C   UNL     1       1.417   2.058  -0.000  0.00  0.00    +0.019 C 
ATOM      3  C   UNL     1       2.144   1.577   1.259  0.00  0.00    +0.108 C 
ATOM      4  N   UNL     1       2.043   0.113   1.334  0.00  0.00    -0.299 N 
ATOM      5  C   UNL     1       0.714  -0.508   1.262  0.00  0.00    +0.108 C 
ATOM      6  C   UNL     1       0.002  -0.004   0.002  0.00  0.00    +0.019 C 
ATOM      7  C   UNL     1       3.176  -0.664   1.469  0.00  0.00    +0.223 A 
ATOM      8  N   UNL     1       3.071  -1.987   1.530  0.00  0.00    -0.181 NA
ATOM      9  C   UNL     1       4.164  -2.732   1.660  0.00  0.00    +0.221 A 
ATOM     10  N   UNL     1       5.359  -2.150   1.729  0.00  0.00    -0.184 NA
ATOM     11  C   UNL     1       5.460  -0.833   1.668  0.00  0.00    +0.229 A 
ATOM     12  N   UNL     1       4.374  -0.089   1.533  0.00  0.00    -0.184 NA
ATOM     13 CL   UNL     1       7.021  -0.078   1.758  0.00  0.00    -0.041 Cl
ATOM     14  N   UNL     1       4.060  -4.106   1.724  0.00  0.00    -0.308 N 
ATOM     15  H   UNL     1       3.188  -4.529   1.675  0.00  0.00    +0.149 HD
ENDROOT
BRANCH  14  16
ATOM     16  C   UNL     1       5.265  -4.926   1.867  0.00  0.00    +0.102 C 
ATOM     17  C   UNL     1       5.637  -5.032   3.348  0.00  0.00    +0.025 C 
ATOM     18  C   UNL     1       6.896  -5.889   3.497  0.00  0.00    +0.002 C 
ATOM     19  C   UNL     1       6.631  -7.287   2.937  0.00  0.00    +0.003 C 
ATOM     20  C   UNL     1       6.259  -7.182   1.457  0.00  0.00    +0.033 C 
ATOM     21  C   UNL     1       5.000  -6.325   1.307  0.00  0.00    +0.135 C 
BRANCH  21  22
ATOM     22  O   UNL     1       3.924  -6.930   2.027  0.00  0.00    -0.390 OA
ATOM     23  H   UNL     1       3.700  -7.821   1.724  0.00  0.00    +0.210 HD
ENDBRANCH  21  22
ENDBRANCH  14  16
TORSDOF 2
