REMARK  Name = ZINC59250413
REMARK  15 active torsions:
REMARK  status: ('A' for Active; 'I' for Inactive)
REMARK    1  A    between atoms: C_1  and  C_2
REMARK    2  A    between atoms: C_2  and  C_3
REMARK    3  A    between atoms: C_3  and  C_4
REMARK    4  A    between atoms: C_4  and  N_5
REMARK    5  A    between atoms: C_6  and  N_36
REMARK    6  A    between atoms: C_7  and  N_14
REMARK    7  A    between atoms: N_14  and  C_15
REMARK    8  A    between atoms: C_15  and  C_16
REMARK    9  A    between atoms: C_17  and  C_19
REMARK   10  A    between atoms: C_21  and  C_33
REMARK   11  A    between atoms: C_25  and  C_32
REMARK   12  A    between atoms: N_27  and  C_28
REMARK   13  A    between atoms: C_28  and  C_29
REMARK   14  A    between atoms: C_28  and  C_30
REMARK   15  A    between atoms: C_28  and  C_31
REMARK                            x       y       z     vdW  Elec       q    Type
REMARK                         _______ _______ _______ _____ _____    ______ ____
ROOT
ATOM      1  N   UNL     1      -4.579  -4.298   2.790  0.00  0.00    -0.260 N 
ATOM      2  C   UNL     1      -4.905  -3.318   3.656  0.00  0.00    +0.252 C 
ATOM      3  O   UNL     1      -4.542  -2.176   3.448  0.00  0.00    -0.270 OA
ENDROOT
BRANCH   2   4
ATOM      4  C   UNL     1      -5.705  -3.631   4.859  0.00  0.00    +0.051 A 
ATOM      5  C   UNL     1      -6.939  -4.270   4.756  0.00  0.00    +0.037 A 
ATOM      6  C   UNL     1      -7.660  -4.546   5.908  0.00  0.00    +0.047 A 
ATOM      7  N   UNL     1      -7.209  -4.220   7.100  0.00  0.00    -0.232 NA
ATOM      8  C   UNL     1      -6.043  -3.611   7.266  0.00  0.00    +0.160 A 
ATOM      9  C   UNL     1      -5.241  -3.297   6.151  0.00  0.00    +0.054 A 
ATOM     10  C   UNL     1      -4.076  -2.669   6.640  0.00  0.00    +0.070 A 
ATOM     11  N   UNL     1      -4.151  -2.608   7.939  0.00  0.00    -0.173 NA
ATOM     12  N   UNL     1      -5.359  -3.171   8.370  0.00  0.00    -0.241 N 
ATOM     13  C   UNL     1      -2.934  -2.157   5.801  0.00  0.00    +0.068 C 
BRANCH  12  14
ATOM     14  C   UNL     1      -5.805  -3.287   9.760  0.00  0.00    +0.058 C 
ATOM     15  C   UNL     1      -5.997  -4.764  10.113  0.00  0.00    +0.036 C 
ATOM     16  C   UNL     1      -4.753  -2.675  10.686  0.00  0.00    +0.036 C 
ATOM     17  C   UNL     1      -7.131  -2.545   9.934  0.00  0.00    +0.036 C 
ENDBRANCH  12  14
BRANCH   6  18
ATOM     18  C   UNL     1      -8.994  -5.237   5.792  0.00  0.00    +0.038 C 
ATOM     19  C   UNL     1      -9.661  -5.257   4.416  0.00  0.00    +0.010 C 
ATOM     20  C   UNL     1     -10.221  -4.364   5.524  0.00  0.00    +0.010 C 
ENDBRANCH   6  18
ENDBRANCH   2   4
BRANCH   1  23
ATOM     21  N   UNL     1      -3.868  -3.872  -0.789  0.00  0.00    -0.280 N 
ATOM     22  C   UNL     1      -4.539  -4.190   0.370  0.00  0.00    +0.127 A 
ATOM     23  C   UNL     1      -3.919  -3.982   1.585  0.00  0.00    +0.140 A 
ATOM     24  C   UNL     1      -2.615  -3.450   1.601  0.00  0.00    +0.277 A 
ATOM     25  O   UNL     1      -2.044  -3.257   2.661  0.00  0.00    -0.266 OA
ATOM     26  N   UNL     1      -2.003  -3.156   0.438  0.00  0.00    -0.273 N 
ATOM     27  H   UNL     1      -1.105  -2.790   0.447  0.00  0.00    +0.173 HD
ATOM     28  C   UNL     1      -2.621  -3.370  -0.738  0.00  0.00    +0.331 A 
ATOM     29  O   UNL     1      -2.044  -3.100  -1.773  0.00  0.00    -0.246 OA
BRANCH  22  30
ATOM     30  N   UNL     1      -5.811  -4.707   0.317  0.00  0.00    -0.343 N 
ATOM     31  H   UNL     1      -6.269  -4.784  -0.535  0.00  0.00    +0.144 HD
ATOM     32  H   UNL     1      -6.251  -4.996   1.132  0.00  0.00    +0.144 HD
ENDBRANCH  22  30
BRANCH  21  33
ATOM     33  C   UNL     1      -4.514  -4.087  -2.086  0.00  0.00    +0.128 C 
BRANCH  33  34
ATOM     34  C   UNL     1      -4.199  -5.499  -2.585  0.00  0.00    +0.021 C 
BRANCH  34  36
ATOM     35  C   UNL     1      -4.557  -7.136  -4.438  0.00  0.00    +0.004 C 
ATOM     36  C   UNL     1      -4.873  -5.724  -3.939  0.00  0.00    -0.002 C 
ENDBRANCH  34  36
ENDBRANCH  33  34
ENDBRANCH  21  33
ENDBRANCH   1  23
BRANCH   1  37
ATOM     37  C   UNL     1      -4.911  -5.690   3.101  0.00  0.00    +0.111 C 
ATOM     38  C   UNL     1      -3.811  -6.294   3.975  0.00  0.00    +0.025 C 
ENDBRANCH   1  37
TORSDOF 9
