REMARK  Name = ZINC40035492
REMARK  7 active torsions:
REMARK  status: ('A' for Active; 'I' for Inactive)
REMARK    1  A    between atoms: C_1  and  C_2
REMARK    2  A    between atoms: C_2  and  C_3
REMARK    3  A    between atoms: C_3  and  C_34
REMARK    4  A    between atoms: N_15  and  C_28
REMARK    5  A    between atoms: N_18  and  N_19
REMARK    6  A    between atoms: C_20  and  C_21
REMARK    7  A    between atoms: C_25  and  O_27
REMARK                            x       y       z     vdW  Elec       q    Type
REMARK                         _______ _______ _______ _____ _____    ______ ____
ROOT
ATOM      1  C   UNL     1      -0.785  -0.012   0.634  0.00  0.00    +0.004 C 
ATOM      2  C   UNL     1      -0.338  -1.394   0.165  0.00  0.00    +0.047 C 
ATOM      3  C   UNL     1      -0.203  -2.331   1.335  0.00  0.00    -0.037 A 
ATOM      4  C   UNL     1       0.790  -3.289   1.352  0.00  0.00    +0.004 A 
ATOM      5  C   UNL     1       0.905  -4.149   2.430  0.00  0.00    +0.000 A 
ATOM      6  C   UNL     1       0.028  -4.057   3.496  0.00  0.00    +0.001 A 
ATOM      7  C   UNL     1      -0.970  -3.103   3.491  0.00  0.00    +0.010 A 
ATOM      8  C   UNL     1      -1.087  -2.234   2.410  0.00  0.00    +0.004 A 
ATOM      9  C   UNL     1      -2.140  -1.194   2.381  0.00  0.00    +0.084 A 
ATOM     10  C   UNL     1      -1.996  -0.118   1.516  0.00  0.00    +0.050 A 
ATOM     11  C   UNL     1      -2.997   0.861   1.484  0.00  0.00    +0.264 A 
ATOM     12  O   UNL     1      -2.906   1.820   0.735  0.00  0.00    -0.267 OA
ATOM     13  N   UNL     1      -4.065   0.721   2.299  0.00  0.00    -0.248 N 
ATOM     14  C   UNL     1      -4.155  -0.353   3.134  0.00  0.00    +0.223 A 
ATOM     15  N   UNL     1      -3.217  -1.278   3.169  0.00  0.00    -0.214 NA
ATOM     16  N   UNL     1      -5.245  -0.473   3.957  0.00  0.00    -0.206 N 
ATOM     17  C   UNL     1      -1.123   0.849  -0.585  0.00  0.00    +0.016 C 
ATOM     18  H   UNL     1      -5.958   0.184   3.917  0.00  0.00    +0.177 HD
ENDROOT
BRANCH  13  19
ATOM     19  C   UNL     1      -5.083   1.683   2.286  0.00  0.00    +0.053 A 
ATOM     20  C   UNL     1      -5.014   2.781   3.134  0.00  0.00    +0.026 A 
ATOM     21  C   UNL     1      -6.019   3.727   3.119  0.00  0.00    +0.002 A 
ATOM     22  C   UNL     1      -7.094   3.583   2.261  0.00  0.00    +0.000 A 
ATOM     23  C   UNL     1      -7.167   2.490   1.417  0.00  0.00    +0.002 A 
ATOM     24  C   UNL     1      -6.161   1.544   1.422  0.00  0.00    +0.026 A 
ENDBRANCH  13  19
BRANCH   1  26
ATOM     25  C   UNL     1      -0.079   2.045   1.864  0.00  0.00    +0.005 C 
ATOM     26  C   UNL     1       0.353   0.647   1.416  0.00  0.00    +0.008 C 
ENDBRANCH   1  26
BRANCH  16  27
ATOM     27  N   UNL     1      -5.331  -1.545   4.855  0.00  0.00    -0.188 NA
ATOM     28  C   UNL     1      -6.363  -1.659   5.633  0.00  0.00    +0.138 C 
BRANCH  28  29
ATOM     29  C   UNL     1      -6.453  -2.787   6.579  0.00  0.00    -0.002 A 
ATOM     30  C   UNL     1      -5.425  -3.732   6.643  0.00  0.00    +0.010 A 
ATOM     31  C   UNL     1      -5.513  -4.785   7.529  0.00  0.00    +0.004 A 
ATOM     32  C   UNL     1      -6.615  -4.910   8.355  0.00  0.00    +0.045 A 
ATOM     33  C   UNL     1      -7.641  -3.977   8.299  0.00  0.00    +0.117 A 
ATOM     34  C   UNL     1      -7.562  -2.912   7.417  0.00  0.00    +0.054 A 
BRANCH  33  35
ATOM     35  O   UNL     1      -8.722  -4.106   9.113  0.00  0.00    -0.507 OA
ATOM     36  H   UNL     1      -8.628  -3.658   9.965  0.00  0.00    +0.292 HD
ENDBRANCH  33  35
ENDBRANCH  28  29
ENDBRANCH  16  27
TORSDOF 5
