REMARK  Name = ZINC63573161
REMARK  6 active torsions:
REMARK  status: ('A' for Active; 'I' for Inactive)
REMARK    1  A    between atoms: C_1  and  C_2
REMARK    2  A    between atoms: C_5  and  C_35
REMARK    3  A    between atoms: C_6  and  N_8
REMARK    4  A    between atoms: C_17  and  O_33
REMARK    5  A    between atoms: C_24  and  C_26
REMARK    6  A    between atoms: O_33  and  C_34
REMARK                            x       y       z     vdW  Elec       q    Type
REMARK                         _______ _______ _______ _____ _____    ______ ____
ROOT
ATOM      1  N   UNL     1      -1.713  -2.843   2.986  0.00  0.00    -0.269 N 
ATOM      2  C   UNL     1      -1.012  -2.170   3.920  0.00  0.00    +0.307 C 
ATOM      3  O   UNL     1      -0.928  -0.959   3.862  0.00  0.00    -0.252 OA
ATOM      4  N   UNL     1      -0.403  -2.841   4.918  0.00  0.00    -0.276 N 
ATOM      5  C   UNL     1      -0.405  -4.307   4.913  0.00  0.00    +0.114 C 
ATOM      6  C   UNL     1       1.046  -4.822   4.938  0.00  0.00    +0.052 C 
ATOM      7  C   UNL     1       1.773  -4.016   5.985  0.00  0.00    -0.035 C 
ATOM      8  C   UNL     1       2.514  -4.388   7.020  0.00  0.00    +0.003 A 
ATOM      9  C   UNL     1       2.989  -5.707   7.466  0.00  0.00    +0.055 A 
ATOM     10  C   UNL     1       3.730  -5.736   8.608  0.00  0.00    +0.121 A 
ATOM     11  C   UNL     1       4.055  -4.598   9.361  0.00  0.00    +0.047 A 
ATOM     12  C   UNL     1       3.677  -3.335   9.037  0.00  0.00    +0.029 A 
ATOM     13  C   UNL     1       2.877  -3.174   7.815  0.00  0.00    +0.043 A 
ATOM     14  N   UNL     1       2.401  -2.103   7.255  0.00  0.00    -0.375 N 
ATOM     15  C   UNL     1       1.736  -2.492   6.011  0.00  0.00    +0.131 C 
ATOM     16  C   UNL     1       0.261  -2.094   5.997  0.00  0.00    +0.134 C 
ATOM     17  H   UNL     1      -1.844  -3.800   3.073  0.00  0.00    +0.156 HD
ATOM     18  H   UNL     1       2.474  -1.200   7.602  0.00  0.00    +0.160 HD
ENDROOT
BRANCH   1  24
ATOM     19  C   UNL     1      -3.975   1.125   1.164  0.00  0.00    +0.044 C 
ATOM     20  C   UNL     1      -3.354  -0.236   0.978  0.00  0.00    -0.049 A 
ATOM     21  C   UNL     1      -3.316  -0.811  -0.280  0.00  0.00    +0.004 A 
ATOM     22  C   UNL     1      -2.748  -2.059  -0.455  0.00  0.00    +0.005 A 
ATOM     23  C   UNL     1      -2.215  -2.735   0.625  0.00  0.00    -0.029 A 
ATOM     24  C   UNL     1      -2.252  -2.160   1.889  0.00  0.00    +0.038 A 
ATOM     25  C   UNL     1      -2.818  -0.904   2.061  0.00  0.00    +0.027 A 
ATOM     26  C   UNL     1      -1.596  -4.096   0.433  0.00  0.00    +0.045 C 
ENDBRANCH   1  24
BRANCH  16  27
ATOM     27  C   UNL     1       0.138  -0.613   5.744  0.00  0.00    -0.025 A 
ATOM     28  C   UNL     1       0.899  -0.015   4.756  0.00  0.00    +0.008 A 
ATOM     29  C   UNL     1       0.786   1.342   4.523  0.00  0.00    +0.038 A 
ATOM     30  C   UNL     1      -0.089   2.104   5.279  0.00  0.00    +0.123 A 
ATOM     31  C   UNL     1      -0.850   1.504   6.268  0.00  0.00    +0.038 A 
ATOM     32  C   UNL     1      -0.740   0.145   6.496  0.00  0.00    +0.008 A 
ATOM     33  F   UNL     1      -0.200   3.431   5.052  0.00  0.00    -0.205 F 
ENDBRANCH  16  27
BRANCH  10  34
ATOM     34  O   UNL     1       4.182  -6.941   9.045  0.00  0.00    -0.495 OA
ATOM     35  C   UNL     1       4.958  -6.946  10.245  0.00  0.00    +0.277 C 
ENDBRANCH  10  34
TORSDOF 3
