REMARK  Name = ZINC40083847
REMARK  7 active torsions:
REMARK  status: ('A' for Active; 'I' for Inactive)
REMARK    1  A    between atoms: C_3  and  S_23
REMARK    2  A    between atoms: C_6  and  N_7
REMARK    3  A    between atoms: N_7  and  C_8
REMARK    4  A    between atoms: C_8  and  N_10
REMARK    5  A    between atoms: N_10  and  N_11
REMARK    6  A    between atoms: C_12  and  C_13
REMARK    7  A    between atoms: S_23  and  C_24
REMARK                            x       y       z     vdW  Elec       q    Type
REMARK                         _______ _______ _______ _____ _____    ______ ____
ROOT
ATOM      1  N   UNL     1      -2.346  -2.745  -0.194  0.00  0.00    -0.218 N 
ATOM      2  H   UNL     1      -2.335  -3.712  -0.272  0.00  0.00    +0.176 HD
ENDROOT
BRANCH   1   3
ATOM      3  C   UNL     1      -1.187  -2.064  -0.100  0.00  0.00    +0.154 C 
ATOM      4  S   UNL     1       0.304  -2.905  -0.118  0.00  0.00    -0.017 S 
BRANCH   3   5
ATOM      5  N   UNL     1      -1.202  -0.721   0.010  0.00  0.00    -0.296 N 
ATOM      6  H   UNL     1      -2.046  -0.249   0.082  0.00  0.00    +0.154 HD
BRANCH   5  12
ATOM      7  C   UNL     1       0.136   1.140  -0.757  0.00  0.00    +0.024 A 
ATOM      8  C   UNL     1       1.322   1.845  -0.749  0.00  0.00    +0.017 A 
ATOM      9  C   UNL     1       2.384   1.409   0.035  0.00  0.00    +0.013 A 
ATOM     10  C   UNL     1       2.251   0.263   0.810  0.00  0.00    +0.017 A 
ATOM     11  C   UNL     1       1.064  -0.441   0.801  0.00  0.00    +0.024 A 
ATOM     12  C   UNL     1       0.003  -0.005   0.018  0.00  0.00    +0.033 A 
BRANCH   9  13
ATOM     13  S   UNL     1       3.899   2.308   0.045  0.00  0.00    -0.056 S 
BRANCH  13  14
ATOM     14  C   UNL     1       4.955   1.376   1.187  0.00  0.00    +0.404 C 
ATOM     15  F   UNL     1       4.356   1.338   2.451  0.00  0.00    -0.197 F 
ATOM     16  F   UNL     1       5.120   0.071   0.710  0.00  0.00    -0.197 F 
ENDBRANCH  13  14
ENDBRANCH   9  13
ENDBRANCH   5  12
ENDBRANCH   3   5
ENDBRANCH   1   3
BRANCH   1  17
ATOM     17  N   UNL     1      -3.566  -2.057  -0.178  0.00  0.00    -0.189 NA
ATOM     18  C   UNL     1      -4.693  -2.720  -0.270  0.00  0.00    +0.136 C 
BRANCH  18  19
ATOM     19  C   UNL     1      -5.913  -2.032  -0.254  0.00  0.00    +0.000 C 
ATOM     20  C   UNL     1      -7.191  -2.581  -0.336  0.00  0.00    +0.005 A 
ATOM     21  C   UNL     1      -7.653  -3.911  -0.453  0.00  0.00    +0.025 A 
ATOM     22  C   UNL     1      -8.986  -4.158  -0.513  0.00  0.00    +0.019 A 
ATOM     23  C   UNL     1      -9.926  -3.123  -0.462  0.00  0.00    +0.017 A 
ATOM     24  C   UNL     1      -9.555  -1.825  -0.350  0.00  0.00    +0.027 A 
ATOM     25  C   UNL     1      -8.177  -1.488  -0.281  0.00  0.00    +0.043 A 
ATOM     26  N   UNL     1      -7.569  -0.325  -0.173  0.00  0.00    -0.380 N 
ATOM     27  C   UNL     1      -6.119  -0.538  -0.139  0.00  0.00    +0.150 C 
ATOM     28 BR   UNL     1      -9.588  -5.944  -0.670  0.00  0.00    -0.050 Br
ATOM     29  H   UNL     1      -8.011   0.537  -0.120  0.00  0.00    +0.160 HD
ENDBRANCH  18  19
ENDBRANCH   1  17
TORSDOF 7
