REMARK  Name = ZINC13466328
REMARK  8 active torsions:
REMARK  status: ('A' for Active; 'I' for Inactive)
REMARK    1  A    between atoms: C_1  and  C_2
REMARK    2  A    between atoms: C_5  and  S_8
REMARK    3  A    between atoms: S_8  and  C_33
REMARK    4  A    between atoms: N_9  and  C_10
REMARK    5  A    between atoms: C_10  and  N_12
REMARK    6  A    between atoms: C_13  and  C_15
REMARK    7  A    between atoms: C_21  and  C_28
REMARK    8  A    between atoms: C_23  and  C_24
REMARK                            x       y       z     vdW  Elec       q    Type
REMARK                         _______ _______ _______ _____ _____    ______ ____
ROOT
ATOM      1  N   UNL     1       3.034  -6.697   0.057  0.00  0.00    -0.262 N 
ATOM      2  C   UNL     1       3.313  -8.016   0.058  0.00  0.00    +0.255 C 
ATOM      3  O   UNL     1       2.408  -8.829   0.025  0.00  0.00    -0.270 OA
ATOM      4  H   UNL     1       3.755  -6.049   0.083  0.00  0.00    +0.157 HD
ENDROOT
BRANCH   2   5
ATOM      5  C   UNL     1       4.705  -8.470   0.099  0.00  0.00    +0.101 A 
ATOM      6  C   UNL     1       5.851  -7.656   0.145  0.00  0.00    +0.150 A 
ATOM      7  N   UNL     1       6.909  -8.422   0.172  0.00  0.00    -0.172 NA
ATOM      8  N   UNL     1       6.516  -9.764   0.145  0.00  0.00    -0.209 N 
ATOM      9  C   UNL     1       5.151  -9.806   0.105  0.00  0.00    +0.169 A 
ATOM     10  N   UNL     1       4.504 -10.972   0.077  0.00  0.00    -0.223 NA
ATOM     11  C   UNL     1       5.163 -12.110   0.090  0.00  0.00    +0.148 A 
ATOM     12  C   UNL     1       6.562 -12.110   0.135  0.00  0.00    +0.064 A 
ATOM     13  C   UNL     1       7.228 -10.927   0.155  0.00  0.00    +0.149 A 
BRANCH  13  14
ATOM     14  C   UNL     1       8.734 -10.899   0.205  0.00  0.00    +0.434 C 
ATOM     15  F   UNL     1       9.224 -12.209   0.207  0.00  0.00    -0.164 F 
ATOM     16  F   UNL     1       9.225 -10.218  -0.914  0.00  0.00    -0.164 F 
ATOM     17  F   UNL     1       9.150 -10.243   1.369  0.00  0.00    -0.164 F 
ENDBRANCH  13  14
BRANCH  11  18
ATOM     18  C   UNL     1       4.412 -13.415   0.058  0.00  0.00    +0.434 C 
ATOM     19  F   UNL     1       3.037 -13.161   0.017  0.00  0.00    -0.164 F 
ATOM     20  F   UNL     1       4.786 -14.141  -1.077  0.00  0.00    -0.164 F 
ATOM     21  F   UNL     1       4.714 -14.156   1.206  0.00  0.00    -0.164 F 
ENDBRANCH  11  18
ENDBRANCH   2   5
BRANCH   1  22
ATOM     22  C   UNL     1       1.754  -6.279   0.020  0.00  0.00    +0.169 C 
ATOM     23  S   UNL     1       0.480  -7.423  -0.027  0.00  0.00    -0.016 S 
BRANCH  22  25
ATOM     24  S   UNL     1       0.063  -4.530  -0.023  0.00  0.00    +0.072 S 
ATOM     25  N   UNL     1       1.482  -4.994   0.019  0.00  0.00    -0.138 NA
ATOM     26  O   UNL     1      -0.524  -4.982  -1.235  0.00  0.00    -0.245 OA
ATOM     27  C   UNL     1      -0.781  -5.125   1.468  0.00  0.00    +0.136 C 
BRANCH  24  32
ATOM     28  C   UNL     1      -0.018   1.503   0.010  0.00  0.00    +0.044 C 
ATOM     29  C   UNL     1       0.002  -0.004   0.002  0.00  0.00    -0.050 A 
ATOM     30  C   UNL     1       0.006  -0.689  -1.199  0.00  0.00    +0.004 A 
ATOM     31  C   UNL     1       0.025  -2.071  -1.206  0.00  0.00    +0.018 A 
ATOM     32  C   UNL     1       0.040  -2.768  -0.013  0.00  0.00    +0.046 A 
ATOM     33  C   UNL     1       0.037  -2.084   1.188  0.00  0.00    +0.018 A 
ATOM     34  C   UNL     1       0.023  -0.702   1.195  0.00  0.00    +0.004 A 
ENDBRANCH  24  32
ENDBRANCH  22  25
ENDBRANCH   1  22
TORSDOF 6
