REMARK  Name = ZINC33938636
REMARK  10 active torsions:
REMARK  status: ('A' for Active; 'I' for Inactive)
REMARK    1  A    between atoms: C_1  and  C_2
REMARK    2  A    between atoms: C_2  and  O_3
REMARK    3  A    between atoms: O_3  and  C_4
REMARK    4  A    between atoms: C_7  and  N_10
REMARK    5  A    between atoms: C_15  and  C_33
REMARK    6  A    between atoms: C_18  and  C_23
REMARK    7  A    between atoms: C_18  and  C_29
REMARK    8  A    between atoms: C_29  and  O_31
REMARK    9  A    between atoms: O_31  and  C_32
REMARK   10  A    between atoms: C_36  and  O_39
REMARK                            x       y       z     vdW  Elec       q    Type
REMARK                         _______ _______ _______ _____ _____    ______ ____
ROOT
ATOM      1  N   UNL     1       0.867  -6.146   1.350  0.00  0.00    -0.210 N 
ATOM      2  C   UNL     1       0.448  -7.183   0.554  0.00  0.00    +0.229 C 
ATOM      3  O   UNL     1       0.055  -7.124  -0.592  0.00  0.00    -0.275 OA
ATOM      4  C   UNL     1       0.580  -8.357   1.380  0.00  0.00    +0.078 C 
ATOM      5  C   UNL     1       0.697  -9.821   1.264  0.00  0.00    -0.026 C 
ATOM      6  N   UNL     1       1.048 -10.221   2.671  0.00  0.00    +0.398 N 
ATOM      7  C   UNL     1       1.655  -9.035   3.345  0.00  0.00    +0.070 C 
ATOM      8  C   UNL     1       1.873  -8.011   2.220  0.00  0.00    +0.090 C 
ATOM      9  C   UNL     1       1.516  -6.572   2.474  0.00  0.00    +0.229 C 
ATOM     10  O   UNL     1       1.754  -5.925   3.471  0.00  0.00    -0.275 OA
ATOM     11  H   UNL     1       0.214 -10.504   3.164  0.00  0.00    -0.083 HD
ATOM     12  H   UNL     1       1.711 -10.981   2.655  0.00  0.00    -0.083 HD
ENDROOT
BRANCH   1  16
ATOM     13  C   UNL     1       0.238  -2.125   0.429  0.00  0.00    +0.121 A 
ATOM     14  C   UNL     1      -0.222  -3.114  -0.429  0.00  0.00    +0.047 A 
ATOM     15  C   UNL     1      -0.014  -4.444  -0.124  0.00  0.00    +0.027 A 
ATOM     16  C   UNL     1       0.656  -4.793   1.040  0.00  0.00    +0.044 A 
ATOM     17  C   UNL     1       1.117  -3.804   1.898  0.00  0.00    +0.027 A 
ATOM     18  C   UNL     1       0.913  -2.474   1.590  0.00  0.00    +0.047 A 
BRANCH  13  19
ATOM     19  O   UNL     1       0.034  -0.815   0.129  0.00  0.00    -0.492 OA
BRANCH  19  21
ATOM     20  C   UNL     1      -0.801   0.986  -1.249  0.00  0.00    +0.048 C 
ATOM     21  C   UNL     1      -0.668  -0.529  -1.083  0.00  0.00    +0.225 C 
ENDBRANCH  19  21
ENDBRANCH  13  19
ENDBRANCH   1  16
BRANCH   7  22
ATOM     22  C   UNL     1       0.722  -8.498   4.399  0.00  0.00    -0.047 A 
ATOM     23  C   UNL     1       1.233  -7.895   5.533  0.00  0.00    +0.003 A 
ATOM     24  C   UNL     1       0.377  -7.403   6.500  0.00  0.00    +0.000 A 
ATOM     25  C   UNL     1      -0.991  -7.514   6.333  0.00  0.00    +0.000 A 
ATOM     26  C   UNL     1      -1.503  -8.117   5.199  0.00  0.00    +0.000 A 
ATOM     27  C   UNL     1      -0.646  -8.605   4.230  0.00  0.00    +0.003 A 
ENDBRANCH   7  22
BRANCH   5  28
ATOM     28  C   UNL     1      -0.614 -10.434   0.842  0.00  0.00    -0.060 A 
ATOM     29  C   UNL     1      -1.556 -10.775   1.795  0.00  0.00    +0.005 A 
ATOM     30  C   UNL     1      -2.757 -11.337   1.410  0.00  0.00    +0.045 A 
ATOM     31  C   UNL     1      -3.019 -11.558   0.066  0.00  0.00    +0.117 A 
ATOM     32  C   UNL     1      -2.073 -11.214  -0.889  0.00  0.00    +0.045 A 
ATOM     33  C   UNL     1      -0.875 -10.648  -0.499  0.00  0.00    +0.005 A 
BRANCH  31  34
ATOM     34  O   UNL     1      -4.201 -12.111  -0.315  0.00  0.00    -0.507 OA
ATOM     35  H   UNL     1      -4.900 -11.465  -0.488  0.00  0.00    +0.292 HD
ENDBRANCH  31  34
ENDBRANCH   5  28
BRANCH   7  36
ATOM     36  C   UNL     1       2.980  -9.406   3.959  0.00  0.00    +0.301 C 
ATOM     37  O   UNL     1       3.892  -8.613   3.955  0.00  0.00    -0.252 OA
BRANCH  36  38
ATOM     38  O   UNL     1       3.148 -10.617   4.512  0.00  0.00    -0.469 OA
ATOM     39  C   UNL     1       4.430 -10.901   5.077  0.00  0.00    +0.280 C 
ENDBRANCH  36  38
ENDBRANCH   7  36
TORSDOF 8
