REMARK  Name = ZINC59777433
REMARK  5 active torsions:
REMARK  status: ('A' for Active; 'I' for Inactive)
REMARK    1  A    between atoms: C_6  and  C_7
REMARK    2  A    between atoms: C_10  and  S_13
REMARK    3  A    between atoms: S_13  and  C_14
REMARK    4  A    between atoms: C_14  and  C_15
REMARK    5  A    between atoms: N_17  and  C_18
REMARK                            x       y       z     vdW  Elec       q    Type
REMARK                         _______ _______ _______ _____ _____    ______ ____
ROOT
ATOM      1  C   UNL     1      -1.796  -5.128  -0.007  0.00  0.00    +0.173 C 
ENDROOT
BRANCH   1   2
ATOM      2  C   UNL     1      -2.200  -6.580  -0.010  0.00  0.00    +0.224 C 
ATOM      3  O   UNL     1      -3.374  -6.883  -0.000  0.00  0.00    -0.275 OA
ATOM      4  N   UNL     1      -1.256  -7.541  -0.025  0.00  0.00    -0.311 N 
ATOM      5  H   UNL     1      -0.317  -7.299  -0.033  0.00  0.00    +0.149 HD
BRANCH   4   6
ATOM      6  C   UNL     1      -1.648  -8.953  -0.028  0.00  0.00    +0.079 C 
ATOM      7  C   UNL     1      -1.892  -9.418   1.409  0.00  0.00    +0.010 C 
ATOM      8  C   UNL     1      -2.302 -10.892   1.405  0.00  0.00    +0.009 C 
ATOM      9  C   UNL     1      -1.185 -11.730   0.780  0.00  0.00    -0.010 C 
ATOM     10  C   UNL     1       0.098 -11.560   1.596  0.00  0.00    +0.007 C 
ATOM     11  C   UNL     1       0.508 -10.086   1.599  0.00  0.00    -0.010 C 
ATOM     12  C   UNL     1      -0.609  -9.248   2.224  0.00  0.00    +0.009 C 
ATOM     13  C   UNL     1       0.752  -9.620   0.162  0.00  0.00    +0.009 C 
ATOM     14  C   UNL     1      -0.531  -9.791  -0.653  0.00  0.00    +0.010 C 
ATOM     15  C   UNL     1      -0.941 -11.265  -0.657  0.00  0.00    +0.009 C 
ENDBRANCH   4   6
ENDBRANCH   1   2
BRANCH   1  16
ATOM     16  S   UNL     1      -3.282  -4.087   0.013  0.00  0.00    -0.077 S 
BRANCH  16  20
ATOM     17  C   UNL     1      -1.271  -0.766   0.011  0.00  0.00    +0.182 A 
ATOM     18  N   UNL     1      -1.380  -2.102   0.004  0.00  0.00    -0.201 NA
ATOM     19  H   UNL     1      -4.355  -1.246   0.040  0.00  0.00    +0.191 HD
ATOM     20  C   UNL     1      -2.651  -2.442   0.016  0.00  0.00    +0.185 A 
ATOM     21  N   UNL     1      -3.387  -1.309   0.029  0.00  0.00    -0.253 N 
ATOM     22  N   UNL     1      -2.475  -0.241   0.031  0.00  0.00    -0.152 NA
BRANCH  17  28
ATOM     23  C   UNL     1      -0.017   1.389   0.010  0.00  0.00    +0.013 A 
ATOM     24  C   UNL     1       1.170   2.093   0.002  0.00  0.00    +0.016 A 
ATOM     25  C   UNL     1       2.378   1.417  -0.013  0.00  0.00    +0.018 A 
ATOM     26  C   UNL     1       2.402   0.034  -0.021  0.00  0.00    +0.016 A 
ATOM     27  C   UNL     1       1.221  -0.680  -0.014  0.00  0.00    +0.013 A 
ATOM     28  C   UNL     1       0.002  -0.004   0.002  0.00  0.00    +0.021 A 
ATOM     29 BR   UNL     1       4.001   2.388  -0.025  0.00  0.00    -0.050 Br
ENDBRANCH  17  28
ENDBRANCH  16  20
ENDBRANCH   1  16
TORSDOF 5
