REMARK  Name = ZINC20895461
REMARK  4 active torsions:
REMARK  status: ('A' for Active; 'I' for Inactive)
REMARK    1  A    between atoms: C_1  and  C_2
REMARK    2  A    between atoms: C_5  and  C_14
REMARK    3  A    between atoms: C_12  and  C_13
REMARK    4  A    between atoms: C_14  and  N_15
REMARK                            x       y       z     vdW  Elec       q    Type
REMARK                         _______ _______ _______ _____ _____    ______ ____
ROOT
ATOM      1  N   UNL     1       4.318  -0.754   1.289  0.00  0.00    -0.220 N 
ATOM      2  C   UNL     1       4.174  -1.721   2.234  0.00  0.00    +0.251 C 
ATOM      3  O   UNL     1       3.610  -2.774   2.042  0.00  0.00    -0.272 OA
ATOM      4  C   UNL     1       4.849  -1.176   3.450  0.00  0.00    +0.138 C 
ATOM      5  C   UNL     1       5.851  -2.108   4.107  0.00  0.00    +0.040 C 
ATOM      6  C   UNL     1       5.440  -3.559   4.000  0.00  0.00    +0.003 C 
ATOM      7  C   UNL     1       4.347  -3.917   4.996  0.00  0.00    +0.005 C 
ATOM      8  C   UNL     1       3.022  -3.248   4.664  0.00  0.00    +0.035 C 
ATOM      9  C   UNL     1       3.010  -1.791   5.067  0.00  0.00    -0.042 A 
ATOM     10  C   UNL     1       3.815  -0.836   4.514  0.00  0.00    -0.012 A 
ATOM     11  C   UNL     1       3.718   0.489   4.915  0.00  0.00    +0.006 A 
ATOM     12  C   UNL     1       2.814   0.851   5.895  0.00  0.00    +0.000 A 
ATOM     13  C   UNL     1       2.013  -0.114   6.476  0.00  0.00    +0.000 A 
ATOM     14  C   UNL     1       2.107  -1.427   6.064  0.00  0.00    +0.004 A 
ATOM     15  N   UNL     1       5.504   0.057   2.993  0.00  0.00    -0.281 N 
ATOM     16  C   UNL     1       5.100   0.242   1.721  0.00  0.00    +0.310 C 
ATOM     17  O   UNL     1       5.411   1.203   1.045  0.00  0.00    -0.252 OA
ATOM     18  H   UNL     1       6.168   0.611   3.673  0.00  0.00    +0.152 HD
ENDROOT
BRANCH   1  19
ATOM     19  C   UNL     1       3.705  -0.814  -0.038  0.00  0.00    +0.154 C 
BRANCH  19  24
ATOM     20  C   UNL     1       1.831  -0.676  -4.939  0.00  0.00    +0.044 C 
ATOM     21  C   UNL     1       1.338  -0.154  -3.615  0.00  0.00    -0.047 A 
ATOM     22  C   UNL     1       2.084  -0.359  -2.476  0.00  0.00    +0.015 A 
ATOM     23  C   UNL     1       1.622   0.128  -1.250  0.00  0.00    +0.023 A 
ATOM     24  C   UNL     1       2.392  -0.074  -0.018  0.00  0.00    -0.012 A 
ATOM     25  C   UNL     1       1.889   0.422   1.140  0.00  0.00    +0.098 A 
ATOM     26  C   UNL     1       0.656   1.111   1.132  0.00  0.00    +0.338 A 
ATOM     27  O   UNL     1       0.215   1.551   2.178  0.00  0.00    -0.245 OA
ATOM     28  O   UNL     1      -0.042   1.292   0.000  0.00  0.00    -0.422 OA
ATOM     29  C   UNL     1       0.402   0.823  -1.185  0.00  0.00    +0.140 A 
ATOM     30  C   UNL     1      -0.334   1.019  -2.346  0.00  0.00    +0.050 A 
ATOM     31  C   UNL     1       0.134   0.533  -3.549  0.00  0.00    -0.044 A 
ATOM     32  C   UNL     1      -0.670   0.750  -4.805  0.00  0.00    +0.044 C 
ENDBRANCH  19  24
ENDBRANCH   1  19
TORSDOF 2
