REMARK  Name = ZINC18094981
REMARK  11 active torsions:
REMARK  status: ('A' for Active; 'I' for Inactive)
REMARK    1  A    between atoms: C_1  and  C_2
REMARK    2  A    between atoms: C_2  and  N_3
REMARK    3  A    between atoms: N_3  and  C_4
REMARK    4  A    between atoms: C_4  and  C_5
REMARK    5  A    between atoms: N_7  and  C_8
REMARK    6  A    between atoms: C_13  and  C_14
REMARK    7  A    between atoms: C_18  and  C_20
REMARK    8  A    between atoms: C_21  and  C_33
REMARK    9  A    between atoms: N_23  and  C_25
REMARK   10  A    between atoms: C_28  and  C_32
REMARK   11  A    between atoms: C_30  and  C_31
REMARK                            x       y       z     vdW  Elec       q    Type
REMARK                         _______ _______ _______ _____ _____    ______ ____
ROOT
ATOM      1  N   UNL     1      -4.108   8.491  -1.466  0.00  0.00    -0.288 N 
ATOM      2  C   UNL     1      -2.817   8.615  -1.099  0.00  0.00    +0.269 C 
ATOM      3  O   UNL     1      -2.322   9.719  -0.980  0.00  0.00    -0.268 OA
ENDROOT
BRANCH   2   4
ATOM      4  C   UNL     1      -2.003   7.409  -0.843  0.00  0.00    +0.170 A 
ATOM      5  C   UNL     1      -0.659   7.390  -0.430  0.00  0.00    +0.093 A 
ATOM      6  N   UNL     1      -0.318   6.127  -0.319  0.00  0.00    -0.152 NA
ATOM      7  N   UNL     1      -1.443   5.364  -0.659  0.00  0.00    -0.149 N 
ATOM      8  N   UNL     1      -2.408   6.158  -0.965  0.00  0.00    -0.142 NA
ATOM      9  C   UNL     1       0.219   8.586  -0.169  0.00  0.00    +0.070 C 
BRANCH   7  10
ATOM     10  C   UNL     1      -1.504   3.963  -0.671  0.00  0.00    +0.089 A 
ATOM     11  C   UNL     1      -2.623   3.320  -1.183  0.00  0.00    +0.030 A 
ATOM     12  C   UNL     1      -2.680   1.940  -1.193  0.00  0.00    +0.005 A 
ATOM     13  C   UNL     1      -1.625   1.199  -0.693  0.00  0.00    -0.050 A 
ATOM     14  C   UNL     1      -0.509   1.837  -0.183  0.00  0.00    +0.008 A 
ATOM     15  C   UNL     1      -0.446   3.217  -0.171  0.00  0.00    -0.023 A 
ATOM     16  C   UNL     1       0.771   3.911   0.385  0.00  0.00    +0.046 C 
ATOM     17  C   UNL     1      -1.691  -0.306  -0.706  0.00  0.00    +0.044 C 
ENDBRANCH   7  10
ENDBRANCH   2   4
BRANCH   1  19
ATOM     18  C   UNL     1      -5.103   6.534  -0.389  0.00  0.00    +0.024 C 
ATOM     19  C   UNL     1      -4.675   7.164  -1.716  0.00  0.00    +0.105 C 
ENDBRANCH   1  19
BRANCH   1  20
ATOM     20  C   UNL     1      -4.945   9.685  -1.615  0.00  0.00    +0.204 C 
BRANCH  20  21
ATOM     21  C   UNL     1      -4.853  10.189  -3.031  0.00  0.00    +0.235 C 
ATOM     22  O   UNL     1      -4.157   9.609  -3.838  0.00  0.00    -0.274 OA
ATOM     23  N   UNL     1      -5.544  11.285  -3.403  0.00  0.00    -0.284 N 
ATOM     24  H   UNL     1      -6.038  11.794  -2.741  0.00  0.00    +0.155 HD
BRANCH  23  25
ATOM     25  C   UNL     1      -5.550  11.688  -4.743  0.00  0.00    +0.045 A 
ATOM     26  C   UNL     1      -5.397  10.748  -5.753  0.00  0.00    +0.024 A 
ATOM     27  C   UNL     1      -5.408  11.148  -7.075  0.00  0.00    +0.002 A 
ATOM     28  C   UNL     1      -5.560  12.486  -7.392  0.00  0.00    +0.001 A 
ATOM     29  C   UNL     1      -5.706  13.425  -6.389  0.00  0.00    +0.014 A 
ATOM     30  C   UNL     1      -5.701  13.030  -5.065  0.00  0.00    +0.076 A 
BRANCH  30  31
ATOM     31  C   UNL     1      -5.860  14.055  -3.971  0.00  0.00    +0.419 C 
ATOM     32  F   UNL     1      -5.995  15.326  -4.540  0.00  0.00    -0.166 F 
ATOM     33  F   UNL     1      -6.999  13.759  -3.216  0.00  0.00    -0.166 F 
ATOM     34  F   UNL     1      -4.732  14.032  -3.144  0.00  0.00    -0.166 F 
ENDBRANCH  30  31
ENDBRANCH  23  25
ENDBRANCH  20  21
ENDBRANCH   1  20
TORSDOF 7
