REMARK  Name = ZINC08854980
REMARK  9 active torsions:
REMARK  status: ('A' for Active; 'I' for Inactive)
REMARK    1  A    between atoms: C_1  and  C_2
REMARK    2  A    between atoms: C_2  and  C_3
REMARK    3  A    between atoms: C_3  and  C_4
REMARK    4  A    between atoms: C_4  and  O_5
REMARK    5  A    between atoms: O_5  and  C_6
REMARK    6  A    between atoms: C_9  and  C_12
REMARK    7  A    between atoms: C_19  and  N_35
REMARK    8  A    between atoms: C_20  and  C_33
REMARK    9  A    between atoms: C_21  and  C_23
REMARK                            x       y       z     vdW  Elec       q    Type
REMARK                         _______ _______ _______ _____ _____    ______ ____
ROOT
ATOM      1  C   UNL     1       1.845  -8.559   3.232  0.00  0.00    +0.100 A 
ATOM      2  C   UNL     1       3.114  -9.015   3.600  0.00  0.00    +0.054 A 
ATOM      3  C   UNL     1       3.078 -10.379   3.642  0.00  0.00    +0.223 A 
ATOM      4  N   UNL     1       1.828 -10.766   3.313  0.00  0.00    -0.246 N 
ATOM      5  H   UNL     1       1.509 -11.681   3.262  0.00  0.00    +0.192 HD
ATOM      6  N   UNL     1       1.068  -9.613   3.065  0.00  0.00    -0.171 NA
ATOM      7  O   UNL     1       4.160 -11.130   3.965  0.00  0.00    -0.423 OA
ATOM      8  C   UNL     1       5.362 -10.520   3.983  0.00  0.00    +0.200 C 
ATOM      9  C   UNL     1       5.524  -9.178   3.959  0.00  0.00    +0.098 C 
ATOM     10  C   UNL     1       4.358  -8.223   3.913  0.00  0.00    +0.103 C 
ENDROOT
BRANCH  10  11
ATOM     11  C   UNL     1       4.204  -7.543   5.249  0.00  0.00    -0.017 A 
ATOM     12  C   UNL     1       3.858  -8.284   6.364  0.00  0.00    +0.055 A 
ATOM     13  C   UNL     1       3.716  -7.661   7.593  0.00  0.00    +0.167 A 
ATOM     14  C   UNL     1       3.924  -6.288   7.703  0.00  0.00    +0.167 A 
ATOM     15  C   UNL     1       4.270  -5.552   6.582  0.00  0.00    +0.065 A 
ATOM     16  C   UNL     1       4.416  -6.181   5.359  0.00  0.00    +0.026 A 
ATOM     17 BR   UNL     1       4.897  -5.175   3.831  0.00  0.00    -0.050 Br
ATOM     18  O   UNL     1       3.725  -5.919   9.002  0.00  0.00    -0.453 OA
ATOM     19  C   UNL     1       2.997  -7.006   9.604  0.00  0.00    +0.466 C 
ATOM     20  O   UNL     1       3.388  -8.152   8.824  0.00  0.00    -0.453 OA
ENDBRANCH  10  11
BRANCH   1  24
ATOM     21  C   UNL     1       0.686  -4.493   2.759  0.00  0.00    +0.121 A 
ATOM     22  C   UNL     1      -0.153  -5.380   3.420  0.00  0.00    +0.046 A 
ATOM     23  C   UNL     1       0.220  -6.699   3.575  0.00  0.00    +0.013 A 
ATOM     24  C   UNL     1       1.440  -7.141   3.067  0.00  0.00    +0.003 A 
ATOM     25  C   UNL     1       2.280  -6.249   2.403  0.00  0.00    +0.013 A 
ATOM     26  C   UNL     1       1.899  -4.932   2.246  0.00  0.00    +0.046 A 
BRANCH  21  27
ATOM     27  O   UNL     1       0.316  -3.195   2.607  0.00  0.00    -0.492 OA
BRANCH  27  28
ATOM     28  C   UNL     1      -0.946  -2.811   3.159  0.00  0.00    +0.229 C 
BRANCH  28  29
ATOM     29  C   UNL     1      -1.188  -1.324   2.892  0.00  0.00    +0.041 C 
BRANCH  29  31
ATOM     30  C   UNL     1      -2.781   0.573   3.215  0.00  0.00    +0.004 C 
ATOM     31  C   UNL     1      -2.538  -0.913   3.482  0.00  0.00    -0.000 C 
ENDBRANCH  29  31
ENDBRANCH  28  29
ENDBRANCH  27  28
ENDBRANCH  21  27
ENDBRANCH   1  24
BRANCH   8  32
ATOM     32  N   UNL     1       6.486 -11.307   4.028  0.00  0.00    -0.328 N 
ATOM     33  H   UNL     1       6.401 -12.273   4.046  0.00  0.00    +0.145 HD
ATOM     34  H   UNL     1       7.365 -10.896   4.042  0.00  0.00    +0.145 HD
ENDBRANCH   8  32
BRANCH   9  35
ATOM     35  C   UNL     1       6.853  -8.644   3.978  0.00  0.00    +0.101 C 
ATOM     36  N   UNL     1       7.907  -8.220   3.993  0.00  0.00    -0.191 NA
ENDBRANCH   9  35
TORSDOF 8
