REMARK  Name = ZINC37820397
REMARK  5 active torsions:
REMARK  status: ('A' for Active; 'I' for Inactive)
REMARK    1  A    between atoms: C_5  and  C_8
REMARK    2  A    between atoms: C_14  and  C_17
REMARK    3  A    between atoms: C_17  and  N_18
REMARK    4  A    between atoms: N_18  and  S_19
REMARK    5  A    between atoms: S_19  and  N_22
REMARK                            x       y       z     vdW  Elec       q    Type
REMARK                         _______ _______ _______ _____ _____    ______ ____
ROOT
ATOM      1  C   UNL     1       0.808  -1.998  -1.231  0.00  0.00    +0.202 C 
ATOM      2  O   UNL     1       1.866  -2.588  -1.289  0.00  0.00    -0.277 OA
ATOM      3  N   UNL     1      -0.347  -2.690  -1.183  0.00  0.00    -0.303 N 
ATOM      4  C   UNL     1      -1.640  -1.993  -1.235  0.00  0.00    +0.108 C 
ATOM      5  C   UNL     1      -2.481  -2.598  -2.363  0.00  0.00    +0.019 C 
ATOM      6  C   UNL     1      -2.590  -4.111  -2.158  0.00  0.00    +0.008 C 
ATOM      7  C   UNL     1      -1.194  -4.736  -2.208  0.00  0.00    +0.022 C 
ATOM      8  C   UNL     1      -0.339  -4.156  -1.083  0.00  0.00    +0.112 C 
ENDROOT
BRANCH   1  13
ATOM      9  C   UNL     1       0.470   1.526   0.225  0.00  0.00    -0.003 C 
ATOM     10  C   UNL     1       1.808   2.051  -0.303  0.00  0.00    -0.019 C 
ATOM     11  C   UNL     1       2.053   1.489  -1.705  0.00  0.00    -0.082 C 
ATOM     12  N   UNL     1       2.089   0.022  -1.649  0.00  0.00    +0.387 N 
ATOM     13  C   UNL     1       0.786  -0.491  -1.211  0.00  0.00    +0.016 C 
ATOM     14  C   UNL     1       0.492  -0.005   0.209  0.00  0.00    -0.007 C 
ATOM     15  H   UNL     1       2.304  -0.343  -2.564  0.00  0.00    -0.085 HD
ATOM     16  H   UNL     1       2.801  -0.271  -0.996  0.00  0.00    -0.085 HD
ENDBRANCH   1  13
BRANCH   7  17
ATOM     17  C   UNL     1      -1.308  -6.252  -2.036  0.00  0.00    +0.112 C 
BRANCH  17  18
ATOM     18  N   UNL     1      -2.027  -6.821  -3.178  0.00  0.00    -0.180 NA
ATOM     19  H   UNL     1      -2.531  -6.242  -3.771  0.00  0.00    +0.149 HD
BRANCH  18  20
ATOM     20  S   UNL     1      -1.981  -8.453  -3.457  0.00  0.00    +0.092 S 
ATOM     21  O   UNL     1      -2.786  -8.691  -4.604  0.00  0.00    -0.142 OA
ATOM     22  O   UNL     1      -0.615  -8.837  -3.392  0.00  0.00    -0.142 OA
BRANCH  20  23
ATOM     23  N   UNL     1      -2.741  -9.189  -2.183  0.00  0.00    -0.193 NA
ATOM     24  H   UNL     1      -3.205 -10.030  -2.316  0.00  0.00    +0.145 HD
ATOM     25  H   UNL     1      -2.722  -8.779  -1.304  0.00  0.00    +0.145 HD
ENDBRANCH  20  23
ENDBRANCH  18  20
ENDBRANCH  17  18
ENDBRANCH   7  17
TORSDOF 5
