REMARK  Name = ZINC19802154
REMARK  9 active torsions:
REMARK  status: ('A' for Active; 'I' for Inactive)
REMARK    1  A    between atoms: C_1  and  N_2
REMARK    2  A    between atoms: N_2  and  C_3
REMARK    3  A    between atoms: N_2  and  C_4
REMARK    4  A    between atoms: C_4  and  C_5
REMARK    5  A    between atoms: C_5  and  O_6
REMARK    6  A    between atoms: O_6  and  C_7
REMARK    7  A    between atoms: C_12  and  C_13
REMARK    8  A    between atoms: N_14  and  N_15
REMARK    9  A    between atoms: N_18  and  C_21
REMARK                            x       y       z     vdW  Elec       q    Type
REMARK                         _______ _______ _______ _____ _____    ______ ____
ROOT
ATOM      1  N   UNL     1      -0.549   1.816   1.398  0.00  0.00    -0.253 N 
ATOM      2  C   UNL     1       0.152   0.741   2.115  0.00  0.00    +0.141 C 
ATOM      3  C   UNL     1       0.122  -0.522   1.239  0.00  0.00    +0.105 C 
ATOM      4  N   UNL     1       0.665  -0.204  -0.088  0.00  0.00    -0.292 NA
ATOM      5  C   UNL     1      -0.166   0.790  -0.780  0.00  0.00    +0.105 C 
ATOM      6  C   UNL     1      -0.152   2.102   0.011  0.00  0.00    +0.141 C 
ENDROOT
BRANCH   4   7
ATOM      7  C   UNL     1       0.818  -1.419  -0.900  0.00  0.00    +0.092 C 
ATOM      8  C   UNL     1      -0.524  -2.066  -1.022  0.00  0.00    +0.060 C 
ATOM      9  C   UNL     1      -0.571  -3.109  -2.090  0.00  0.00    -0.032 A 
ATOM     10  C   UNL     1      -1.127  -2.794  -3.324  0.00  0.00    +0.005 A 
ATOM     11  C   UNL     1      -1.107  -3.729  -4.342  0.00  0.00    +0.000 A 
ATOM     12  C   UNL     1      -0.541  -4.975  -4.141  0.00  0.00    +0.001 A 
ATOM     13  C   UNL     1      -0.002  -5.294  -2.908  0.00  0.00    +0.015 A 
ATOM     14  C   UNL     1      -0.035  -4.347  -1.890  0.00  0.00    +0.016 A 
ATOM     15  S   UNL     1       0.613  -4.724  -0.300  0.00  0.00    -0.089 S 
ATOM     16  C   UNL     1       1.935  -3.600  -0.030  0.00  0.00    +0.018 A 
ATOM     17  C   UNL     1       1.911  -2.253  -0.289  0.00  0.00    -0.015 A 
ATOM     18  C   UNL     1       3.042  -1.491   0.039  0.00  0.00    +0.026 A 
ATOM     19  C   UNL     1       4.169  -2.053   0.590  0.00  0.00    +0.041 A 
ATOM     20  C   UNL     1       4.200  -3.417   0.829  0.00  0.00    +0.021 A 
ATOM     21  C   UNL     1       3.097  -4.172   0.520  0.00  0.00    +0.017 A 
ATOM     22 CL   UNL     1       5.540  -1.063   0.982  0.00  0.00    -0.084 Cl
ENDBRANCH   4   7
BRANCH   1  24
ATOM     23  C   UNL     1      -1.321   3.191   3.124  0.00  0.00    +0.141 C 
ATOM     24  N   UNL     1      -1.565   2.552   2.021  0.00  0.00    -0.192 NA
BRANCH  23  30
ATOM     25  C   UNL     1       0.301   3.566   4.980  0.00  0.00    +0.129 A 
ATOM     26  C   UNL     1       1.603   3.651   5.444  0.00  0.00    +0.046 A 
ATOM     27  C   UNL     1       2.662   3.468   4.575  0.00  0.00    +0.004 A 
ATOM     28  C   UNL     1       2.431   3.200   3.236  0.00  0.00    +0.001 A 
ATOM     29  C   UNL     1       1.140   3.113   2.758  0.00  0.00    +0.013 A 
ATOM     30  C   UNL     1       0.062   3.290   3.627  0.00  0.00    +0.036 A 
BRANCH  25  31
ATOM     31  O   UNL     1      -0.741   3.745   5.834  0.00  0.00    -0.493 OA
BRANCH  31  32
ATOM     32  C   UNL     1      -0.423   4.127   7.174  0.00  0.00    +0.210 C 
BRANCH  32  33
ATOM     33  C   UNL     1      -1.706   4.188   8.005  0.00  0.00    -0.038 C 
BRANCH  33  35
ATOM     34  C   UNL     1      -3.925   5.154   8.066  0.00  0.00    -0.096 C 
ATOM     35  N   UNL     1      -2.584   5.239   7.473  0.00  0.00    +0.378 N 
ATOM     36  C   UNL     1      -1.999   6.570   7.683  0.00  0.00    -0.096 C 
ATOM     37  H   UNL     1      -2.683   5.080   6.389  0.00  0.00    -0.082 HD
ENDBRANCH  33  35
ENDBRANCH  32  33
ENDBRANCH  31  32
ENDBRANCH  25  31
ENDBRANCH  23  30
ENDBRANCH   1  24
TORSDOF 7
