REMARK  Name = ZINC40825152
REMARK  8 active torsions:
REMARK  status: ('A' for Active; 'I' for Inactive)
REMARK    1  A    between atoms: C_1  and  C_2
REMARK    2  A    between atoms: C_7  and  N_8
REMARK    3  A    between atoms: C_9  and  C_11
REMARK    4  A    between atoms: C_12  and  C_31
REMARK    5  A    between atoms: N_20  and  N_21
REMARK    6  A    between atoms: N_21  and  C_22
REMARK    7  A    between atoms: C_22  and  N_24
REMARK    8  A    between atoms: N_24  and  C_25
REMARK                            x       y       z     vdW  Elec       q    Type
REMARK                         _______ _______ _______ _____ _____    ______ ____
ROOT
ATOM      1  C   UNL     1       0.599  -0.155   4.946  0.00  0.00    +0.193 A 
ATOM      2  C   UNL     1       0.342  -0.663   6.189  0.00  0.00    +0.009 A 
ATOM      3  C   UNL     1      -0.066   0.420   6.977  0.00  0.00    +0.042 A 
ATOM      4  C   UNL     1      -0.041   1.541   6.183  0.00  0.00    +0.115 A 
ATOM      5  O   UNL     1       0.367   1.177   4.969  0.00  0.00    -0.454 OA
ATOM      6  C   UNL     1      -0.424   2.910   6.684  0.00  0.00    +0.075 C 
ATOM      7  C   UNL     1      -1.288   2.769   7.940  0.00  0.00    +0.014 C 
ATOM      8  C   UNL     1      -0.591   1.882   8.978  0.00  0.00    +0.058 C 
ATOM      9  C   UNL     1      -0.468   0.480   8.400  0.00  0.00    +0.070 C 
ATOM     10  N   UNL     1      -0.699  -0.586   9.104  0.00  0.00    -0.185 NA
ATOM     11  C   UNL     1       0.470  -2.101   6.623  0.00  0.00    +0.048 C 
ENDROOT
BRANCH   1  13
ATOM     12  N   UNL     1       1.281  -0.303   2.609  0.00  0.00    -0.279 N 
ATOM     13  C   UNL     1       1.056  -0.925   3.783  0.00  0.00    +0.284 C 
ATOM     14  O   UNL     1       1.232  -2.126   3.880  0.00  0.00    -0.266 OA
ATOM     15  H   UNL     1       1.198   0.661   2.547  0.00  0.00    +0.155 HD
BRANCH  12  22
ATOM     16  C   UNL     1       0.397   0.616   0.066  0.00  0.00    +0.046 C 
ATOM     17  C   UNL     1       1.222  -0.636   0.218  0.00  0.00    -0.028 A 
ATOM     18  C   UNL     1       1.576  -1.371  -0.897  0.00  0.00    +0.025 A 
ATOM     19  C   UNL     1       2.334  -2.520  -0.757  0.00  0.00    +0.041 A 
ATOM     20  C   UNL     1       2.740  -2.937   0.499  0.00  0.00    +0.022 A 
ATOM     21  C   UNL     1       2.389  -2.205   1.616  0.00  0.00    +0.025 A 
ATOM     22  C   UNL     1       1.633  -1.048   1.479  0.00  0.00    +0.037 A 
ATOM     23 CL   UNL     1       2.776  -3.442  -2.161  0.00  0.00    -0.084 Cl
ENDBRANCH  12  22
ENDBRANCH   1  13
BRANCH  10  24
ATOM     24  N   UNL     1      -1.078  -0.469  10.447  0.00  0.00    -0.218 N 
ATOM     25  H   UNL     1      -1.167   0.408  10.852  0.00  0.00    +0.176 HD
BRANCH  24  26
ATOM     26  C   UNL     1      -1.318  -1.576  11.178  0.00  0.00    +0.154 C 
ATOM     27  S   UNL     1      -1.780  -1.433  12.820  0.00  0.00    -0.017 S 
BRANCH  26  28
ATOM     28  N   UNL     1      -1.194  -2.794  10.616  0.00  0.00    -0.296 N 
ATOM     29  H   UNL     1      -0.852  -2.879   9.713  0.00  0.00    +0.154 HD
BRANCH  28  30
ATOM     30  C   UNL     1      -1.558  -3.937  11.336  0.00  0.00    +0.033 A 
ATOM     31  C   UNL     1      -2.700  -3.927  12.127  0.00  0.00    +0.023 A 
ATOM     32  C   UNL     1      -3.057  -5.057  12.836  0.00  0.00    +0.002 A 
ATOM     33  C   UNL     1      -2.279  -6.197  12.760  0.00  0.00    +0.000 A 
ATOM     34  C   UNL     1      -1.141  -6.211  11.974  0.00  0.00    +0.002 A 
ATOM     35  C   UNL     1      -0.781  -5.086  11.258  0.00  0.00    +0.023 A 
ENDBRANCH  28  30
ENDBRANCH  26  28
ENDBRANCH  24  26
ENDBRANCH  10  24
TORSDOF 6
