REMARK  Name = ZINC32329204
REMARK  6 active torsions:
REMARK  status: ('A' for Active; 'I' for Inactive)
REMARK    1  A    between atoms: C_1  and  C_2
REMARK    2  A    between atoms: C_5  and  N_8
REMARK    3  A    between atoms: C_12  and  S_13
REMARK    4  A    between atoms: S_13  and  C_14
REMARK    5  A    between atoms: C_14  and  C_15
REMARK    6  A    between atoms: C_15  and  C_17
REMARK                            x       y       z     vdW  Elec       q    Type
REMARK                         _______ _______ _______ _____ _____    ______ ____
ROOT
ATOM      1  N   UNL     1      -9.102  -0.714  -0.058  0.00  0.00    -0.259 N 
ATOM      2  C   UNL     1      -9.933   0.374  -0.048  0.00  0.00    +0.225 A 
ATOM      3  N   UNL     1      -9.188   1.452  -0.030  0.00  0.00    -0.112 NA
ATOM      4  N   UNL     1      -7.845   1.052  -0.023  0.00  0.00    -0.120 NA
ATOM      5  C   UNL     1      -7.811  -0.259  -0.044  0.00  0.00    +0.198 A 
ATOM      6  N   UNL     1     -11.321   0.342  -0.056  0.00  0.00    -0.299 N 
ATOM      7  C   UNL     1     -11.845  -0.325   1.164  0.00  0.00    +0.108 C 
ATOM      8  C   UNL     1     -13.306   0.185   1.248  0.00  0.00    +0.020 C 
ATOM      9  C   UNL     1     -13.186   1.653   0.778  0.00  0.00    +0.020 C 
ATOM     10  C   UNL     1     -11.884   1.709  -0.041  0.00  0.00    +0.108 C 
ENDROOT
BRANCH   1  15
ATOM     11  C   UNL     1     -10.725  -6.152  -0.134  0.00  0.00    +0.044 C 
ATOM     12  C   UNL     1     -10.295  -4.709  -0.114  0.00  0.00    -0.050 A 
ATOM     13  C   UNL     1      -9.618  -4.206   0.982  0.00  0.00    +0.005 A 
ATOM     14  C   UNL     1      -9.221  -2.883   1.004  0.00  0.00    +0.026 A 
ATOM     15  C   UNL     1      -9.503  -2.058  -0.076  0.00  0.00    +0.052 A 
ATOM     16  C   UNL     1     -10.188  -2.564  -1.173  0.00  0.00    +0.026 A 
ATOM     17  C   UNL     1     -10.577  -3.889  -1.191  0.00  0.00    +0.005 A 
ENDBRANCH   1  15
BRANCH   5  18
ATOM     18  S   UNL     1      -6.360  -1.258  -0.049  0.00  0.00    -0.078 S 
BRANCH  18  19
ATOM     19  C   UNL     1      -5.000  -0.057  -0.026  0.00  0.00    +0.157 C 
BRANCH  19  20
ATOM     20  C   UNL     1      -3.683  -0.789  -0.028  0.00  0.00    +0.173 C 
ATOM     21  O   UNL     1      -3.664  -2.002  -0.042  0.00  0.00    -0.291 OA
BRANCH  20  22
ATOM     22  C   UNL     1      -2.424  -0.035  -0.011  0.00  0.00    +0.019 A 
ATOM     23  C   UNL     1      -2.435   1.366   0.006  0.00  0.00    +0.013 A 
ATOM     24  C   UNL     1      -1.259   2.044   0.017  0.00  0.00    +0.024 A 
ATOM     25  C   UNL     1      -0.017   1.378   0.010  0.00  0.00    +0.037 A 
ATOM     26  C   UNL     1       0.002  -0.004   0.002  0.00  0.00    -0.025 A 
ATOM     27  C   UNL     1      -1.200  -0.703  -0.012  0.00  0.00    +0.016 A 
ATOM     28  C   UNL     1       1.234  -0.850   0.011  0.00  0.00    +0.037 C 
ATOM     29  C   UNL     1       2.382  -0.318   0.812  0.00  0.00    +0.014 C 
ATOM     30  C   UNL     1       3.135   0.792   0.119  0.00  0.00    +0.096 C 
ATOM     31  C   UNL     1       2.366   2.065   0.116  0.00  0.00    +0.217 C 
ATOM     32  O   UNL     1       3.011   3.085   0.229  0.00  0.00    -0.275 OA
ATOM     33  N   UNL     1       1.076   2.204   0.004  0.00  0.00    -0.285 N 
ATOM     34  H   UNL     1       0.945   3.289  -0.122  0.00  0.00    +0.155 HD
ENDBRANCH  20  22
ENDBRANCH  19  20
ENDBRANCH  18  19
ENDBRANCH   5  18
TORSDOF 5
