REMARK  Name = ZINC45990884
REMARK  8 active torsions:
REMARK  status: ('A' for Active; 'I' for Inactive)
REMARK    1  A    between atoms: C_1  and  C_2
REMARK    2  A    between atoms: C_5  and  N_8
REMARK    3  A    between atoms: C_11  and  C_26
REMARK    4  A    between atoms: C_13  and  O_15
REMARK    5  A    between atoms: O_15  and  C_16
REMARK    6  A    between atoms: C_16  and  C_17
REMARK    7  A    between atoms: N_19  and  C_20
REMARK    8  A    between atoms: C_27  and  C_29
REMARK                            x       y       z     vdW  Elec       q    Type
REMARK                         _______ _______ _______ _____ _____    ______ ____
ROOT
ATOM      1  N   UNL     1       0.057  -4.171  -0.021  0.00  0.00    -0.214 N 
ATOM      2  C   UNL     1       0.709  -4.962   0.890  0.00  0.00    +0.167 A 
ATOM      3  C   UNL     1       0.465  -6.296   0.510  0.00  0.00    +0.045 A 
ATOM      4  C   UNL     1       1.014  -7.338   1.268  0.00  0.00    -0.033 A 
ATOM      5  C   UNL     1       1.774  -7.014   2.360  0.00  0.00    +0.071 A 
ATOM      6  C   UNL     1       1.978  -5.673   2.683  0.00  0.00    +0.217 A 
ATOM      7  N   UNL     1       1.453  -4.703   1.958  0.00  0.00    -0.193 NA
ATOM      8  C   UNL     1       0.775  -8.778   0.893  0.00  0.00    +0.045 C 
ATOM      9  C   UNL     1      -0.372  -6.240  -0.684  0.00  0.00    +0.070 A 
ATOM     10  N   UNL     1      -0.591  -4.984  -0.955  0.00  0.00    -0.169 NA
ATOM     11  C   UNL     1      -0.895  -7.421  -1.459  0.00  0.00    +0.068 C 
ENDROOT
BRANCH   1  16
ATOM     12  C   UNL     1      -0.018   1.503   0.010  0.00  0.00    +0.044 C 
ATOM     13  C   UNL     1       0.002  -0.004   0.002  0.00  0.00    -0.050 A 
ATOM     14  C   UNL     1       0.006  -0.687  -1.200  0.00  0.00    +0.005 A 
ATOM     15  C   UNL     1       0.024  -2.068  -1.211  0.00  0.00    +0.028 A 
ATOM     16  C   UNL     1       0.039  -2.771  -0.013  0.00  0.00    +0.068 A 
ATOM     17  C   UNL     1       0.036  -2.081   1.192  0.00  0.00    +0.028 A 
ATOM     18  C   UNL     1       0.023  -0.700   1.197  0.00  0.00    +0.005 A 
ENDBRANCH   1  16
BRANCH   6  19
ATOM     19  O   UNL     1       2.731  -5.359   3.766  0.00  0.00    -0.467 OA
BRANCH  19  20
ATOM     20  C   UNL     1       2.908  -3.970   4.053  0.00  0.00    +0.326 C 
BRANCH  20  21
ATOM     21  C   UNL     1       3.767  -3.816   5.282  0.00  0.00    +0.251 C 
ATOM     22  O   UNL     1       4.186  -4.799   5.856  0.00  0.00    -0.272 OA
ATOM     23  N   UNL     1       4.069  -2.587   5.743  0.00  0.00    -0.310 N 
ATOM     24  H   UNL     1       3.734  -1.800   5.284  0.00  0.00    +0.149 HD
BRANCH  23  25
ATOM     25  C   UNL     1       4.904  -2.437   6.938  0.00  0.00    +0.073 C 
ATOM     26  C   UNL     1       6.380  -2.490   6.538  0.00  0.00    +0.022 C 
ATOM     27  C   UNL     1       7.251  -2.334   7.786  0.00  0.00    +0.002 C 
ATOM     28  C   UNL     1       6.951  -0.990   8.453  0.00  0.00    +0.000 C 
ATOM     29  C   UNL     1       5.475  -0.937   8.852  0.00  0.00    +0.002 C 
ATOM     30  C   UNL     1       4.604  -1.093   7.604  0.00  0.00    +0.022 C 
ENDBRANCH  23  25
ENDBRANCH  20  21
ENDBRANCH  19  20
ENDBRANCH   6  19
TORSDOF 5
