REMARK  Name = ZINC12706106
REMARK  13 active torsions:
REMARK  status: ('A' for Active; 'I' for Inactive)
REMARK    1  A    between atoms: C_1  and  C_2
REMARK    2  A    between atoms: C_5  and  C_8
REMARK    3  A    between atoms: N_11  and  C_13
REMARK    4  A    between atoms: C_13  and  C_14
REMARK    5  A    between atoms: N_16  and  C_17
REMARK    6  A    between atoms: N_16  and  C_24
REMARK    7  A    between atoms: C_24  and  C_26
REMARK    8  A    between atoms: C_24  and  C_30
REMARK    9  A    between atoms: C_26  and  C_27
REMARK   10  A    between atoms: C_27  and  C_28
REMARK   11  A    between atoms: C_27  and  C_29
REMARK   12  A    between atoms: N_32  and  C_33
REMARK   13  A    between atoms: C_33  and  C_34
REMARK                            x       y       z     vdW  Elec       q    Type
REMARK                         _______ _______ _______ _____ _____    ______ ____
ROOT
ATOM      1  C   UNL     1       2.297  -7.234   1.833  0.00  0.00    +0.244 C 
ATOM      2  O   UNL     1       3.285  -7.074   1.149  0.00  0.00    -0.273 OA
ATOM      3  N   UNL     1       2.159  -8.357   2.566  0.00  0.00    -0.255 N 
ENDROOT
BRANCH   3   4
ATOM      4  C   UNL     1       1.018  -8.542   3.356  0.00  0.00    +0.072 A 
ATOM      5  C   UNL     1       0.947  -7.971   4.620  0.00  0.00    +0.026 A 
ATOM      6  C   UNL     1      -0.180  -8.154   5.397  0.00  0.00    +0.002 A 
ATOM      7  C   UNL     1      -1.238  -8.906   4.919  0.00  0.00    +0.003 A 
ATOM      8  C   UNL     1      -1.172  -9.477   3.662  0.00  0.00    +0.040 A 
ATOM      9  C   UNL     1      -0.049  -9.293   2.875  0.00  0.00    +0.145 A 
ATOM     10  F   UNL     1       0.014  -9.846   1.644  0.00  0.00    -0.204 F 
ENDBRANCH   3   4
BRANCH   1  11
ATOM     11  C   UNL     1       1.223  -6.177   1.865  0.00  0.00    +0.264 C 
BRANCH  11  15
ATOM     12  C   UNL     1       2.431  -3.254   0.300  0.00  0.00    +0.205 A 
ATOM     13  N   UNL     1       1.808  -3.866  -0.717  0.00  0.00    -0.108 NA
ATOM     14  N   UNL     1       1.317  -4.967  -0.259  0.00  0.00    -0.045 NA
ATOM     15  N   UNL     1       1.606  -5.065   0.991  0.00  0.00    -0.154 N 
ATOM     16  N   UNL     1       2.290  -4.035   1.353  0.00  0.00    -0.130 NA
BRANCH  12  21
ATOM     17  C   UNL     1       5.201   1.792   0.105  0.00  0.00    +0.044 C 
ATOM     18  C   UNL     1       4.476   0.472   0.156  0.00  0.00    -0.050 A 
ATOM     19  C   UNL     1       3.875  -0.029  -0.985  0.00  0.00    +0.004 A 
ATOM     20  C   UNL     1       3.210  -1.238  -0.943  0.00  0.00    +0.012 A 
ATOM     21  C   UNL     1       3.145  -1.954   0.250  0.00  0.00    +0.023 A 
ATOM     22  C   UNL     1       3.752  -1.445   1.396  0.00  0.00    +0.012 A 
ATOM     23  C   UNL     1       4.419  -0.237   1.342  0.00  0.00    +0.004 A 
ENDBRANCH  12  21
ENDBRANCH  11  15
ENDBRANCH   1  11
BRANCH   3  24
ATOM     24  C   UNL     1       3.203  -9.384   2.535  0.00  0.00    +0.167 C 
BRANCH  24  25
ATOM     25  C   UNL     1       3.652  -9.686   3.942  0.00  0.00    +0.234 C 
ATOM     26  O   UNL     1       2.858  -9.631   4.857  0.00  0.00    -0.274 OA
ATOM     27  N   UNL     1       4.936 -10.017   4.183  0.00  0.00    -0.311 N 
ATOM     28  H   UNL     1       5.572 -10.061   3.451  0.00  0.00    +0.149 HD
BRANCH  27  29
ATOM     29  C   UNL     1       5.373 -10.311   5.550  0.00  0.00    +0.135 C 
BRANCH  29  30
ATOM     30  C   UNL     1       6.864 -10.655   5.547  0.00  0.00    +0.135 C 
ATOM     31  C   UNL     1       7.338 -11.003   6.980  0.00  0.00    +0.035 C 
ATOM     32  C   UNL     1       8.570 -11.898   6.673  0.00  0.00    +0.031 C 
ATOM     33  C   UNL     1       8.134 -12.625   5.383  0.00  0.00    +0.160 C 
ATOM     34  O   UNL     1       7.099 -11.842   4.772  0.00  0.00    -0.375 OA
ENDBRANCH  29  30
ENDBRANCH  27  29
ENDBRANCH  24  25
BRANCH  24  35
ATOM     35  C   UNL     1       2.648 -10.657   1.893  0.00  0.00    +0.035 C 
BRANCH  35  36
ATOM     36  C   UNL     1       2.308 -10.381   0.427  0.00  0.00    -0.015 C 
ATOM     37  C   UNL     1       3.591 -10.066  -0.344  0.00  0.00    +0.007 C 
ATOM     38  C   UNL     1       1.638 -11.615  -0.182  0.00  0.00    +0.007 C 
ENDBRANCH  35  36
ENDBRANCH  24  35
ENDBRANCH   3  24
TORSDOF 10
