REMARK  Name = ZINC61575553
REMARK  3 active torsions:
REMARK  status: ('A' for Active; 'I' for Inactive)
REMARK    1  A    between atoms: C_3  and  N_16
REMARK    2  A    between atoms: C_4  and  N_8
REMARK    3  A    between atoms: N_8  and  C_9
REMARK                            x       y       z     vdW  Elec       q    Type
REMARK                         _______ _______ _______ _____ _____    ______ ____
ROOT
ATOM      1  C   UNL     1      -0.007   1.394   0.060  0.00  0.00    +0.022 A 
ATOM      2  C   UNL     1       1.185   2.062   0.274  0.00  0.00    +0.036 A 
ATOM      3  C   UNL     1       2.383   1.378   0.209  0.00  0.00    +0.147 A 
ATOM      4  C   UNL     1       2.391   0.017  -0.071  0.00  0.00    +0.059 A 
ATOM      5  C   UNL     1       1.193  -0.651  -0.286  0.00  0.00    +0.045 A 
ATOM      6  C   UNL     1      -0.003   0.039  -0.220  0.00  0.00    +0.043 A 
ATOM      7 CL   UNL     1      -1.502  -0.795  -0.488  0.00  0.00    -0.083 Cl
ENDROOT
BRANCH   3   8
ATOM      8  N   UNL     1       3.658   2.094   0.438  0.00  0.00    +0.058 N 
ATOM      9  O   UNL     1       4.558   1.550   1.034  0.00  0.00    -0.126 OA
ATOM     10  O   UNL     1       3.799   3.223   0.029  0.00  0.00    -0.126 OA
ENDBRANCH   3   8
BRANCH   4  11
ATOM     11  N   UNL     1       3.601  -0.677  -0.138  0.00  0.00    -0.338 N 
ATOM     12  H   UNL     1       4.440  -0.196  -0.069  0.00  0.00    +0.146 HD
BRANCH  11  13
ATOM     13  C   UNL     1       3.603  -2.132  -0.310  0.00  0.00    +0.080 C 
ATOM     14  C   UNL     1       4.913  -2.563  -0.961  0.00  0.00    +0.024 C 
ATOM     15  C   UNL     1       4.841  -4.019  -1.413  0.00  0.00    +0.012 C 
ATOM     16  C   UNL     1       4.855  -4.945  -0.193  0.00  0.00    +0.069 C 
ATOM     17  S   UNL     1       3.378  -4.606   0.812  0.00  0.00    -0.159 S 
ATOM     18  C   UNL     1       3.454  -2.806   1.057  0.00  0.00    +0.091 C 
ENDBRANCH  11  13
ENDBRANCH   4  11
TORSDOF 3
