REMARK  Name = ZINC20183362
REMARK  15 active torsions:
REMARK  status: ('A' for Active; 'I' for Inactive)
REMARK    1  A    between atoms: C_1  and  C_2
REMARK    2  A    between atoms: C_2  and  C_3
REMARK    3  A    between atoms: C_3  and  N_4
REMARK    4  A    between atoms: N_4  and  C_5
REMARK    5  A    between atoms: N_4  and  S_8
REMARK    6  A    between atoms: C_5  and  C_6
REMARK    7  A    between atoms: C_6  and  C_7
REMARK    8  A    between atoms: S_8  and  C_11
REMARK    9  A    between atoms: C_17  and  C_21
REMARK   10  A    between atoms: N_19  and  C_20
REMARK   11  A    between atoms: N_22  and  N_23
REMARK   12  A    between atoms: N_23  and  C_24
REMARK   13  A    between atoms: C_24  and  N_26
REMARK   14  A    between atoms: N_26  and  C_27
REMARK   15  A    between atoms: C_30  and  C_34
REMARK                            x       y       z     vdW  Elec       q    Type
REMARK                         _______ _______ _______ _____ _____    ______ ____
ROOT
ATOM      1  C   UNL     1      -5.802  -0.351   1.477  0.00  0.00    +0.106 A 
ATOM      2  C   UNL     1      -7.153  -0.656   1.397  0.00  0.00    +0.030 A 
ATOM      3  C   UNL     1      -8.080   0.326   1.126  0.00  0.00    +0.028 A 
ATOM      4  C   UNL     1      -7.659   1.636   0.918  0.00  0.00    +0.050 A 
ATOM      5  C   UNL     1      -6.289   1.938   0.997  0.00  0.00    +0.010 A 
ATOM      6  C   UNL     1      -5.368   0.931   1.280  0.00  0.00    +0.039 A 
ATOM      7  C   UNL     1      -6.176   3.384   0.737  0.00  0.00    +0.020 A 
ATOM      8  C   UNL     1      -7.439   3.839   0.517  0.00  0.00    +0.096 A 
ATOM      9  N   UNL     1      -8.324   2.807   0.623  0.00  0.00    -0.349 N 
ATOM     10  C   UNL     1      -9.774   2.926   0.449  0.00  0.00    +0.149 C 
ENDROOT
BRANCH   1  11
ATOM     11  S   UNL     1      -4.637  -1.623   1.835  0.00  0.00    +0.061 S 
ATOM     12  O   UNL     1      -5.187  -2.832   1.327  0.00  0.00    -0.153 OA
ATOM     13  O   UNL     1      -3.365  -1.136   1.430  0.00  0.00    -0.153 OA
BRANCH  11  14
ATOM     14  N   UNL     1      -4.580  -1.785   3.482  0.00  0.00    -0.177 NA
BRANCH  14  15
ATOM     15  C   UNL     1      -5.402  -2.798   4.148  0.00  0.00    +0.109 C 
BRANCH  15  17
ATOM     16  C   UNL     1      -5.434  -5.125   5.056  0.00  0.00    +0.005 C 
ATOM     17  C   UNL     1      -4.575  -4.067   4.360  0.00  0.00    +0.014 C 
ENDBRANCH  15  17
ENDBRANCH  14  15
BRANCH  14  18
ATOM     18  C   UNL     1      -3.706  -0.915   4.273  0.00  0.00    +0.109 C 
BRANCH  18  19
ATOM     19  C   UNL     1      -4.520   0.255   4.829  0.00  0.00    +0.014 C 
ATOM     20  C   UNL     1      -3.607   1.164   5.656  0.00  0.00    +0.005 C 
ENDBRANCH  18  19
ENDBRANCH  14  18
ENDBRANCH  11  14
ENDBRANCH   1  11
BRANCH   7  21
ATOM     21  C   UNL     1      -4.937   4.179   0.713  0.00  0.00    +0.140 C 
ATOM     22  N   UNL     1      -4.988   5.464   0.892  0.00  0.00    -0.188 NA
BRANCH  22  23
ATOM     23  N   UNL     1      -6.184   6.068   1.302  0.00  0.00    -0.218 N 
ATOM     24  H   UNL     1      -7.051   5.446   1.569  0.00  0.00    +0.176 HD
BRANCH  23  25
ATOM     25  C   UNL     1      -6.271   7.412   1.369  0.00  0.00    +0.154 C 
ATOM     26  S   UNL     1      -7.686   8.147   1.993  0.00  0.00    -0.017 S 
BRANCH  25  27
ATOM     27  N   UNL     1      -5.246   8.176   0.946  0.00  0.00    -0.294 N 
ATOM     28  H   UNL     1      -4.354   7.706   0.506  0.00  0.00    +0.154 HD
BRANCH  27  29
ATOM     29  C   UNL     1      -5.315   9.569   1.065  0.00  0.00    +0.051 A 
ATOM     30  C   UNL     1      -5.840  10.143   2.214  0.00  0.00    +0.025 A 
ATOM     31  C   UNL     1      -5.902  11.518   2.331  0.00  0.00    +0.005 A 
ATOM     32  C   UNL     1      -5.442  12.323   1.305  0.00  0.00    -0.049 A 
ATOM     33  C   UNL     1      -4.919  11.755   0.158  0.00  0.00    +0.025 A 
ATOM     34  C   UNL     1      -4.854  10.380   0.035  0.00  0.00    +0.062 A 
ATOM     35 CL   UNL     1      -4.196   9.666  -1.405  0.00  0.00    -0.082 Cl
ATOM     36  C   UNL     1      -5.511  13.823   1.437  0.00  0.00    +0.044 C 
ENDBRANCH  27  29
ENDBRANCH  25  27
ENDBRANCH  23  25
ENDBRANCH  22  23
ENDBRANCH   7  21
TORSDOF 11
