REMARK  Name = ZINC40085010
REMARK  20 active torsions:
REMARK  status: ('A' for Active; 'I' for Inactive)
REMARK    1  A    between atoms: C_1  and  C_2
REMARK    2  A    between atoms: C_2  and  C_3
REMARK    3  A    between atoms: C_3  and  C_4
REMARK    4  A    between atoms: C_4  and  C_5
REMARK    5  A    between atoms: C_5  and  C_6
REMARK    6  A    between atoms: C_6  and  O_7
REMARK    7  A    between atoms: O_7  and  C_8
REMARK    8  A    between atoms: C_11  and  C_14
REMARK    9  A    between atoms: C_16  and  C_26
REMARK   10  A    between atoms: N_20  and  C_21
REMARK   11  A    between atoms: C_21  and  C_22
REMARK   12  A    between atoms: C_22  and  C_23
REMARK   13  A    between atoms: C_23  and  C_24
REMARK   14  A    between atoms: C_26  and  C_28
REMARK   15  A    between atoms: C_31  and  O_35
REMARK   16  A    between atoms: C_33  and  C_34
REMARK   17  A    between atoms: O_35  and  C_36
REMARK   18  A    between atoms: C_36  and  C_37
REMARK   19  A    between atoms: C_37  and  C_38
REMARK   20  A    between atoms: C_37  and  C_39
REMARK                            x       y       z     vdW  Elec       q    Type
REMARK                         _______ _______ _______ _____ _____    ______ ____
ROOT
ATOM      1  C   UNL     1      -4.970  -9.924   0.070  0.00  0.00    +0.145 C 
ATOM      2  C   UNL     1      -5.092 -10.646   1.391  0.00  0.00    +0.076 C 
ATOM      3  C   UNL     1      -6.234 -11.371   1.336  0.00  0.00    +0.249 C 
ATOM      4  C   UNL     1      -6.880 -11.161   0.024  0.00  0.00    +0.288 C 
ATOM      5  O   UNL     1      -7.922 -11.674  -0.330  0.00  0.00    -0.266 OA
ATOM      6  N   UNL     1      -6.143 -10.315  -0.721  0.00  0.00    -0.284 N 
ATOM      7  O   UNL     1      -6.707 -12.163   2.326  0.00  0.00    -0.282 OA
ENDROOT
BRANCH   1  11
ATOM      8  C   UNL     1      -4.962  -5.697   0.697  0.00  0.00    +0.121 A 
ATOM      9  C   UNL     1      -3.801  -6.343   0.296  0.00  0.00    +0.046 A 
ATOM     10  C   UNL     1      -3.806  -7.709   0.095  0.00  0.00    +0.009 A 
ATOM     11  C   UNL     1      -4.967  -8.434   0.291  0.00  0.00    -0.022 A 
ATOM     12  C   UNL     1      -6.125  -7.793   0.690  0.00  0.00    +0.009 A 
ATOM     13  C   UNL     1      -6.124  -6.428   0.899  0.00  0.00    +0.046 A 
BRANCH   8  14
ATOM     14  O   UNL     1      -4.959  -4.353   0.897  0.00  0.00    -0.492 OA
BRANCH  14  15
ATOM     15  C   UNL     1      -3.727  -3.666   0.670  0.00  0.00    +0.229 C 
BRANCH  15  16
ATOM     16  C   UNL     1      -3.918  -2.173   0.944  0.00  0.00    +0.041 C 
BRANCH  16  17
ATOM     17  C   UNL     1      -2.599  -1.437   0.701  0.00  0.00    +0.003 C 
BRANCH  17  18
ATOM     18  C   UNL     1      -2.790   0.056   0.974  0.00  0.00    -0.000 C 
BRANCH  18  20
ATOM     19  C   UNL     1      -1.661   2.285   1.005  0.00  0.00    +0.004 C 
ATOM     20  C   UNL     1      -1.471   0.792   0.731  0.00  0.00    -0.003 C 
ENDBRANCH  18  20
ENDBRANCH  17  18
ENDBRANCH  16  17
ENDBRANCH  15  16
ENDBRANCH  14  15
ENDBRANCH   8  14
ENDBRANCH   1  11
BRANCH   2  21
ATOM     21  C   UNL     1      -4.155 -10.574   2.517  0.00  0.00    +0.195 C 
ATOM     22  O   UNL     1      -4.413 -11.144   3.561  0.00  0.00    -0.287 OA
BRANCH  21  23
ATOM     23  C   UNL     1      -2.899  -9.811   2.384  0.00  0.00    +0.025 A 
ATOM     24  C   UNL     1      -2.749  -8.586   3.041  0.00  0.00    +0.015 A 
ATOM     25  C   UNL     1      -1.576  -7.877   2.914  0.00  0.00    +0.046 A 
ATOM     26  C   UNL     1      -0.540  -8.378   2.133  0.00  0.00    +0.121 A 
ATOM     27  C   UNL     1      -0.685  -9.595   1.478  0.00  0.00    +0.049 A 
ATOM     28  C   UNL     1      -1.853 -10.313   1.604  0.00  0.00    -0.036 A 
ATOM     29  C   UNL     1      -2.006 -11.636   0.898  0.00  0.00    +0.044 C 
BRANCH  26  30
ATOM     30  O   UNL     1       0.615  -7.677   2.011  0.00  0.00    -0.492 OA
BRANCH  30  31
ATOM     31  C   UNL     1       0.696  -6.434   2.711  0.00  0.00    +0.232 C 
BRANCH  31  32
ATOM     32  C   UNL     1       2.062  -5.792   2.454  0.00  0.00    +0.020 C 
ATOM     33  C   UNL     1       2.103  -4.406   3.100  0.00  0.00    +0.010 C 
ATOM     34  C   UNL     1       3.159  -6.670   3.059  0.00  0.00    +0.010 C 
ENDBRANCH  31  32
ENDBRANCH  30  31
ENDBRANCH  26  30
ENDBRANCH  21  23
ENDBRANCH   2  21
BRANCH   6  35
ATOM     35  C   UNL     1      -6.456  -9.864  -2.079  0.00  0.00    +0.109 C 
BRANCH  35  36
ATOM     36  C   UNL     1      -5.829 -10.823  -3.093  0.00  0.00    +0.019 C 
BRANCH  36  37
ATOM     37  C   UNL     1      -6.156 -10.352  -4.511  0.00  0.00    -0.002 C 
ATOM     38  C   UNL     1      -5.529 -11.312  -5.525  0.00  0.00    +0.004 C 
ENDBRANCH  36  37
ENDBRANCH  35  36
ENDBRANCH   6  35
TORSDOF 15
