REMARK  Name = ZINC29763898
REMARK  4 active torsions:
REMARK  status: ('A' for Active; 'I' for Inactive)
REMARK    1  A    between atoms: C_1  and  N_2
REMARK    2  A    between atoms: N_2  and  C_3
REMARK    3  A    between atoms: N_2  and  C_4
REMARK    4  A    between atoms: N_8  and  C_11
REMARK                            x       y       z     vdW  Elec       q    Type
REMARK                         _______ _______ _______ _____ _____    ______ ____
ROOT
ATOM      1  C   UNL     1       1.601  -1.839   0.231  0.00  0.00    +0.078 C 
ATOM      2  C   UNL     1       1.284  -0.528   0.208  0.00  0.00    +0.030 C 
ATOM      3  C   UNL     1       1.905   0.560   1.060  0.00  0.00    +0.061 C 
ATOM      4  C   UNL     1       1.168   1.838   0.619  0.00  0.00    +0.119 C 
ATOM      5  N   UNL     1       0.219   1.401  -0.410  0.00  0.00    -0.267 N 
ATOM      6  C   UNL     1       0.312   0.082  -0.611  0.00  0.00    +0.248 C 
ATOM      7  O   UNL     1      -0.370  -0.528  -1.416  0.00  0.00    -0.270 OA
ENDROOT
BRANCH   5   8
ATOM      8  C   UNL     1      -0.659   2.249  -1.092  0.00  0.00    +0.039 A 
ATOM      9  C   UNL     1      -0.768   3.583  -0.720  0.00  0.00    +0.043 A 
ATOM     10  C   UNL     1      -1.632   4.420  -1.400  0.00  0.00    +0.044 A 
ATOM     11  C   UNL     1      -2.397   3.928  -2.442  0.00  0.00    +0.040 A 
ATOM     12  C   UNL     1      -2.295   2.599  -2.812  0.00  0.00    +0.044 A 
ATOM     13  C   UNL     1      -1.428   1.758  -2.139  0.00  0.00    +0.043 A 
ATOM     14 CL   UNL     1      -3.257   1.985  -4.120  0.00  0.00    -0.083 Cl
ATOM     15 CL   UNL     1      -1.763   6.089  -0.940  0.00  0.00    -0.083 Cl
ENDBRANCH   5   8
BRANCH   1  17
ATOM     16  C   UNL     1      -0.739  -2.372  -0.275  0.00  0.00    +0.128 C 
ATOM     17  N   UNL     1       0.654  -2.777  -0.071  0.00  0.00    -0.341 N 
ATOM     18  C   UNL     1       1.032  -4.187  -0.192  0.00  0.00    +0.128 C 
ENDBRANCH   1  17
TORSDOF 2
