REMARK  Name = ZINC64076468
REMARK  12 active torsions:
REMARK  status: ('A' for Active; 'I' for Inactive)
REMARK    1  A    between atoms: C_1  and  N_2
REMARK    2  A    between atoms: N_2  and  C_3
REMARK    3  A    between atoms: N_2  and  C_4
REMARK    4  A    between atoms: C_7  and  C_10
REMARK    5  A    between atoms: C_10  and  C_12
REMARK    6  A    between atoms: C_10  and  C_28
REMARK    7  A    between atoms: C_12  and  N_13
REMARK    8  A    between atoms: C_14  and  C_16
REMARK    9  A    between atoms: C_16  and  N_17
REMARK   10  A    between atoms: N_17  and  C_18
REMARK   11  A    between atoms: N_17  and  S_19
REMARK   12  A    between atoms: S_19  and  C_22
REMARK                            x       y       z     vdW  Elec       q    Type
REMARK                         _______ _______ _______ _____ _____    ______ ____
ROOT
ATOM      1  C   UNL     1      -0.006  -2.813  -4.924  0.00  0.00    +0.064 C 
ENDROOT
BRANCH   1   2
ATOM      2  C   UNL     1      -1.246  -2.457  -5.704  0.00  0.00    -0.033 C 
ATOM      3  C   UNL     1      -2.219  -3.301  -6.114  0.00  0.00    -0.000 A 
ATOM      4  C   UNL     1      -2.408  -4.749  -5.965  0.00  0.00    +0.010 A 
ATOM      5  C   UNL     1      -3.509  -5.326  -6.497  0.00  0.00    +0.001 A 
ATOM      6  C   UNL     1      -4.472  -4.578  -7.188  0.00  0.00    +0.002 A 
ATOM      7  C   UNL     1      -4.368  -3.244  -7.367  0.00  0.00    +0.026 A 
ATOM      8  C   UNL     1      -3.251  -2.533  -6.848  0.00  0.00    +0.043 A 
ATOM      9  N   UNL     1      -2.928  -1.264  -6.889  0.00  0.00    -0.380 N 
ATOM     10  C   UNL     1      -1.656  -1.081  -6.180  0.00  0.00    +0.145 C 
ATOM     11  H   UNL     1      -3.446  -0.561  -7.313  0.00  0.00    +0.160 HD
ENDBRANCH   1   2
BRANCH   1  15
ATOM     12  C   UNL     1       0.000  -0.696  -1.211  0.00  0.00    +0.029 A 
ATOM     13  C   UNL     1       0.013  -2.085  -1.221  0.00  0.00    +0.023 A 
ATOM     14  C   UNL     1       0.010  -2.766  -2.422  0.00  0.00    +0.006 A 
ATOM     15  C   UNL     1      -0.005  -2.066  -3.615  0.00  0.00    -0.039 A 
ATOM     16  C   UNL     1      -0.018  -0.684  -3.609  0.00  0.00    +0.006 A 
ATOM     17  C   UNL     1      -0.021   0.004  -2.411  0.00  0.00    +0.023 A 
BRANCH  12  19
ATOM     18  C   UNL     1      -0.018   1.461   0.010  0.00  0.00    +0.129 C 
ATOM     19  N   UNL     1       0.002  -0.004   0.002  0.00  0.00    -0.336 N 
ATOM     20  C   UNL     1       0.024  -0.743   1.267  0.00  0.00    +0.129 C 
ENDBRANCH  12  19
ENDBRANCH   1  15
BRANCH   1  21
ATOM     21  C   UNL     1       1.234  -2.427  -5.733  0.00  0.00    +0.116 C 
BRANCH  21  22
ATOM     22  N   UNL     1       1.295  -3.239  -6.951  0.00  0.00    -0.313 N 
ATOM     23  C   UNL     1       2.309  -3.071  -7.822  0.00  0.00    +0.229 C 
ATOM     24  O   UNL     1       3.171  -2.248  -7.599  0.00  0.00    -0.274 OA
ATOM     25  H   UNL     1       0.605  -3.897  -7.130  0.00  0.00    +0.149 HD
BRANCH  23  26
ATOM     26  C   UNL     1       2.372  -3.907  -9.075  0.00  0.00    +0.204 C 
BRANCH  26  27
ATOM     27  N   UNL     1       3.559  -3.537  -9.849  0.00  0.00    -0.171 NA
ATOM     28  C   UNL     1       4.854  -4.151  -9.543  0.00  0.00    +0.132 C 
BRANCH  27  29
ATOM     29  S   UNL     1       3.438  -2.426 -11.071  0.00  0.00    +0.061 S 
ATOM     30  O   UNL     1       4.519  -2.678 -11.958  0.00  0.00    -0.153 OA
ATOM     31  O   UNL     1       2.083  -2.438 -11.498  0.00  0.00    -0.153 OA
BRANCH  29  32
ATOM     32  C   UNL     1       3.728  -0.839 -10.362  0.00  0.00    +0.105 A 
ATOM     33  C   UNL     1       2.671  -0.104  -9.858  0.00  0.00    +0.028 A 
ATOM     34  C   UNL     1       2.898   1.141  -9.302  0.00  0.00    +0.002 A 
ATOM     35  C   UNL     1       4.183   1.651  -9.249  0.00  0.00    +0.000 A 
ATOM     36  C   UNL     1       5.239   0.915  -9.753  0.00  0.00    +0.002 A 
ATOM     37  C   UNL     1       5.012  -0.332 -10.305  0.00  0.00    +0.028 A 
ENDBRANCH  29  32
ENDBRANCH  27  29
ENDBRANCH  26  27
ENDBRANCH  23  26
ENDBRANCH  21  22
ENDBRANCH   1  21
TORSDOF 9
