REMARK  Name = ZINC14952149
REMARK  10 active torsions:
REMARK  status: ('A' for Active; 'I' for Inactive)
REMARK    1  A    between atoms: C_1  and  C_2
REMARK    2  A    between atoms: C_4  and  C_30
REMARK    3  A    between atoms: C_5  and  C_13
REMARK    4  A    between atoms: C_6  and  N_8
REMARK    5  A    between atoms: C_13  and  N_55
REMARK    6  A    between atoms: C_14  and  C_16
REMARK    7  A    between atoms: C_14  and  C_17
REMARK    8  A    between atoms: C_14  and  N_55
REMARK    9  A    between atoms: N_20  and  C_23
REMARK   10  A    between atoms: C_21  and  C_22
REMARK                            x       y       z     vdW  Elec       q    Type
REMARK                         _______ _______ _______ _____ _____    ______ ____
ROOT
ATOM      1  N   UNL     1       3.865   2.139   1.020  0.00  0.00    +0.386 N 
ATOM      2  H   UNL     1       3.849   2.874   0.303  0.00  0.00    -0.085 HD
ATOM      3  H   UNL     1       3.388   2.474   1.865  0.00  0.00    -0.085 HD
ENDROOT
BRANCH   1   4
ATOM      4  C   UNL     1       3.166   0.945   0.507  0.00  0.00    -0.040 C 
ATOM      5  C   UNL     1       3.422   0.809  -0.995  0.00  0.00    -0.009 C 
BRANCH   4   6
ATOM      6  C   UNL     1       1.687   1.094   0.753  0.00  0.00    -0.021 A 
ATOM      7  C   UNL     1       0.995   2.301   0.900  0.00  0.00    +0.137 A 
ATOM      8  N   UNL     1      -0.269   2.027   1.099  0.00  0.00    -0.174 NA
ATOM      9  N   UNL     1      -0.424   0.635   1.079  0.00  0.00    -0.237 N 
ATOM     10  C   UNL     1       0.794   0.085   0.871  0.00  0.00    +0.043 A 
ATOM     11  C   UNL     1       1.100  -1.388   0.779  0.00  0.00    +0.066 C 
BRANCH   9  12
ATOM     12  C   UNL     1      -1.627  -0.064   1.248  0.00  0.00    +0.068 A 
ATOM     13  C   UNL     1      -2.788   0.392   0.638  0.00  0.00    +0.028 A 
ATOM     14  C   UNL     1      -3.972  -0.301   0.802  0.00  0.00    +0.005 A 
ATOM     15  C   UNL     1      -4.005  -1.443   1.581  0.00  0.00    +0.038 A 
ATOM     16  C   UNL     1      -2.850  -1.898   2.195  0.00  0.00    +0.125 A 
ATOM     17  C   UNL     1      -1.661  -1.210   2.030  0.00  0.00    +0.066 A 
ATOM     18  F   UNL     1      -2.885  -3.014   2.956  0.00  0.00    -0.205 F 
ENDBRANCH   9  12
ENDBRANCH   4   6
ENDBRANCH   1   4
BRANCH   1  19
ATOM     19  C   UNL     1       5.265   1.810   1.349  0.00  0.00    -0.044 C 
BRANCH  19  24
ATOM     20  C   UNL     1       7.901   6.552   3.351  0.00  0.00    +0.044 C 
ATOM     21  C   UNL     1       7.215   5.317   2.826  0.00  0.00    -0.048 A 
ATOM     22  C   UNL     1       6.462   4.530   3.678  0.00  0.00    +0.007 A 
ATOM     23  C   UNL     1       5.832   3.396   3.200  0.00  0.00    -0.047 A 
ATOM     24  C   UNL     1       5.953   3.046   1.869  0.00  0.00    -0.036 A 
ATOM     25  C   UNL     1       6.713   3.831   1.013  0.00  0.00    +0.067 A 
ATOM     26  C   UNL     1       7.341   4.972   1.495  0.00  0.00    +0.031 A 
ATOM     27  C   UNL     1       5.012   2.541   4.132  0.00  0.00    +0.044 C 
BRANCH  25  28
ATOM     28  N   UNL     1       6.843   3.475  -0.337  0.00  0.00    -0.240 N 
ATOM     29  C   UNL     1       8.001   3.394  -1.031  0.00  0.00    +0.114 A 
ATOM     30  C   UNL     1       7.697   3.020  -2.295  0.00  0.00    +0.041 A 
ATOM     31  C   UNL     1       6.309   2.866  -2.378  0.00  0.00    +0.135 A 
ATOM     32  N   UNL     1       5.797   3.133  -1.203  0.00  0.00    -0.175 NA
ENDBRANCH  25  28
ENDBRANCH  19  24
ENDBRANCH   1  19
TORSDOF 6
