REMARK  Name = ZINC13573825
REMARK  8 active torsions:
REMARK  status: ('A' for Active; 'I' for Inactive)
REMARK    1  A    between atoms: C_3  and  N_28
REMARK    2  A    between atoms: C_6  and  C_7
REMARK    3  A    between atoms: N_9  and  C_25
REMARK    4  A    between atoms: N_13  and  N_14
REMARK    5  A    between atoms: N_14  and  C_15
REMARK    6  A    between atoms: C_18  and  S_21
REMARK    7  A    between atoms: S_21  and  N_24
REMARK    8  A    between atoms: C_25  and  N_27
REMARK                            x       y       z     vdW  Elec       q    Type
REMARK                         _______ _______ _______ _____ _____    ______ ____
ROOT
ATOM      1  C   UNL     1      -1.269  -0.765   0.011  0.00  0.00    +0.122 C 
ATOM      2  N   UNL     1      -2.473  -0.260   0.019  0.00  0.00    -0.168 NA
ATOM      3  N   UNL     1      -3.443  -1.262   0.026  0.00  0.00    -0.134 N 
ATOM      4  C   UNL     1      -2.861  -2.478   0.021  0.00  0.00    +0.294 C 
ATOM      5  O   UNL     1      -3.423  -3.558   0.024  0.00  0.00    -0.266 OA
ATOM      6  C   UNL     1      -1.409  -2.237   0.004  0.00  0.00    +0.173 C 
ATOM      7  N   UNL     1      -0.444  -3.136  -0.010  0.00  0.00    -0.175 NA
ENDROOT
BRANCH   1  13
ATOM      8  C   UNL     1      -0.017   1.390   0.010  0.00  0.00    +0.012 A 
ATOM      9  C   UNL     1       1.170   2.094   0.002  0.00  0.00    +0.033 A 
ATOM     10  C   UNL     1       2.378   1.418  -0.013  0.00  0.00    +0.126 A 
ATOM     11  C   UNL     1       2.403   0.035  -0.022  0.00  0.00    +0.033 A 
ATOM     12  C   UNL     1       1.222  -0.679  -0.014  0.00  0.00    +0.012 A 
ATOM     13  C   UNL     1       0.002  -0.004   0.002  0.00  0.00    +0.004 A 
BRANCH  10  14
ATOM     14  N   UNL     1       3.648   2.179  -0.022  0.00  0.00    +0.056 N 
ATOM     15  O   UNL     1       3.628   3.388  -0.015  0.00  0.00    -0.126 OA
ATOM     16  O   UNL     1       4.704   1.591  -0.036  0.00  0.00    -0.126 OA
ENDBRANCH  10  14
ENDBRANCH   1  13
BRANCH   7  17
ATOM     17  N   UNL     1      -0.735  -4.393  -0.014  0.00  0.00    -0.237 N 
ATOM     18  H   UNL     1      -1.662  -4.677  -0.006  0.00  0.00    +0.174 HD
BRANCH  17  19
ATOM     19  C   UNL     1       0.285  -5.345  -0.029  0.00  0.00    +0.048 A 
ATOM     20  C   UNL     1       1.615  -4.940  -0.035  0.00  0.00    +0.026 A 
ATOM     21  C   UNL     1       2.622  -5.885  -0.050  0.00  0.00    +0.030 A 
ATOM     22  C   UNL     1       2.309  -7.232  -0.060  0.00  0.00    +0.105 A 
ATOM     23  C   UNL     1       0.987  -7.638  -0.054  0.00  0.00    +0.030 A 
ATOM     24  C   UNL     1      -0.025  -6.700  -0.034  0.00  0.00    +0.026 A 
BRANCH  22  25
ATOM     25  S   UNL     1       3.598  -8.434  -0.080  0.00  0.00    +0.056 S 
ATOM     26  O   UNL     1       3.041  -9.617  -0.637  0.00  0.00    -0.153 OA
ATOM     27  O   UNL     1       4.740  -7.795  -0.633  0.00  0.00    -0.153 OA
BRANCH  25  28
ATOM     28  N   UNL     1       3.967  -8.782   1.497  0.00  0.00    -0.204 NA
ATOM     29  H   UNL     1       4.295  -9.663   1.735  0.00  0.00    +0.144 HD
ATOM     30  H   UNL     1       3.855  -8.105   2.182  0.00  0.00    +0.144 HD
ENDBRANCH  25  28
ENDBRANCH  22  25
ENDBRANCH  17  19
ENDBRANCH   7  17
BRANCH   3  31
ATOM     31  C   UNL     1      -4.773  -1.046   0.036  0.00  0.00    +0.158 C 
ATOM     32  S   UNL     1      -5.856  -2.372   0.043  0.00  0.00    -0.017 S 
BRANCH  31  33
ATOM     33  N   UNL     1      -5.251   0.214   0.040  0.00  0.00    -0.339 N 
ATOM     34  H   UNL     1      -4.638   0.966   0.036  0.00  0.00    +0.144 HD
ATOM     35  H   UNL     1      -6.208   0.370   0.047  0.00  0.00    +0.144 HD
ENDBRANCH  31  33
ENDBRANCH   3  31
TORSDOF 8
