REMARK  Name = ZINC05923871
REMARK  8 active torsions:
REMARK  status: ('A' for Active; 'I' for Inactive)
REMARK    1  A    between atoms: C_1  and  C_2
REMARK    2  A    between atoms: C_2  and  C_3
REMARK    3  A    between atoms: C_3  and  S_4
REMARK    4  A    between atoms: S_4  and  C_5
REMARK    5  A    between atoms: C_16  and  C_18
REMARK    6  A    between atoms: C_21  and  O_26
REMARK    7  A    between atoms: C_22  and  O_24
REMARK    8  A    between atoms: O_24  and  C_25
REMARK                            x       y       z     vdW  Elec       q    Type
REMARK                         _______ _______ _______ _____ _____    ______ ____
ROOT
ATOM      1  C   UNL     1      -0.996   6.098   1.240  0.00  0.00    +0.171 A 
ATOM      2  N   UNL     1      -2.222   5.506   1.281  0.00  0.00    -0.302 N 
ATOM      3  H   UNL     1      -3.097   6.077   1.626  0.00  0.00    +0.171 HD
ATOM      4  C   UNL     1      -2.368   4.220   0.898  0.00  0.00    +0.258 A 
ATOM      5  O   UNL     1      -3.463   3.682   0.929  0.00  0.00    -0.267 OA
ATOM      6  C   UNL     1      -1.239   3.515   0.464  0.00  0.00    +0.069 A 
ATOM      7  C   UNL     1      -0.015   4.161   0.446  0.00  0.00    +0.135 A 
ATOM      8  N   UNL     1       0.070   5.438   0.834  0.00  0.00    -0.208 NA
ATOM      9  N   UNL     1       1.111   3.480   0.026  0.00  0.00    -0.302 N 
ATOM     10  C   UNL     1       1.131   2.112   0.003  0.00  0.00    +0.017 C 
ATOM     11  C   UNL     1      -0.017   1.402   0.010  0.00  0.00    +0.024 C 
ATOM     12  C   UNL     1      -1.360   2.087   0.020  0.00  0.00    +0.093 C 
ATOM     13  C   UNL     1       0.002  -0.004   0.002  0.00  0.00    +0.162 C 
ATOM     14  O   UNL     1      -1.049  -0.614  -0.004  0.00  0.00    -0.292 OA
ATOM     15  C   UNL     1       1.297  -0.768   0.001  0.00  0.00    +0.080 C 
ATOM     16  C   UNL     1       2.374   0.075   0.693  0.00  0.00    +0.014 C 
ATOM     17  C   UNL     1       2.472   1.420  -0.029  0.00  0.00    +0.051 C 
ATOM     18  H   UNL     1       2.004   4.038  -0.293  0.00  0.00    +0.153 HD
ENDROOT
BRANCH  12  19
ATOM     19  C   UNL     1      -1.945   2.048  -1.369  0.00  0.00    -0.032 A 
ATOM     20  C   UNL     1      -1.271   2.645  -2.418  0.00  0.00    +0.008 A 
ATOM     21  C   UNL     1      -1.800   2.607  -3.694  0.00  0.00    +0.049 A 
ATOM     22  C   UNL     1      -3.014   1.979  -3.922  0.00  0.00    +0.158 A 
ATOM     23  C   UNL     1      -3.695   1.382  -2.865  0.00  0.00    +0.162 A 
ATOM     24  C   UNL     1      -3.156   1.419  -1.589  0.00  0.00    +0.054 A 
BRANCH  23  25
ATOM     25  O   UNL     1      -4.887   0.765  -3.084  0.00  0.00    -0.491 OA
ATOM     26  C   UNL     1      -5.529   0.175  -1.952  0.00  0.00    +0.277 C 
ENDBRANCH  23  25
BRANCH  22  27
ATOM     27  O   UNL     1      -3.539   1.945  -5.176  0.00  0.00    -0.503 OA
ATOM     28  H   UNL     1      -4.503   1.446  -5.356  0.00  0.00    +0.292 HD
ENDBRANCH  22  27
ENDBRANCH  12  19
BRANCH   1  29
ATOM     29  S   UNL     1      -0.831   7.779   1.741  0.00  0.00    -0.088 S 
BRANCH  29  30
ATOM     30  C   UNL     1       0.946   8.011   1.485  0.00  0.00    +0.077 C 
BRANCH  30  32
ATOM     31  C   UNL     1       2.835   9.637   1.649  0.00  0.00    +0.004 C 
ATOM     32  C   UNL     1       1.333   9.441   1.865  0.00  0.00    +0.008 C 
ENDBRANCH  30  32
ENDBRANCH  29  30
ENDBRANCH   1  29
TORSDOF 6
