REMARK  Name = ZINC39487602
REMARK  12 active torsions:
REMARK  status: ('A' for Active; 'I' for Inactive)
REMARK    1  A    between atoms: C_1  and  C_2
REMARK    2  A    between atoms: C_2  and  C_3
REMARK    3  A    between atoms: C_2  and  C_4
REMARK    4  A    between atoms: C_4  and  C_5
REMARK    5  A    between atoms: C_5  and  C_38
REMARK    6  A    between atoms: N_7  and  C_31
REMARK    7  A    between atoms: N_10  and  C_11
REMARK    8  A    between atoms: C_11  and  C_12
REMARK    9  A    between atoms: C_12  and  C_25
REMARK   10  A    between atoms: N_15  and  C_18
REMARK   11  A    between atoms: C_18  and  C_19
REMARK   12  A    between atoms: C_36  and  O_37
REMARK                            x       y       z     vdW  Elec       q    Type
REMARK                         _______ _______ _______ _____ _____    ______ ____
ROOT
ATOM      1  C   UNL     1       2.013  -0.649  -4.309  0.00  0.00    +0.117 C 
ENDROOT
BRANCH   1   7
ATOM      2  C   UNL     1      -0.478  -0.143  -4.896  0.00  0.00    +0.052 C 
ATOM      3  C   UNL     1      -1.544   0.690  -4.159  0.00  0.00    +0.141 C 
ATOM      4  N   UNL     1      -0.840   1.187  -2.967  0.00  0.00    -0.250 N 
ATOM      5  C   UNL     1       0.421   0.737  -2.981  0.00  0.00    +0.310 C 
ATOM      6  O   UNL     1       1.228   0.998  -2.110  0.00  0.00    -0.252 OA
ATOM      7  N   UNL     1       0.713  -0.028  -4.042  0.00  0.00    -0.278 N 
ATOM      8  C   UNL     1      -0.202   0.439  -6.284  0.00  0.00    +0.033 C 
BRANCH   4   9
ATOM      9  C   UNL     1      -1.400   2.003  -1.974  0.00  0.00    +0.079 A 
ATOM     10  C   UNL     1      -1.921   1.436  -0.821  0.00  0.00    +0.027 A 
ATOM     11  C   UNL     1      -2.473   2.242   0.157  0.00  0.00    +0.002 A 
ATOM     12  C   UNL     1      -2.507   3.614  -0.012  0.00  0.00    +0.004 A 
ATOM     13  C   UNL     1      -1.990   4.186  -1.159  0.00  0.00    +0.047 A 
ATOM     14  C   UNL     1      -1.430   3.385  -2.141  0.00  0.00    +0.138 A 
BRANCH  14  15
ATOM     15  O   UNL     1      -0.916   3.947  -3.268  0.00  0.00    -0.505 OA
ATOM     16  H   UNL     1      -1.572   4.115  -3.958  0.00  0.00    +0.292 HD
ENDBRANCH  14  15
ENDBRANCH   4   9
BRANCH   2  17
ATOM     17  C   UNL     1      -0.920  -1.604  -5.007  0.00  0.00    +0.030 C 
BRANCH  17  19
ATOM     18  C   UNL     1      -1.939  -1.649  -2.726  0.00  0.00    +0.007 C 
ATOM     19  C   UNL     1      -0.863  -2.260  -3.626  0.00  0.00    -0.015 C 
ATOM     20  C   UNL     1      -1.107  -3.764  -3.764  0.00  0.00    +0.007 C 
ENDBRANCH  17  19
ENDBRANCH   2  17
ENDBRANCH   1   7
BRANCH   1  21
ATOM     21  C   UNL     1       3.009   0.423  -4.756  0.00  0.00    -0.014 C 
ATOM     22  C   UNL     1       4.390  -0.210  -4.949  0.00  0.00    -0.010 C 
ATOM     23  C   UNL     1       4.887  -0.755  -3.608  0.00  0.00    -0.078 C 
ATOM     24  N   UNL     1       4.980   0.340  -2.635  0.00  0.00    +0.382 N 
ATOM     25  C   UNL     1       3.647   0.904  -2.391  0.00  0.00    -0.078 C 
ATOM     26  C   UNL     1       3.103   1.513  -3.684  0.00  0.00    -0.010 C 
ATOM     27  H   UNL     1       5.588   1.059  -2.997  0.00  0.00    -0.081 HD
BRANCH  21  28
ATOM     28  C   UNL     1       2.538   1.041  -6.074  0.00  0.00    -0.003 C 
ATOM     29  C   UNL     1       2.660   0.005  -7.194  0.00  0.00    +0.004 C 
ATOM     30  C   UNL     1       2.189   0.623  -8.513  0.00  0.00    +0.000 C 
ATOM     31  C   UNL     1       3.057   1.838  -8.845  0.00  0.00    +0.000 C 
ATOM     32  C   UNL     1       2.935   2.873  -7.725  0.00  0.00    +0.000 C 
ATOM     33  C   UNL     1       3.406   2.256  -6.407  0.00  0.00    +0.004 C 
ENDBRANCH  21  28
BRANCH  24  34
ATOM     34  C   UNL     1       5.531  -0.174  -1.374  0.00  0.00    -0.043 C 
BRANCH  34  35
ATOM     35  C   UNL     1       5.773   0.973  -0.427  0.00  0.00    -0.064 A 
ATOM     36  C   UNL     1       6.991   1.627  -0.430  0.00  0.00    +0.002 A 
ATOM     37  C   UNL     1       7.213   2.679   0.438  0.00  0.00    +0.000 A 
ATOM     38  C   UNL     1       6.217   3.078   1.310  0.00  0.00    +0.000 A 
ATOM     39  C   UNL     1       4.998   2.424   1.313  0.00  0.00    +0.000 A 
ATOM     40  C   UNL     1       4.775   1.375   0.441  0.00  0.00    +0.002 A 
ENDBRANCH  34  35
ENDBRANCH  24  34
ENDBRANCH   1  21
TORSDOF 9
