REMARK  Name = ZINC12504625
REMARK  11 active torsions:
REMARK  status: ('A' for Active; 'I' for Inactive)
REMARK    1  A    between atoms: C_1  and  C_2
REMARK    2  A    between atoms: C_5  and  C_31
REMARK    3  A    between atoms: C_6  and  S_8
REMARK    4  A    between atoms: S_8  and  O_11
REMARK    5  A    between atoms: O_11  and  C_12
REMARK    6  A    between atoms: C_15  and  C_20
REMARK    7  A    between atoms: C_17  and  O_18
REMARK    8  A    between atoms: O_18  and  C_19
REMARK    9  A    between atoms: N_24  and  C_28
REMARK   10  A    between atoms: C_28  and  C_29
REMARK   11  A    between atoms: C_29  and  N_30
REMARK                            x       y       z     vdW  Elec       q    Type
REMARK                         _______ _______ _______ _____ _____    ______ ____
ROOT
ATOM      1  C   UNL     1       0.089  -1.155   4.392  0.00  0.00    +0.198 A 
ATOM      2  C   UNL     1      -0.043   0.076   3.764  0.00  0.00    +0.053 A 
ATOM      3  C   UNL     1      -0.845   1.052   4.314  0.00  0.00    +0.012 A 
ATOM      4  C   UNL     1      -1.528   0.803   5.511  0.00  0.00    -0.020 A 
ATOM      5  C   UNL     1      -1.395  -0.439   6.143  0.00  0.00    +0.057 A 
ATOM      6  C   UNL     1      -0.593  -1.413   5.581  0.00  0.00    +0.165 A 
ENDROOT
BRANCH   4   7
ATOM      7  C   UNL     1      -2.383   1.842   6.100  0.00  0.00    +0.028 C 
ATOM      8  C   UNL     1      -2.858   2.850   5.326  0.00  0.00    +0.080 C 
ATOM      9  C   UNL     1      -3.604   4.064   5.715  0.00  0.00    +0.260 C 
ATOM     10  O   UNL     1      -3.889   4.295   6.875  0.00  0.00    -0.269 OA
ATOM     11  N   UNL     1      -3.946   4.887   4.738  0.00  0.00    -0.230 N 
ATOM     12  C   UNL     1      -3.627   4.628   3.454  0.00  0.00    +0.286 C 
ATOM     13  O   UNL     1      -3.875   5.291   2.465  0.00  0.00    -0.262 OA
ATOM     14  S   UNL     1      -2.746   3.078   3.557  0.00  0.00    -0.026 S 
BRANCH  11  15
ATOM     15  C   UNL     1      -4.688   6.109   5.059  0.00  0.00    +0.098 C 
BRANCH  15  16
ATOM     16  C   UNL     1      -3.702   7.246   5.335  0.00  0.00    -0.067 C 
BRANCH  16  17
ATOM     17  N   UNL     1      -4.446   8.471   5.657  0.00  0.00    +0.379 N 
ATOM     18  H   UNL     1      -5.037   8.720   4.878  0.00  0.00    -0.090 HD
ATOM     19  H   UNL     1      -5.016   8.314   6.474  0.00  0.00    -0.090 HD
ATOM     20  H   UNL     1      -3.796   9.221   5.839  0.00  0.00    -0.090 HD
ENDBRANCH  16  17
ENDBRANCH  15  16
ENDBRANCH  11  15
ENDBRANCH   4   7
BRANCH   6  21
ATOM     21  O   UNL     1      -0.465  -2.622   6.189  0.00  0.00    -0.491 OA
ATOM     22  C   UNL     1      -1.192  -2.818   7.404  0.00  0.00    +0.277 C 
ENDBRANCH   6  21
BRANCH   1  23
ATOM     23  O   UNL     1       0.881  -2.113   3.844  0.00  0.00    -0.339 OA
BRANCH  23  24
ATOM     24  S   UNL     1       0.188  -2.958   2.785  0.00  0.00    +0.151 S 
ATOM     25  O   UNL     1      -0.359  -2.052   1.837  0.00  0.00    -0.131 OA
ATOM     26  O   UNL     1      -0.610  -3.907   3.480  0.00  0.00    -0.131 OA
BRANCH  24  32
ATOM     27  C   UNL     1       5.185  -3.768   1.485  0.00  0.00    +0.044 C 
ATOM     28  C   UNL     1       3.744  -4.195   1.381  0.00  0.00    -0.049 A 
ATOM     29  C   UNL     1       3.403  -5.303   0.628  0.00  0.00    +0.004 A 
ATOM     30  C   UNL     1       2.081  -5.694   0.533  0.00  0.00    +0.005 A 
ATOM     31  C   UNL     1       1.099  -4.978   1.192  0.00  0.00    -0.022 A 
ATOM     32  C   UNL     1       1.439  -3.871   1.946  0.00  0.00    +0.131 A 
ATOM     33  C   UNL     1       2.762  -3.482   2.044  0.00  0.00    +0.034 A 
ATOM     34  C   UNL     1      -0.343  -5.404   1.087  0.00  0.00    +0.046 C 
ENDBRANCH  24  32
ENDBRANCH  23  24
ENDBRANCH   1  23
TORSDOF 8
