REMARK  Name = ZINC36503613
REMARK  13 active torsions:
REMARK  status: ('A' for Active; 'I' for Inactive)
REMARK    1  A    between atoms: C_1  and  C_2
REMARK    2  A    between atoms: C_2  and  C_3
REMARK    3  A    between atoms: C_2  and  C_4
REMARK    4  A    between atoms: C_2  and  N_5
REMARK    5  A    between atoms: C_6  and  C_8
REMARK    6  A    between atoms: C_8  and  C_10
REMARK    7  A    between atoms: C_8  and  N_19
REMARK    8  A    between atoms: C_13  and  N_16
REMARK    9  A    between atoms: N_19  and  C_20
REMARK   10  A    between atoms: C_20  and  C_21
REMARK   11  A    between atoms: C_26  and  C_28
REMARK   12  A    between atoms: C_28  and  C_29
REMARK   13  A    between atoms: C_28  and  C_35
REMARK                            x       y       z     vdW  Elec       q    Type
REMARK                         _______ _______ _______ _____ _____    ______ ____
ROOT
ATOM      1  N   UNL     1       3.095  -0.253  -4.521  0.00  0.00    -0.278 N 
ATOM      2  C   UNL     1       2.963   1.077  -4.349  0.00  0.00    +0.229 C 
ATOM      3  O   UNL     1       3.946   1.786  -4.321  0.00  0.00    -0.275 OA
ENDROOT
BRANCH   1   4
ATOM      4  C   UNL     1       1.923  -1.125  -4.418  0.00  0.00    +0.193 C 
BRANCH   4   5
ATOM      5  C   UNL     1       1.614  -1.715  -5.770  0.00  0.00    -0.018 A 
ATOM      6  C   UNL     1       2.389  -2.746  -6.267  0.00  0.00    +0.008 A 
ATOM      7  C   UNL     1       2.106  -3.287  -7.508  0.00  0.00    +0.033 A 
ATOM      8  C   UNL     1       1.049  -2.796  -8.251  0.00  0.00    +0.126 A 
ATOM      9  C   UNL     1       0.274  -1.766  -7.753  0.00  0.00    +0.033 A 
ATOM     10  C   UNL     1       0.554  -1.228  -6.511  0.00  0.00    +0.008 A 
BRANCH   8  11
ATOM     11  N   UNL     1       0.747  -3.375  -9.579  0.00  0.00    +0.056 N 
ATOM     12  O   UNL     1       1.425  -4.276 -10.015  0.00  0.00    -0.126 OA
ATOM     13  O   UNL     1      -0.178  -2.946 -10.229  0.00  0.00    -0.126 OA
ENDBRANCH   8  11
ENDBRANCH   4   5
BRANCH   4  15
ATOM     14  N   UNL     1       1.265  -3.165  -3.182  0.00  0.00    -0.309 N 
ATOM     15  C   UNL     1       2.207  -2.235  -3.439  0.00  0.00    +0.238 C 
ATOM     16  O   UNL     1       3.283  -2.292  -2.882  0.00  0.00    -0.273 OA
ATOM     17  H   UNL     1       0.405  -3.119  -3.627  0.00  0.00    +0.149 HD
BRANCH  14  19
ATOM     18  C   UNL     1       1.854  -3.645  -0.858  0.00  0.00    +0.031 C 
ATOM     19  C   UNL     1       1.542  -4.244  -2.230  0.00  0.00    +0.026 C 
ATOM     20  C   UNL     1       2.742  -5.058  -2.717  0.00  0.00    +0.031 C 
ATOM     21  C   UNL     1       0.317  -5.155  -2.123  0.00  0.00    +0.031 C 
ENDBRANCH  14  19
ENDBRANCH   4  15
ENDBRANCH   1   4
BRANCH   1  22
ATOM     22  C   UNL     1       4.411  -0.827  -4.812  0.00  0.00    +0.183 C 
BRANCH  22  23
ATOM     23  C   UNL     1       4.686  -0.730  -6.290  0.00  0.00    +0.122 A 
ATOM     24  C   UNL     1       5.364   0.258  -6.902  0.00  0.00    +0.046 A 
ATOM     25  C   UNL     1       5.383  -0.051  -8.281  0.00  0.00    +0.041 A 
ATOM     26  C   UNL     1       4.715  -1.209  -8.430  0.00  0.00    +0.195 A 
ATOM     27  O   UNL     1       4.301  -1.619  -7.220  0.00  0.00    -0.466 OA
ENDBRANCH  22  23
ENDBRANCH   1  22
BRANCH   2  28
ATOM     28  C   UNL     1       1.592   1.684  -4.191  0.00  0.00    +0.135 C 
BRANCH  28  29
ATOM     29  C   UNL     1       1.180   1.623  -2.742  0.00  0.00    -0.031 A 
ATOM     30  C   UNL     1       2.075   1.985  -1.753  0.00  0.00    +0.005 A 
ATOM     31  C   UNL     1       1.697   1.930  -0.425  0.00  0.00    +0.000 A 
ATOM     32  C   UNL     1       0.423   1.512  -0.086  0.00  0.00    +0.000 A 
ATOM     33  C   UNL     1      -0.472   1.151  -1.075  0.00  0.00    +0.000 A 
ATOM     34  C   UNL     1      -0.095   1.211  -2.403  0.00  0.00    +0.005 A 
ENDBRANCH  28  29
BRANCH  28  35
ATOM     35  C   UNL     1       1.623   3.121  -4.644  0.00  0.00    -0.031 A 
ATOM     36  C   UNL     1       2.451   4.028  -4.010  0.00  0.00    +0.005 A 
ATOM     37  C   UNL     1       2.480   5.346  -4.426  0.00  0.00    +0.000 A 
ATOM     38  C   UNL     1       1.681   5.756  -5.477  0.00  0.00    +0.000 A 
ATOM     39  C   UNL     1       0.854   4.849  -6.112  0.00  0.00    +0.000 A 
ATOM     40  C   UNL     1       0.829   3.530  -5.698  0.00  0.00    +0.005 A 
ENDBRANCH  28  35
ENDBRANCH   2  28
TORSDOF 10
