REMARK  Name = ZINC09043157
REMARK  14 active torsions:
REMARK  status: ('A' for Active; 'I' for Inactive)
REMARK    1  A    between atoms: C_1  and  C_2
REMARK    2  A    between atoms: C_2  and  C_3
REMARK    3  A    between atoms: C_2  and  C_4
REMARK    4  A    between atoms: C_7  and  C_10
REMARK    5  A    between atoms: C_19  and  S_21
REMARK    6  A    between atoms: S_21  and  C_22
REMARK    7  A    between atoms: C_22  and  C_23
REMARK    8  A    between atoms: N_25  and  C_26
REMARK    9  A    between atoms: C_26  and  C_27
REMARK   10  A    between atoms: C_27  and  C_28
REMARK   11  A    between atoms: C_31  and  O_36
REMARK   12  A    between atoms: C_32  and  O_34
REMARK   13  A    between atoms: O_34  and  C_35
REMARK   14  A    between atoms: O_36  and  C_37
REMARK                            x       y       z     vdW  Elec       q    Type
REMARK                         _______ _______ _______ _____ _____    ______ ____
ROOT
ATOM      1  C   UNL     1      -0.426  -6.454  -0.029  0.00  0.00    +0.004 A 
ATOM      2  C   UNL     1       0.906  -6.693  -0.043  0.00  0.00    +0.056 A 
ATOM      3  S   UNL     1       1.620  -5.060  -0.041  0.00  0.00    -0.076 S 
ATOM      4  C   UNL     1       0.127  -4.101  -0.021  0.00  0.00    +0.117 A 
ATOM      5  C   UNL     1      -0.891  -5.071  -0.017  0.00  0.00    +0.080 A 
ATOM      6  C   UNL     1      -2.229  -4.569  -0.001  0.00  0.00    +0.261 A 
ATOM      7  O   UNL     1      -3.176  -5.337   0.003  0.00  0.00    -0.267 OA
ATOM      8  N   UNL     1      -2.431  -3.239   0.008  0.00  0.00    -0.301 N 
ATOM      9  H   UNL     1      -3.337  -2.894   0.019  0.00  0.00    +0.171 HD
ATOM     10  C   UNL     1      -1.383  -2.364   0.003  0.00  0.00    +0.170 A 
ATOM     11  N   UNL     1      -0.139  -2.800  -0.017  0.00  0.00    -0.216 NA
ENDROOT
BRANCH   1  15
ATOM     12  C   UNL     1      -3.203  -9.673  -0.018  0.00  0.00    -0.045 A 
ATOM     13  C   UNL     1      -2.179  -9.649  -0.948  0.00  0.00    +0.004 A 
ATOM     14  C   UNL     1      -1.274  -8.607  -0.956  0.00  0.00    +0.009 A 
ATOM     15  C   UNL     1      -1.394  -7.576  -0.025  0.00  0.00    -0.017 A 
ATOM     16  C   UNL     1      -2.425  -7.608   0.912  0.00  0.00    +0.009 A 
ATOM     17  C   UNL     1      -3.327  -8.652   0.908  0.00  0.00    +0.004 A 
BRANCH  12  19
ATOM     18  C   UNL     1      -4.133 -11.530   1.336  0.00  0.00    +0.012 C 
ATOM     19  C   UNL     1      -4.188 -10.813  -0.015  0.00  0.00    +0.013 C 
ATOM     20  C   UNL     1      -5.599 -10.270  -0.247  0.00  0.00    +0.012 C 
ENDBRANCH  12  19
ENDBRANCH   1  15
BRANCH  10  21
ATOM     21  S   UNL     1      -1.696  -0.631   0.015  0.00  0.00    -0.078 S 
BRANCH  21  22
ATOM     22  C   UNL     1       0.002  -0.004   0.002  0.00  0.00    +0.173 C 
BRANCH  22  23
ATOM     23  C   UNL     1      -0.018   1.503   0.010  0.00  0.00    +0.223 C 
ATOM     24  O   UNL     1      -1.077   2.095   0.018  0.00  0.00    -0.275 OA
ATOM     25  N   UNL     1       1.139   2.192   0.003  0.00  0.00    -0.314 N 
ATOM     26  H   UNL     1       1.986   1.719  -0.008  0.00  0.00    +0.149 HD
BRANCH  25  27
ATOM     27  C   UNL     1       1.120   3.657   0.011  0.00  0.00    +0.109 C 
BRANCH  27  28
ATOM     28  C   UNL     1       2.555   4.187   0.000  0.00  0.00    +0.054 C 
BRANCH  28  29
ATOM     29  C   UNL     1       2.535   5.694   0.008  0.00  0.00    -0.042 A 
ATOM     30  C   UNL     1       2.519   6.390  -1.186  0.00  0.00    +0.007 A 
ATOM     31  C   UNL     1       2.495   7.772  -1.184  0.00  0.00    +0.049 A 
ATOM     32  C   UNL     1       2.497   8.463   0.018  0.00  0.00    +0.161 A 
ATOM     33  C   UNL     1       2.518   7.762   1.220  0.00  0.00    +0.162 A 
ATOM     34  C   UNL     1       2.537   6.377   1.210  0.00  0.00    +0.053 A 
BRANCH  33  35
ATOM     35  O   UNL     1       2.519   8.436   2.401  0.00  0.00    -0.491 OA
ATOM     36  C   UNL     1       2.541   7.651   3.595  0.00  0.00    +0.277 C 
ENDBRANCH  33  35
BRANCH  32  37
ATOM     37  O   UNL     1       2.478   9.823   0.021  0.00  0.00    -0.491 OA
ATOM     38  C   UNL     1       2.457  10.475  -1.250  0.00  0.00    +0.277 C 
ENDBRANCH  32  37
ENDBRANCH  28  29
ENDBRANCH  27  28
ENDBRANCH  25  27
ENDBRANCH  22  23
ENDBRANCH  21  22
ENDBRANCH  10  21
TORSDOF 10
