REMARK  Name = ZINC12659528
REMARK  12 active torsions:
REMARK  status: ('A' for Active; 'I' for Inactive)
REMARK    1  A    between atoms: C_1  and  C_2
REMARK    2  A    between atoms: C_2  and  O_3
REMARK    3  A    between atoms: O_3  and  C_4
REMARK    4  A    between atoms: C_6  and  C_27
REMARK    5  A    between atoms: N_9  and  C_10
REMARK    6  A    between atoms: C_13  and  N_16
REMARK    7  A    between atoms: C_17  and  C_19
REMARK    8  A    between atoms: C_22  and  C_26
REMARK    9  A    between atoms: C_24  and  C_25
REMARK   10  A    between atoms: C_30  and  O_35
REMARK   11  A    between atoms: C_31  and  O_33
REMARK   12  A    between atoms: O_33  and  C_34
REMARK                            x       y       z     vdW  Elec       q    Type
REMARK                         _______ _______ _______ _____ _____    ______ ____
ROOT
ATOM      1  C   UNL     1      -1.789   2.933   2.795  0.00  0.00    +0.132 A 
ATOM      2  C   UNL     1      -3.121   3.223   2.850  0.00  0.00    +0.055 A 
ATOM      3  C   UNL     1      -3.827   4.067   3.726  0.00  0.00    -0.012 A 
ATOM      4  C   UNL     1      -3.402   4.858   4.774  0.00  0.00    +0.037 A 
ATOM      5  C   UNL     1      -2.095   5.043   5.279  0.00  0.00    +0.076 A 
ATOM      6  N   UNL     1      -1.967   5.870   6.308  0.00  0.00    -0.247 NA
ATOM      7  C   UNL     1      -0.860   4.410   4.781  0.00  0.00    +0.052 A 
ATOM      8  C   UNL     1      -0.726   3.458   3.659  0.00  0.00    +0.067 A 
ATOM      9  C   UNL     1       0.595   3.161   3.584  0.00  0.00    +0.113 A 
ATOM     10  O   UNL     1       1.238   3.841   4.545  0.00  0.00    -0.464 OA
ATOM     11  C   UNL     1       0.388   4.588   5.266  0.00  0.00    +0.112 A 
ATOM     12  C   UNL     1       0.763   5.478   6.423  0.00  0.00    +0.087 C 
ATOM     13  C   UNL     1       1.232   2.224   2.590  0.00  0.00    +0.087 C 
ENDROOT
BRANCH   6  14
ATOM     14  C   UNL     1      -3.046   6.574   6.756  0.00  0.00    +0.065 A 
ATOM     15  C   UNL     1      -3.378   7.799   6.168  0.00  0.00    +0.029 A 
ATOM     16  C   UNL     1      -4.473   8.503   6.620  0.00  0.00    +0.025 A 
ATOM     17  C   UNL     1      -5.240   8.005   7.667  0.00  0.00    +0.034 A 
ATOM     18  C   UNL     1      -4.910   6.791   8.258  0.00  0.00    +0.025 A 
ATOM     19  C   UNL     1      -3.821   6.076   7.809  0.00  0.00    +0.029 A 
BRANCH  17  20
ATOM     20  N   UNL     1      -6.348   8.727   8.126  0.00  0.00    -0.286 N 
ATOM     21  C   UNL     1      -6.308  10.074   8.160  0.00  0.00    +0.214 C 
ATOM     22  O   UNL     1      -5.345  10.663   7.715  0.00  0.00    -0.276 OA
ATOM     23  C   UNL     1      -7.458  10.848   8.750  0.00  0.00    +0.109 C 
ATOM     24  H   UNL     1      -7.144   8.259   8.421  0.00  0.00    +0.155 HD
ENDBRANCH  17  20
ENDBRANCH   6  14
BRANCH   3  25
ATOM     25  C   UNL     1      -5.285   4.121   3.477  0.00  0.00    -0.014 A 
ATOM     26  C   UNL     1      -5.943   3.014   2.938  0.00  0.00    +0.012 A 
ATOM     27  C   UNL     1      -7.302   3.062   2.711  0.00  0.00    +0.050 A 
ATOM     28  C   UNL     1      -8.017   4.214   3.007  0.00  0.00    +0.158 A 
ATOM     29  C   UNL     1      -7.365   5.325   3.539  0.00  0.00    +0.162 A 
ATOM     30  C   UNL     1      -6.003   5.280   3.774  0.00  0.00    +0.058 A 
BRANCH  29  31
ATOM     31  O   UNL     1      -8.068   6.453   3.828  0.00  0.00    -0.491 OA
ATOM     32  C   UNL     1      -7.321   7.585   4.276  0.00  0.00    +0.277 C 
ENDBRANCH  29  31
BRANCH  28  33
ATOM     33  O   UNL     1      -9.355   4.260   2.776  0.00  0.00    -0.503 OA
ATOM     34  H   UNL     1      -9.592   4.576   1.894  0.00  0.00    +0.292 HD
ENDBRANCH  28  33
ENDBRANCH   3  25
BRANCH   1  35
ATOM     35  O   UNL     1      -1.403   2.066   1.830  0.00  0.00    -0.491 OA
BRANCH  35  37
ATOM     36  C   UNL     1      -0.932  -0.140   0.963  0.00  0.00    +0.048 C 
ATOM     37  C   UNL     1      -1.391   0.678   2.171  0.00  0.00    +0.226 C 
ENDBRANCH  35  37
ENDBRANCH   1  35
TORSDOF 7
