REMARK  Name = ZINC04618357
REMARK  5 active torsions:
REMARK  status: ('A' for Active; 'I' for Inactive)
REMARK    1  A    between atoms: C_1  and  C_2
REMARK    2  A    between atoms: C_4  and  C_17
REMARK    3  A    between atoms: C_5  and  C_16
REMARK    4  A    between atoms: N_6  and  C_7
REMARK    5  A    between atoms: N_21  and  C_25
REMARK                            x       y       z     vdW  Elec       q    Type
REMARK                         _______ _______ _______ _____ _____    ______ ____
ROOT
ATOM      1  C   UNL     1      -2.078  -1.058  -2.111  0.00  0.00    +0.064 C 
ATOM      2  C   UNL     1      -2.804  -0.504  -0.913  0.00  0.00    +0.022 A 
ATOM      3  C   UNL     1      -4.047  -0.843  -0.530  0.00  0.00    +0.031 A 
ATOM      4  C   UNL     1      -4.344  -0.058   0.674  0.00  0.00    -0.002 A 
ATOM      5  C   UNL     1      -3.218   0.704   0.920  0.00  0.00    +0.028 A 
ATOM      6  N   UNL     1      -2.302   0.421  -0.041  0.00  0.00    -0.317 N 
ATOM      7  C   UNL     1      -3.037   1.678   2.055  0.00  0.00    +0.064 C 
ENDROOT
BRANCH   6   8
ATOM      8  C   UNL     1      -1.028   0.999  -0.129  0.00  0.00    +0.050 A 
ATOM      9  C   UNL     1      -0.897   2.359  -0.373  0.00  0.00    +0.030 A 
ATOM     10  C   UNL     1       0.358   2.929  -0.466  0.00  0.00    +0.051 A 
ATOM     11  C   UNL     1       1.490   2.146  -0.311  0.00  0.00    +0.166 A 
ATOM     12  C   UNL     1       1.363   0.781  -0.061  0.00  0.00    +0.168 A 
ATOM     13  C   UNL     1       0.104   0.211   0.032  0.00  0.00    +0.075 A 
ATOM     14  O   UNL     1       2.611   0.239   0.050  0.00  0.00    -0.453 OA
ATOM     15  C   UNL     1       3.495   1.353   0.273  0.00  0.00    +0.466 C 
ATOM     16  O   UNL     1       2.819   2.458  -0.356  0.00  0.00    -0.453 OA
ENDBRANCH   6   8
BRANCH   4  17
ATOM     17  C   UNL     1      -5.584  -0.077   1.457  0.00  0.00    +0.038 C 
ATOM     18  C   UNL     1      -6.778  -0.256   0.834  0.00  0.00    +0.099 C 
ATOM     19  C   UNL     1      -7.034  -0.284  -0.610  0.00  0.00    +0.273 C 
ATOM     20  O   UNL     1      -6.213  -0.152  -1.500  0.00  0.00    -0.268 OA
ATOM     21  N   UNL     1      -8.358  -0.490  -0.755  0.00  0.00    -0.189 N 
ATOM     22  C   UNL     1      -8.940  -0.581   0.451  0.00  0.00    +0.318 C 
ATOM     23  O   UNL     1     -10.130  -0.760   0.630  0.00  0.00    -0.251 OA
ATOM     24  N   UNL     1      -8.033  -0.446   1.434  0.00  0.00    -0.264 N 
ATOM     25  H   UNL     1      -8.213  -0.475   2.387  0.00  0.00    +0.157 HD
BRANCH  21  26
ATOM     26  C   UNL     1      -9.029  -0.588  -1.982  0.00  0.00    +0.047 A 
ATOM     27  C   UNL     1     -10.402  -0.795  -2.010  0.00  0.00    +0.024 A 
ATOM     28  C   UNL     1     -11.060  -0.891  -3.220  0.00  0.00    +0.003 A 
ATOM     29  C   UNL     1     -10.354  -0.781  -4.404  0.00  0.00    +0.020 A 
ATOM     30  C   UNL     1      -8.986  -0.575  -4.380  0.00  0.00    +0.043 A 
ATOM     31  C   UNL     1      -8.323  -0.473  -3.171  0.00  0.00    +0.044 A 
ATOM     32 CL   UNL     1      -8.104  -0.436  -5.868  0.00  0.00    -0.083 Cl
ENDBRANCH  21  26
ENDBRANCH   4  17
TORSDOF 3
