REMARK  Name = ZINC06074973
REMARK  13 active torsions:
REMARK  status: ('A' for Active; 'I' for Inactive)
REMARK    1  A    between atoms: C_1  and  C_2
REMARK    2  A    between atoms: C_2  and  C_3
REMARK    3  A    between atoms: C_2  and  C_4
REMARK    4  A    between atoms: C_2  and  N_5
REMARK    5  A    between atoms: C_6  and  C_8
REMARK    6  A    between atoms: C_8  and  C_10
REMARK    7  A    between atoms: C_8  and  N_17
REMARK    8  A    between atoms: C_13  and  O_16
REMARK    9  A    between atoms: N_17  and  C_18
REMARK   10  A    between atoms: C_18  and  C_19
REMARK   11  A    between atoms: C_25  and  C_27
REMARK   12  A    between atoms: C_27  and  N_28
REMARK   13  A    between atoms: C_30  and  C_33
REMARK                            x       y       z     vdW  Elec       q    Type
REMARK                         _______ _______ _______ _____ _____    ______ ____
ROOT
ATOM      1  N   UNL     1       3.341   1.881   0.495  0.00  0.00    -0.282 N 
ATOM      2  C   UNL     1       4.616   1.750   0.077  0.00  0.00    +0.240 C 
ATOM      3  O   UNL     1       4.870   1.062  -0.888  0.00  0.00    -0.273 OA
ENDROOT
BRANCH   1   4
ATOM      4  C   UNL     1       2.262   1.192  -0.217  0.00  0.00    +0.192 C 
BRANCH   4   5
ATOM      5  C   UNL     1       2.468  -0.298  -0.120  0.00  0.00    -0.018 A 
ATOM      6  C   UNL     1       3.331  -0.815   0.829  0.00  0.00    +0.009 A 
ATOM      7  C   UNL     1       3.517  -2.181   0.923  0.00  0.00    +0.046 A 
ATOM      8  C   UNL     1       2.846  -3.033   0.058  0.00  0.00    +0.117 A 
ATOM      9  C   UNL     1       1.985  -2.511  -0.897  0.00  0.00    +0.046 A 
ATOM     10  C   UNL     1       1.799  -1.145  -0.984  0.00  0.00    +0.009 A 
BRANCH   8  11
ATOM     11  O   UNL     1       3.032  -4.376   0.145  0.00  0.00    -0.507 OA
ATOM     12  H   UNL     1       3.755  -4.709  -0.403  0.00  0.00    +0.292 HD
ENDBRANCH   8  11
ENDBRANCH   4   5
BRANCH   4  14
ATOM     13  N   UNL     1      -0.088   1.945  -0.380  0.00  0.00    -0.309 N 
ATOM     14  C   UNL     1       0.938   1.557   0.403  0.00  0.00    +0.238 C 
ATOM     15  O   UNL     1       0.796   1.502   1.606  0.00  0.00    -0.273 OA
ATOM     16  H   UNL     1       0.026   1.989  -1.343  0.00  0.00    +0.149 HD
BRANCH  13  18
ATOM     17  C   UNL     1      -1.174   3.477   1.186  0.00  0.00    +0.031 C 
ATOM     18  C   UNL     1      -1.374   2.306   0.223  0.00  0.00    +0.026 C 
ATOM     19  C   UNL     1      -2.357   2.712  -0.877  0.00  0.00    +0.031 C 
ATOM     20  C   UNL     1      -1.933   1.105   0.988  0.00  0.00    +0.031 C 
ENDBRANCH  13  18
ENDBRANCH   4  14
ENDBRANCH   1   4
BRANCH   1  21
ATOM     21  C   UNL     1       3.035   2.713   1.661  0.00  0.00    +0.140 C 
BRANCH  21  22
ATOM     22  C   UNL     1       3.345   1.933   2.940  0.00  0.00    +0.136 C 
ATOM     23  C   UNL     1       2.871   2.732   4.170  0.00  0.00    +0.035 C 
ATOM     24  C   UNL     1       1.866   1.786   4.872  0.00  0.00    +0.031 C 
ATOM     25  C   UNL     1       2.275   0.402   4.309  0.00  0.00    +0.160 C 
ATOM     26  O   UNL     1       2.629   0.687   2.938  0.00  0.00    -0.375 OA
ENDBRANCH  21  22
ENDBRANCH   1  21
BRANCH   2  27
ATOM     27  C   UNL     1       5.726   2.459   0.809  0.00  0.00    +0.264 C 
BRANCH  27  28
ATOM     28  N   UNL     1       7.006   2.159   0.165  0.00  0.00    -0.154 N 
ATOM     29  N   UNL     1       7.538   2.841  -0.791  0.00  0.00    -0.130 NA
ATOM     30  C   UNL     1       8.682   2.268  -1.107  0.00  0.00    +0.205 A 
ATOM     31  N   UNL     1       8.818   1.208  -0.298  0.00  0.00    -0.108 NA
ATOM     32  N   UNL     1       7.779   1.175   0.467  0.00  0.00    -0.045 NA
BRANCH  30  33
ATOM     33  C   UNL     1       9.636   2.711  -2.154  0.00  0.00    +0.023 A 
ATOM     34  C   UNL     1       9.354   3.838  -2.924  0.00  0.00    +0.014 A 
ATOM     35  C   UNL     1      10.246   4.249  -3.894  0.00  0.00    +0.039 A 
ATOM     36  C   UNL     1      11.415   3.538  -4.109  0.00  0.00    +0.123 A 
ATOM     37  C   UNL     1      11.697   2.414  -3.349  0.00  0.00    +0.039 A 
ATOM     38  C   UNL     1      10.813   1.999  -2.374  0.00  0.00    +0.014 A 
ATOM     39  F   UNL     1      12.284   3.941  -5.062  0.00  0.00    -0.205 F 
ENDBRANCH  30  33
ENDBRANCH  27  28
ENDBRANCH   2  27
TORSDOF 10
