REMARK  Name = ZINC07299660
REMARK  10 active torsions:
REMARK  status: ('A' for Active; 'I' for Inactive)
REMARK    1  A    between atoms: C_1  and  C_2
REMARK    2  A    between atoms: C_7  and  C_8
REMARK    3  A    between atoms: C_11  and  C_12
REMARK    4  A    between atoms: C_12  and  C_13
REMARK    5  A    between atoms: C_13  and  O_15
REMARK    6  A    between atoms: O_15  and  C_16
REMARK    7  A    between atoms: C_16  and  C_18
REMARK    8  A    between atoms: C_16  and  C_19
REMARK    9  A    between atoms: N_21  and  C_22
REMARK   10  A    between atoms: C_23  and  C_27
REMARK                            x       y       z     vdW  Elec       q    Type
REMARK                         _______ _______ _______ _____ _____    ______ ____
ROOT
ATOM      1  C   UNL     1       0.002  -0.004   0.002  0.00  0.00    +0.259 C 
ATOM      2  C   UNL     1      -0.019   1.526   0.010  0.00  0.00    +0.062 C 
ENDROOT
BRANCH   1   3
ATOM      3  C   UNL     1       0.707  -0.490  -1.238  0.00  0.00    +0.258 C 
ATOM      4  O   UNL     1       0.095  -1.114  -2.078  0.00  0.00    -0.271 OA
ATOM      5  N   UNL     1       2.018  -0.231  -1.413  0.00  0.00    -0.276 N 
ATOM      6  H   UNL     1       2.508   0.269  -0.741  0.00  0.00    +0.155 HD
BRANCH   5   7
ATOM      7  C   UNL     1       2.667  -0.678  -2.554  0.00  0.00    +0.084 A 
ATOM      8  C   UNL     1       3.999  -0.507  -2.912  0.00  0.00    +0.065 A 
ATOM      9  C   UNL     1       4.413  -1.087  -4.168  0.00  0.00    +0.022 A 
ATOM     10  C   UNL     1       3.475  -1.731  -4.885  0.00  0.00    +0.048 A 
ATOM     11  S   UNL     1       2.013  -1.578  -3.880  0.00  0.00    -0.081 S 
BRANCH   8  12
ATOM     12  C   UNL     1       4.939   0.223  -2.056  0.00  0.00    +0.244 C 
ATOM     13  O   UNL     1       4.559   0.697  -1.001  0.00  0.00    -0.270 OA
ATOM     14  N   UNL     1       6.223   0.369  -2.436  0.00  0.00    -0.325 N 
ATOM     15  H   UNL     1       6.527  -0.008  -3.276  0.00  0.00    +0.145 HD
ATOM     16  H   UNL     1       6.845   0.853  -1.869  0.00  0.00    +0.145 HD
ENDBRANCH   8  12
ENDBRANCH   5   7
ENDBRANCH   1   3
BRANCH   1  17
ATOM     17  O   UNL     1      -1.360  -0.507   0.012  0.00  0.00    -0.452 OA
BRANCH  17  18
ATOM     18  C   UNL     1      -1.920  -0.724   1.213  0.00  0.00    +0.312 C 
ATOM     19  O   UNL     1      -1.293  -0.502   2.221  0.00  0.00    -0.250 OA
BRANCH  18  20
ATOM     20  C   UNL     1      -3.332  -1.245   1.302  0.00  0.00    +0.159 C 
BRANCH  20  31
ATOM     21  C   UNL     1      -5.415   3.158   4.377  0.00  0.00    +0.044 C 
ATOM     22  C   UNL     1      -5.075   1.699   4.542  0.00  0.00    -0.047 A 
ATOM     23  C   UNL     1      -4.570   0.988   3.476  0.00  0.00    +0.015 A 
ATOM     24  C   UNL     1      -4.252  -0.360   3.637  0.00  0.00    +0.024 A 
ATOM     25  C   UNL     1      -4.457  -0.991   4.876  0.00  0.00    +0.135 A 
ATOM     26  C   UNL     1      -4.968  -0.255   5.937  0.00  0.00    +0.050 A 
ATOM     27  C   UNL     1      -5.273   1.079   5.767  0.00  0.00    -0.044 A 
ATOM     28  C   UNL     1      -5.826   1.871   6.923  0.00  0.00    +0.044 C 
ATOM     29  O   UNL     1      -4.074  -2.276   4.738  0.00  0.00    -0.463 OA
ATOM     30  C   UNL     1      -3.640  -2.516   3.489  0.00  0.00    +0.200 A 
ATOM     31  C   UNL     1      -3.719  -1.401   2.750  0.00  0.00    +0.009 A 
ENDBRANCH  20  31
ENDBRANCH  18  20
ENDBRANCH  17  18
ENDBRANCH   1  17
TORSDOF 7
