REMARK  Name = ZINC20830745
REMARK  11 active torsions:
REMARK  status: ('A' for Active; 'I' for Inactive)
REMARK    1  A    between atoms: C_1  and  C_2
REMARK    2  A    between atoms: C_2  and  C_35
REMARK    3  A    between atoms: C_4  and  N_10
REMARK    4  A    between atoms: C_6  and  C_8
REMARK    5  A    between atoms: C_6  and  C_9
REMARK    6  A    between atoms: C_11  and  C_13
REMARK    7  A    between atoms: C_13  and  S_14
REMARK    8  A    between atoms: S_14  and  C_15
REMARK    9  A    between atoms: C_18  and  C_26
REMARK   10  A    between atoms: N_19  and  C_20
REMARK   11  A    between atoms: C_30  and  N_32
REMARK                            x       y       z     vdW  Elec       q    Type
REMARK                         _______ _______ _______ _____ _____    ______ ____
ROOT
ATOM      1  C   UNL     1      -0.732   7.402   0.006  0.00  0.00    +0.197 A 
ATOM      2  N   UNL     1       0.569   7.339  -0.172  0.00  0.00    -0.122 NA
ATOM      3  N   UNL     1       0.971   6.123  -0.069  0.00  0.00    -0.128 NA
ATOM      4  C   UNL     1      -0.046   5.332   0.182  0.00  0.00    +0.169 A 
ATOM      5  N   UNL     1      -1.171   6.126   0.233  0.00  0.00    -0.270 N 
ENDROOT
BRANCH   5   6
ATOM      6  C   UNL     1      -2.490   5.713   0.469  0.00  0.00    +0.051 A 
ATOM      7  C   UNL     1      -3.157   4.942  -0.473  0.00  0.00    +0.026 A 
ATOM      8  C   UNL     1      -4.454   4.532  -0.234  0.00  0.00    +0.002 A 
ATOM      9  C   UNL     1      -5.093   4.898   0.936  0.00  0.00    +0.000 A 
ATOM     10  C   UNL     1      -4.432   5.670   1.875  0.00  0.00    +0.002 A 
ATOM     11  C   UNL     1      -3.133   6.079   1.644  0.00  0.00    +0.026 A 
ENDBRANCH   5   6
BRANCH   4  12
ATOM     12  C   UNL     1       0.005   3.867   0.368  0.00  0.00    +0.022 A 
ATOM     13  C   UNL     1      -1.057   3.201   0.984  0.00  0.00    +0.012 A 
ATOM     14  C   UNL     1      -1.004   1.833   1.151  0.00  0.00    +0.003 A 
ATOM     15  C   UNL     1       0.101   1.122   0.719  0.00  0.00    +0.033 A 
ATOM     16  C   UNL     1       1.157   1.775   0.108  0.00  0.00    +0.127 A 
ATOM     17  C   UNL     1       1.115   3.143  -0.070  0.00  0.00    +0.044 A 
BRANCH  16  18
ATOM     18  N   UNL     1       2.333   1.006  -0.356  0.00  0.00    +0.056 N 
ATOM     19  O   UNL     1       2.371  -0.201  -0.200  0.00  0.00    -0.126 OA
ATOM     20  O   UNL     1       3.263   1.580  -0.894  0.00  0.00    -0.126 OA
ENDBRANCH  16  18
ENDBRANCH   4  12
BRANCH   1  21
ATOM     21  S   UNL     1      -1.726   8.856  -0.044  0.00  0.00    -0.076 S 
BRANCH  21  22
ATOM     22  C   UNL     1      -0.453  10.095  -0.390  0.00  0.00    +0.173 C 
BRANCH  22  24
ATOM     23  N   UNL     1      -0.328  12.541  -0.731  0.00  0.00    -0.312 N 
ATOM     24  C   UNL     1      -1.089  11.458  -0.479  0.00  0.00    +0.224 C 
ATOM     25  O   UNL     1      -2.285  11.580  -0.324  0.00  0.00    -0.275 OA
ATOM     26  H   UNL     1       0.757  12.431  -0.872  0.00  0.00    +0.149 HD
BRANCH  23  30
ATOM     27  C   UNL     1      -1.413  16.587   0.627  0.00  0.00    -0.010 C 
ATOM     28  C   UNL     1      -0.517  16.330  -0.590  0.00  0.00    -0.072 C 
ATOM     29  C   UNL     1       0.096  14.935  -0.487  0.00  0.00    +0.009 C 
ATOM     30  C   UNL     1      -0.948  13.870  -0.818  0.00  0.00    +0.070 C 
ATOM     31  C   UNL     1      -1.443  14.102  -2.245  0.00  0.00    +0.009 C 
ATOM     32  C   UNL     1      -2.073  15.486  -2.371  0.00  0.00    -0.072 C 
ATOM     33  N   UNL     1      -1.240  16.538  -1.827  0.00  0.00    +0.386 N 
ATOM     34  C   UNL     1      -3.459  15.481  -1.715  0.00  0.00    -0.010 C 
ATOM     35  C   UNL     1      -2.282  15.767  -3.876  0.00  0.00    -0.010 C 
ATOM     36  C   UNL     1       0.640  17.352  -0.530  0.00  0.00    -0.010 C 
ATOM     37  H   UNL     1      -1.931  17.386  -1.709  0.00  0.00    -0.084 HD
ATOM     38  H   UNL     1      -0.528  16.756  -2.636  0.00  0.00    -0.084 HD
ENDBRANCH  23  30
ENDBRANCH  22  24
ENDBRANCH  21  22
ENDBRANCH   1  21
TORSDOF 7
