REMARK  Name = ZINC03302800
REMARK  13 active torsions:
REMARK  status: ('A' for Active; 'I' for Inactive)
REMARK    1  A    between atoms: C_1  and  C_2
REMARK    2  A    between atoms: C_2  and  C_3
REMARK    3  A    between atoms: C_3  and  C_4
REMARK    4  A    between atoms: C_4  and  C_5
REMARK    5  A    between atoms: C_8  and  N_11
REMARK    6  A    between atoms: C_12  and  C_27
REMARK    7  A    between atoms: C_15  and  S_16
REMARK    8  A    between atoms: S_16  and  C_17
REMARK    9  A    between atoms: C_17  and  C_18
REMARK   10  A    between atoms: N_23  and  C_24
REMARK   11  A    between atoms: C_24  and  C_25
REMARK   12  A    between atoms: C_24  and  C_26
REMARK   13  A    between atoms: C_30  and  C_33
REMARK                            x       y       z     vdW  Elec       q    Type
REMARK                         _______ _______ _______ _____ _____    ______ ____
ROOT
ATOM      1  N   UNL     1      -3.764   1.532  -0.159  0.00  0.00    -0.270 N 
ATOM      2  C   UNL     1      -2.501   0.983  -0.132  0.00  0.00    +0.169 A 
ATOM      3  N   UNL     1      -2.643  -0.300   0.108  0.00  0.00    -0.128 NA
ATOM      4  N   UNL     1      -3.890  -0.589   0.226  0.00  0.00    -0.122 NA
ATOM      5  C   UNL     1      -4.622   0.491   0.070  0.00  0.00    +0.197 A 
ENDROOT
BRANCH   2   6
ATOM      6  C   UNL     1      -1.225   1.704  -0.329  0.00  0.00    +0.020 A 
ATOM      7  C   UNL     1      -1.217   2.963  -0.932  0.00  0.00    +0.012 A 
ATOM      8  C   UNL     1      -0.024   3.632  -1.108  0.00  0.00    +0.004 A 
ATOM      9  C   UNL     1       1.164   3.056  -0.694  0.00  0.00    -0.050 A 
ATOM     10  C   UNL     1       1.163   1.806  -0.101  0.00  0.00    +0.004 A 
ATOM     11  C   UNL     1      -0.023   1.126   0.082  0.00  0.00    +0.012 A 
ATOM     12  C   UNL     1       2.464   3.793  -0.890  0.00  0.00    +0.044 C 
ENDBRANCH   2   6
BRANCH   1  16
ATOM     13  C   UNL     1      -4.763   5.527  -0.809  0.00  0.00    -0.047 A 
ATOM     14  C   UNL     1      -5.094   4.571  -1.752  0.00  0.00    +0.005 A 
ATOM     15  C   UNL     1      -4.764   3.246  -1.539  0.00  0.00    +0.026 A 
ATOM     16  C   UNL     1      -4.100   2.876  -0.377  0.00  0.00    +0.051 A 
ATOM     17  C   UNL     1      -3.775   3.837   0.570  0.00  0.00    +0.026 A 
ATOM     18  C   UNL     1      -4.102   5.160   0.349  0.00  0.00    +0.005 A 
BRANCH  13  19
ATOM     19  C   UNL     1      -5.124   6.971  -1.044  0.00  0.00    +0.035 C 
BRANCH  19  20
ATOM     20  C   UNL     1      -6.513   7.250  -0.467  0.00  0.00    +0.004 C 
BRANCH  20  22
ATOM     21  C   UNL     1      -8.269   8.995  -0.129  0.00  0.00    +0.004 C 
ATOM     22  C   UNL     1      -6.880   8.716  -0.706  0.00  0.00    -0.003 C 
ENDBRANCH  20  22
ENDBRANCH  19  20
ENDBRANCH  13  19
ENDBRANCH   1  16
BRANCH   5  23
ATOM     23  S   UNL     1      -6.380   0.583   0.145  0.00  0.00    -0.076 S 
BRANCH  23  24
ATOM     24  C   UNL     1      -6.771  -1.152   0.481  0.00  0.00    +0.173 C 
BRANCH  24  25
ATOM     25  C   UNL     1      -8.265  -1.319   0.589  0.00  0.00    +0.231 C 
ATOM     26  O   UNL     1      -8.993  -0.359   0.454  0.00  0.00    -0.274 OA
ATOM     27  N   UNL     1      -8.791  -2.534   0.838  0.00  0.00    -0.239 N 
ATOM     28  C   UNL     1     -10.127  -2.683   0.935  0.00  0.00    +0.306 C 
ATOM     29  O   UNL     1     -10.857  -1.721   0.799  0.00  0.00    -0.252 OA
ATOM     30  N   UNL     1     -10.654  -3.899   1.183  0.00  0.00    -0.297 N 
ATOM     31  H   UNL     1      -8.209  -3.302   0.946  0.00  0.00    +0.159 HD
ATOM     32  H   UNL     1     -10.071  -4.667   1.291  0.00  0.00    +0.151 HD
BRANCH  30  33
ATOM     33  C   UNL     1     -12.106  -4.061   1.289  0.00  0.00    +0.068 C 
ATOM     34  C   UNL     1     -12.484  -5.504   0.950  0.00  0.00    +0.027 C 
ATOM     35  C   UNL     1     -12.552  -3.738   2.716  0.00  0.00    +0.027 C 
ENDBRANCH  30  33
ENDBRANCH  24  25
ENDBRANCH  23  24
ENDBRANCH   5  23
TORSDOF 9
