REMARK  Name = ZINC41649805
REMARK  7 active torsions:
REMARK  status: ('A' for Active; 'I' for Inactive)
REMARK    1  A    between atoms: C_1  and  C_2
REMARK    2  A    between atoms: C_2  and  N_3
REMARK    3  A    between atoms: C_4  and  C_23
REMARK    4  A    between atoms: C_7  and  S_8
REMARK    5  A    between atoms: S_8  and  C_9
REMARK    6  A    between atoms: C_9  and  C_10
REMARK    7  A    between atoms: C_14  and  C_16
REMARK                            x       y       z     vdW  Elec       q    Type
REMARK                         _______ _______ _______ _____ _____    ______ ____
ROOT
ATOM      1  C   UNL     1      -3.183  -1.145  -3.672  0.00  0.00    +0.133 C 
ENDROOT
BRANCH   1   2
ATOM      2  C   UNL     1      -2.928  -1.037  -5.154  0.00  0.00    +0.059 A 
ATOM      3  C   UNL     1      -2.700  -2.163  -5.889  0.00  0.00    +0.094 A 
ATOM      4  C   UNL     1      -2.465  -2.036  -7.272  0.00  0.00    +0.252 A 
ATOM      5  N   UNL     1      -2.473  -0.803  -7.821  0.00  0.00    -0.307 N 
ATOM      6  C   UNL     1      -2.707   0.286  -7.034  0.00  0.00    +0.141 A 
ATOM      7  N   UNL     1      -2.932   0.157  -5.743  0.00  0.00    -0.233 NA
ATOM      8  O   UNL     1      -2.257  -3.022  -7.960  0.00  0.00    -0.268 OA
ATOM      9  H   UNL     1      -2.313  -0.691  -8.771  0.00  0.00    +0.170 HD
BRANCH   6  10
ATOM     10  C   UNL     1      -2.714   1.632  -7.642  0.00  0.00    +0.017 A 
ATOM     11  C   UNL     1      -2.489   1.785  -9.011  0.00  0.00    +0.011 A 
ATOM     12  C   UNL     1      -2.498   3.045  -9.572  0.00  0.00    +0.001 A 
ATOM     13  C   UNL     1      -2.728   4.156  -8.781  0.00  0.00    +0.000 A 
ATOM     14  C   UNL     1      -2.952   4.012  -7.423  0.00  0.00    +0.001 A 
ATOM     15  C   UNL     1      -2.952   2.757  -6.850  0.00  0.00    +0.011 A 
ENDBRANCH   6  10
ENDBRANCH   1   2
BRANCH   1  16
ATOM     16  S   UNL     1      -1.707  -0.609  -2.764  0.00  0.00    -0.080 S 
BRANCH  16  21
ATOM     17  N   UNL     1      -1.372  -0.511   0.012  0.00  0.00    -0.302 N 
ATOM     18  C   UNL     1      -2.145  -0.800   1.115  0.00  0.00    +0.171 A 
ATOM     19  N   UNL     1      -3.306  -1.227   0.670  0.00  0.00    -0.128 NA
ATOM     20  N   UNL     1      -3.311  -1.224  -0.615  0.00  0.00    -0.122 NA
ATOM     21  C   UNL     1      -2.158  -0.791  -1.071  0.00  0.00    +0.192 A 
BRANCH  18  22
ATOM     22  C   UNL     1      -1.746  -0.658   2.525  0.00  0.00    +0.056 A 
ATOM     23  C   UNL     1      -2.531  -0.664   3.651  0.00  0.00    +0.019 A 
ATOM     24  C   UNL     1      -1.926  -0.512   4.878  0.00  0.00    +0.008 A 
ATOM     25  C   UNL     1      -0.578  -0.363   4.938  0.00  0.00    +0.046 A 
ATOM     26  S   UNL     1      -0.114  -0.442   3.216  0.00  0.00    -0.094 S 
ENDBRANCH  18  22
BRANCH  17  28
ATOM     27  C   UNL     1      -0.019   1.526   0.010  0.00  0.00    +0.027 C 
ATOM     28  C   UNL     1       0.002  -0.004   0.002  0.00  0.00    +0.122 C 
ENDBRANCH  17  28
ENDBRANCH  16  21
ENDBRANCH   1  16
TORSDOF 6
