REMARK  Name = ZINC05332737
REMARK  6 active torsions:
REMARK  status: ('A' for Active; 'I' for Inactive)
REMARK    1  A    between atoms: C_5  and  C_7
REMARK    2  A    between atoms: C_10  and  S_15
REMARK    3  A    between atoms: N_11  and  C_12
REMARK    4  A    between atoms: S_15  and  C_16
REMARK    5  A    between atoms: C_16  and  C_17
REMARK    6  A    between atoms: N_22  and  C_23
REMARK                            x       y       z     vdW  Elec       q    Type
REMARK                         _______ _______ _______ _____ _____    ______ ____
ROOT
ATOM      1  S   UNL     1      -0.256  -5.765   0.076  0.00  0.00    -0.077 S 
ENDROOT
BRANCH   1   5
ATOM      2  C   UNL     1       1.250  -2.161  -0.013  0.00  0.00    +0.168 A 
ATOM      3  N   UNL     1       2.315  -2.921  -0.118  0.00  0.00    -0.128 NA
ATOM      4  N   UNL     1       1.973  -4.160  -0.103  0.00  0.00    -0.122 NA
ATOM      5  C   UNL     1       0.668  -4.266   0.013  0.00  0.00    +0.193 A 
ATOM      6  N   UNL     1       0.163  -2.999   0.080  0.00  0.00    -0.299 N 
BRANCH   2  11
ATOM      7  C   UNL     1      -0.013   1.376   0.021  0.00  0.00    +0.001 A 
ATOM      8  C   UNL     1       1.174   2.087   0.047  0.00  0.00    +0.003 A 
ATOM      9  C   UNL     1       2.387   1.422   0.054  0.00  0.00    +0.039 A 
ATOM     10  C   UNL     1       2.420   0.040   0.034  0.00  0.00    +0.134 A 
ATOM     11  C   UNL     1       1.224  -0.683   0.008  0.00  0.00    +0.054 A 
ATOM     12  C   UNL     1       0.005  -0.003   0.002  0.00  0.00    +0.014 A 
ATOM     13  F   UNL     1       3.604  -0.610   0.040  0.00  0.00    -0.205 F 
ENDBRANCH   2  11
BRANCH   6  14
ATOM     14  C   UNL     1      -1.244  -2.613   0.220  0.00  0.00    +0.091 C 
ATOM     15  C   UNL     1      -1.709  -2.125   1.593  0.00  0.00    +0.027 C 
ATOM     16  C   UNL     1      -2.138  -3.503   1.085  0.00  0.00    +0.027 C 
ENDBRANCH   6  14
ENDBRANCH   1   5
BRANCH   1  17
ATOM     17  C   UNL     1       1.004  -7.064  -0.054  0.00  0.00    +0.173 C 
BRANCH  17  18
ATOM     18  C   UNL     1       0.338  -8.415  -0.012  0.00  0.00    +0.231 C 
ATOM     19  O   UNL     1      -0.867  -8.495   0.095  0.00  0.00    -0.274 OA
ATOM     20  N   UNL     1       1.083  -9.536  -0.093  0.00  0.00    -0.239 N 
ATOM     21  C   UNL     1       0.488 -10.744  -0.056  0.00  0.00    +0.306 C 
ATOM     22  O   UNL     1      -0.720 -10.824   0.051  0.00  0.00    -0.252 OA
ATOM     23  N   UNL     1       1.232 -11.865  -0.137  0.00  0.00    -0.296 N 
ATOM     24  H   UNL     1       2.047  -9.472  -0.179  0.00  0.00    +0.159 HD
ATOM     25  H   UNL     1       2.196 -11.802  -0.223  0.00  0.00    +0.151 HD
BRANCH  23  26
ATOM     26  C   UNL     1       0.585 -13.179  -0.097  0.00  0.00    +0.074 C 
ATOM     27  C   UNL     1       0.376 -13.599   1.359  0.00  0.00    +0.022 C 
ATOM     28  C   UNL     1      -0.299 -14.971   1.402  0.00  0.00    +0.002 C 
ATOM     29  C   UNL     1       0.588 -15.999   0.697  0.00  0.00    +0.000 C 
ATOM     30  C   UNL     1       0.797 -15.578  -0.759  0.00  0.00    +0.002 C 
ATOM     31  C   UNL     1       1.473 -14.206  -0.802  0.00  0.00    +0.022 C 
ENDBRANCH  23  26
ENDBRANCH  17  18
ENDBRANCH   1  17
TORSDOF 6
