REMARK  Name = ZINC10246999
REMARK  6 active torsions:
REMARK  status: ('A' for Active; 'I' for Inactive)
REMARK    1  A    between atoms: C_1  and  C_2
REMARK    2  A    between atoms: C_5  and  N_8
REMARK    3  A    between atoms: C_10  and  C_15
REMARK    4  A    between atoms: N_17  and  C_18
REMARK    5  A    between atoms: C_26  and  C_27
REMARK    6  A    between atoms: N_29  and  C_30
REMARK                            x       y       z     vdW  Elec       q    Type
REMARK                         _______ _______ _______ _____ _____    ______ ____
ROOT
ATOM      1  C   UNL     1       5.067  -4.080   0.091  0.00  0.00    +0.092 A 
ATOM      2  C   UNL     1       6.466  -4.295   0.478  0.00  0.00    +0.042 A 
ATOM      3  C   UNL     1       7.199  -5.410   0.886  0.00  0.00    +0.013 A 
ATOM      4  C   UNL     1       8.525  -5.275   1.189  0.00  0.00    +0.001 A 
ATOM      5  C   UNL     1       9.146  -4.037   1.093  0.00  0.00    +0.004 A 
ATOM      6  C   UNL     1       8.438  -2.925   0.691  0.00  0.00    +0.047 A 
ATOM      7  C   UNL     1       7.088  -3.039   0.378  0.00  0.00    +0.138 A 
ATOM      8  O   UNL     1       6.161  -2.151  -0.033  0.00  0.00    -0.448 OA
ATOM      9  C   UNL     1       4.962  -2.750  -0.211  0.00  0.00    +0.212 A 
ENDROOT
BRANCH   1  12
ATOM     10  C   UNL     1       4.338  -6.295  -0.339  0.00  0.00    +0.222 C 
ATOM     11  O   UNL     1       5.488  -6.625  -0.538  0.00  0.00    -0.275 OA
ATOM     12  N   UNL     1       4.056  -5.032   0.038  0.00  0.00    -0.282 N 
ATOM     13  H   UNL     1       3.147  -4.788   0.273  0.00  0.00    +0.155 HD
BRANCH  10  16
ATOM     14  N   UNL     1       3.896  -9.356   0.516  0.00  0.00    -0.271 N 
ATOM     15  C   UNL     1       3.790  -8.706  -0.796  0.00  0.00    +0.127 C 
ATOM     16  C   UNL     1       3.226  -7.296  -0.513  0.00  0.00    +0.102 C 
ATOM     17  C   UNL     1       2.470  -7.521   0.817  0.00  0.00    +0.110 C 
ATOM     18  C   UNL     1       3.160  -8.714   1.439  0.00  0.00    +0.221 C 
ATOM     19  O   UNL     1       3.063  -9.044   2.603  0.00  0.00    -0.275 OA
BRANCH  14  24
ATOM     20  C   UNL     1       7.014 -13.980   1.556  0.00  0.00    +0.044 C 
ATOM     21  C   UNL     1       6.185 -12.752   1.279  0.00  0.00    -0.050 A 
ATOM     22  C   UNL     1       6.242 -12.147   0.037  0.00  0.00    +0.005 A 
ATOM     23  C   UNL     1       5.484 -11.021  -0.219  0.00  0.00    +0.024 A 
ATOM     24  C   UNL     1       4.664 -10.497   0.772  0.00  0.00    +0.036 A 
ATOM     25  C   UNL     1       4.613 -11.105   2.019  0.00  0.00    +0.024 A 
ATOM     26  C   UNL     1       5.369 -12.234   2.268  0.00  0.00    +0.005 A 
ENDBRANCH  14  24
ENDBRANCH  10  16
ENDBRANCH   1  12
BRANCH   9  27
ATOM     27  C   UNL     1       3.741  -2.078  -0.650  0.00  0.00    +0.285 C 
ATOM     28  O   UNL     1       2.690  -2.691  -0.691  0.00  0.00    -0.266 OA
ATOM     29  N   UNL     1       3.779  -0.780  -1.011  0.00  0.00    -0.279 N 
ATOM     30  H   UNL     1       4.627  -0.310  -1.045  0.00  0.00    +0.155 HD
BRANCH  29  31
ATOM     31  C   UNL     1       2.594  -0.109  -1.337  0.00  0.00    +0.037 A 
ATOM     32  C   UNL     1       2.440   1.231  -1.007  0.00  0.00    +0.027 A 
ATOM     33  C   UNL     1       1.270   1.892  -1.327  0.00  0.00    +0.051 A 
ATOM     34  C   UNL     1       0.247   1.221  -1.980  0.00  0.00    +0.162 A 
ATOM     35  C   UNL     1       0.399  -0.119  -2.315  0.00  0.00    +0.164 A 
ATOM     36  C   UNL     1       1.572  -0.783  -1.992  0.00  0.00    +0.072 A 
ATOM     37  O   UNL     1      -0.591  -0.791  -2.964  0.00  0.00    -0.485 OA
ATOM     38  C   UNL     1      -1.895  -0.200  -2.940  0.00  0.00    +0.270 C 
ATOM     39  C   UNL     1      -1.752   1.292  -3.268  0.00  0.00    +0.270 C 
ATOM     40  O   UNL     1      -0.902   1.888  -2.281  0.00  0.00    -0.485 OA
ENDBRANCH  29  31
ENDBRANCH   9  27
TORSDOF 5
