REMARK  Name = ZINC39973118
REMARK  6 active torsions:
REMARK  status: ('A' for Active; 'I' for Inactive)
REMARK    1  A    between atoms: C_1  and  C_2
REMARK    2  A    between atoms: C_2  and  N_3
REMARK    3  A    between atoms: C_4  and  C_24
REMARK    4  A    between atoms: C_8  and  S_10
REMARK    5  A    between atoms: S_10  and  C_11
REMARK    6  A    between atoms: C_11  and  C_12
REMARK                            x       y       z     vdW  Elec       q    Type
REMARK                         _______ _______ _______ _____ _____    ______ ____
ROOT
ATOM      1  N   UNL     1       0.678  -0.485   1.245  0.00  0.00    +0.412 N 
ATOM      2  C   UNL     1       0.570  -1.961   1.304  0.00  0.00    +0.086 C 
ATOM      3  N   UNL     1       1.809  -2.444   0.640  0.00  0.00    -0.264 NA
ATOM      4  N   UNL     1       2.824  -1.479   1.089  0.00  0.00    -0.261 NA
ATOM      5  C   UNL     1       2.117  -0.179   1.107  0.00  0.00    +0.077 C 
ATOM      6  H   UNL     1       2.039  -3.379   0.942  0.00  0.00    +0.139 HD
ATOM      7  H   UNL     1       3.607  -1.456   0.453  0.00  0.00    +0.140 HD
ATOM      8  H   UNL     1       0.317  -0.076   2.094  0.00  0.00    -0.075 HD
ENDROOT
BRANCH   2   9
ATOM      9  C   UNL     1      -0.651  -2.430   0.555  0.00  0.00    +0.108 A 
ATOM     10  C   UNL     1      -1.729  -2.991   1.120  0.00  0.00    +0.053 A 
ATOM     11  C   UNL     1      -2.659  -3.286   0.023  0.00  0.00    +0.021 A 
ATOM     12  C   UNL     1      -3.928  -3.858  -0.051  0.00  0.00    +0.027 A 
ATOM     13  C   UNL     1      -4.543  -3.993  -1.277  0.00  0.00    +0.019 A 
ATOM     14  C   UNL     1      -3.904  -3.563  -2.432  0.00  0.00    +0.019 A 
ATOM     15  C   UNL     1      -2.649  -2.996  -2.371  0.00  0.00    +0.048 A 
ATOM     16  C   UNL     1      -2.012  -2.850  -1.145  0.00  0.00    +0.135 A 
ATOM     17  O   UNL     1      -0.818  -2.342  -0.776  0.00  0.00    -0.460 OA
ATOM     18 BR   UNL     1      -6.264  -4.768  -1.386  0.00  0.00    -0.050 Br
ENDBRANCH   2   9
BRANCH   1  20
ATOM     19  C   UNL     1       0.025   1.556   0.060  0.00  0.00    -0.017 C 
ATOM     20  C   UNL     1      -0.061   0.029   0.084  0.00  0.00    -0.076 C 
ENDBRANCH   1  20
BRANCH   5  21
ATOM     21  S   UNL     1       2.679   0.816   2.515  0.00  0.00    -0.152 S 
BRANCH  21  22
ATOM     22  C   UNL     1       2.347  -0.235   3.956  0.00  0.00    +0.143 C 
BRANCH  22  23
ATOM     23  C   UNL     1       2.774   0.482   5.210  0.00  0.00    +0.120 A 
ATOM     24  N   UNL     1       2.609  -0.150   6.402  0.00  0.00    -0.310 N 
ATOM     25  H   UNL     1       2.224  -1.040   6.424  0.00  0.00    +0.170 HD
ATOM     26  C   UNL     1       2.977   0.451   7.557  0.00  0.00    +0.259 A 
ATOM     27  O   UNL     1       2.835  -0.104   8.631  0.00  0.00    -0.267 OA
ATOM     28  C   UNL     1       3.554   1.800   7.464  0.00  0.00    +0.065 A 
ATOM     29  C   UNL     1       3.964   2.506   8.594  0.00  0.00    +0.015 A 
ATOM     30  C   UNL     1       4.498   3.768   8.449  0.00  0.00    +0.001 A 
ATOM     31  C   UNL     1       4.629   4.339   7.190  0.00  0.00    +0.002 A 
ATOM     32  C   UNL     1       4.230   3.659   6.062  0.00  0.00    +0.028 A 
ATOM     33  C   UNL     1       3.686   2.378   6.182  0.00  0.00    +0.078 A 
ATOM     34  N   UNL     1       3.285   1.670   5.097  0.00  0.00    -0.233 NA
ENDBRANCH  22  23
ENDBRANCH  21  22
ENDBRANCH   5  21
TORSDOF 5
