REMARK  Name = ZINC02683859
REMARK  4 active torsions:
REMARK  status: ('A' for Active; 'I' for Inactive)
REMARK    1  A    between atoms: C_1  and  C_2
REMARK    2  A    between atoms: C_5  and  C_8
REMARK    3  A    between atoms: C_17  and  C_20
REMARK    4  A    between atoms: C_26  and  C_28
REMARK                            x       y       z     vdW  Elec       q    Type
REMARK                         _______ _______ _______ _____ _____    ______ ____
ROOT
ATOM      1  C   UNL     1       0.059  -4.275  -0.021  0.00  0.00    -0.003 C 
ATOM      2  C   UNL     1      -1.187  -4.798  -0.739  0.00  0.00    +0.015 C 
ATOM      3  C   UNL     1      -1.167  -6.327  -0.747  0.00  0.00    -0.009 C 
ATOM      4  C   UNL     1       0.084  -6.817  -1.478  0.00  0.00    +0.007 C 
ATOM      5  C   UNL     1       1.331  -6.295  -0.761  0.00  0.00    -0.009 C 
ATOM      6  C   UNL     1       1.311  -4.765  -0.752  0.00  0.00    +0.015 C 
ATOM      7  C   UNL     1       1.345  -6.813   0.679  0.00  0.00    +0.016 C 
ATOM      8  C   UNL     1       0.094  -6.323   1.410  0.00  0.00    +0.015 C 
ATOM      9  C   UNL     1      -1.153  -6.845   0.693  0.00  0.00    +0.016 C 
ATOM     10  C   UNL     1       0.074  -4.793   1.418  0.00  0.00    +0.024 C 
ENDROOT
BRANCH   8  11
ATOM     11  C   UNL     1       0.108  -6.833   2.828  0.00  0.00    +0.057 A 
ATOM     12  C   UNL     1      -0.168  -8.128   3.117  0.00  0.00    +0.072 A 
ATOM     13  S   UNL     1       0.003  -8.116   4.894  0.00  0.00    -0.060 S 
ATOM     14  C   UNL     1       0.400  -6.491   5.079  0.00  0.00    +0.165 A 
ATOM     15  N   UNL     1       0.395  -6.039   3.843  0.00  0.00    -0.229 NA
ATOM     16  N   UNL     1       0.673  -5.797   6.250  0.00  0.00    -0.261 N 
ATOM     17  C   UNL     1       0.635  -6.435   7.437  0.00  0.00    +0.251 C 
ATOM     18  O   UNL     1       0.362  -7.619   7.481  0.00  0.00    -0.270 OA
ATOM     19  H   UNL     1       0.890  -4.852   6.215  0.00  0.00    +0.157 HD
BRANCH  17  20
ATOM     20  C   UNL     1       0.924  -5.697   8.682  0.00  0.00    +0.055 A 
ATOM     21  C   UNL     1       1.232  -4.335   8.635  0.00  0.00    +0.016 A 
ATOM     22  C   UNL     1       1.501  -3.652   9.801  0.00  0.00    +0.021 A 
ATOM     23  C   UNL     1       1.467  -4.312  11.019  0.00  0.00    +0.042 A 
ATOM     24  C   UNL     1       1.163  -5.661  11.074  0.00  0.00    +0.040 A 
ATOM     25  C   UNL     1       0.886  -6.357   9.914  0.00  0.00    +0.054 A 
ATOM     26 CL   UNL     1       0.498  -8.047   9.984  0.00  0.00    -0.083 Cl
ATOM     27 CL   UNL     1       1.808  -3.443  12.483  0.00  0.00    -0.083 Cl
ENDBRANCH  17  20
ENDBRANCH   8  11
BRANCH   1  32
ATOM     28  C   UNL     1      -0.018   1.503   0.010  0.00  0.00    +0.044 C 
ATOM     29  C   UNL     1       0.002  -0.004   0.002  0.00  0.00    -0.050 A 
ATOM     30  C   UNL     1       0.006  -0.689  -1.199  0.00  0.00    +0.003 A 
ATOM     31  C   UNL     1       0.025  -2.071  -1.206  0.00  0.00    +0.004 A 
ATOM     32  C   UNL     1       0.040  -2.768  -0.013  0.00  0.00    -0.041 A 
ATOM     33  C   UNL     1       0.037  -2.084   1.188  0.00  0.00    +0.004 A 
ATOM     34  C   UNL     1       0.023  -0.702   1.195  0.00  0.00    +0.003 A 
ENDBRANCH   1  32
TORSDOF 3
