REMARK  Name = ZINC22023941
REMARK  13 active torsions:
REMARK  status: ('A' for Active; 'I' for Inactive)
REMARK    1  A    between atoms: C_1  and  C_2
REMARK    2  A    between atoms: C_2  and  N_3
REMARK    3  A    between atoms: N_3  and  C_4
REMARK    4  A    between atoms: N_3  and  C_6
REMARK    5  A    between atoms: C_4  and  C_5
REMARK    6  A    between atoms: C_6  and  C_8
REMARK    7  A    between atoms: C_6  and  C_30
REMARK    8  A    between atoms: C_8  and  N_9
REMARK    9  A    between atoms: C_10  and  C_12
REMARK   10  A    between atoms: N_15  and  S_18
REMARK   11  A    between atoms: S_18  and  C_21
REMARK   12  A    between atoms: C_23  and  C_27
REMARK   13  A    between atoms: N_24  and  C_26
REMARK                            x       y       z     vdW  Elec       q    Type
REMARK                         _______ _______ _______ _____ _____    ______ ____
ROOT
ATOM      1  C   UNL     1      -0.434  -2.471  -3.292  0.00  0.00    +0.077 C 
ATOM      2  C   UNL     1       0.961  -2.315  -2.683  0.00  0.00    +0.030 C 
ATOM      3  C   UNL     1       1.185  -3.414  -1.640  0.00  0.00    +0.110 C 
ATOM      4  N   UNL     1       0.944  -4.719  -2.268  0.00  0.00    -0.176 NA
ATOM      5  C   UNL     1      -0.330  -4.943  -2.966  0.00  0.00    +0.110 C 
ATOM      6  C   UNL     1      -0.539  -3.829  -3.990  0.00  0.00    +0.030 C 
ENDROOT
BRANCH   1   8
ATOM      7  N   UNL     1      -1.841  -1.308  -4.961  0.00  0.00    -0.316 N 
ATOM      8  C   UNL     1      -0.671  -1.372  -4.295  0.00  0.00    +0.216 C 
ATOM      9  O   UNL     1       0.191  -0.544  -4.502  0.00  0.00    -0.276 OA
ATOM     10  H   UNL     1      -2.623  -2.058  -4.773  0.00  0.00    +0.149 HD
BRANCH   7  11
ATOM     11  C   UNL     1      -2.071  -0.238  -5.936  0.00  0.00    +0.093 C 
BRANCH  11  12
ATOM     12  C   UNL     1      -3.466  -0.395  -6.545  0.00  0.00    -0.020 C 
BRANCH  12  13
ATOM     13  C   UNL     1      -3.634   0.589  -7.674  0.00  0.00    -0.059 A 
ATOM     14  C   UNL     1      -2.903   0.436  -8.838  0.00  0.00    +0.002 A 
ATOM     15  C   UNL     1      -3.061   1.336  -9.876  0.00  0.00    +0.000 A 
ATOM     16  C   UNL     1      -3.942   2.393  -9.746  0.00  0.00    +0.000 A 
ATOM     17  C   UNL     1      -4.669   2.548  -8.581  0.00  0.00    +0.000 A 
ATOM     18  C   UNL     1      -4.515   1.646  -7.545  0.00  0.00    +0.002 A 
ENDBRANCH  12  13
BRANCH  12  19
ATOM     19  N   UNL     1      -3.626  -1.762  -7.058  0.00  0.00    +0.385 N 
ATOM     20  H   UNL     1      -3.261  -2.457  -6.287  0.00  0.00    -0.081 HD
BRANCH  19  22
ATOM     21  C   UNL     1      -5.801  -2.086  -5.981  0.00  0.00    -0.017 C 
ATOM     22  C   UNL     1      -5.040  -2.068  -7.308  0.00  0.00    -0.081 C 
ENDBRANCH  19  22
BRANCH  19  23
ATOM     23  C   UNL     1      -2.820  -1.967  -8.269  0.00  0.00    -0.081 C 
ATOM     24  C   UNL     1      -1.337  -1.811  -7.928  0.00  0.00    -0.017 C 
ENDBRANCH  19  23
ENDBRANCH  12  19
ENDBRANCH  11  12
ENDBRANCH   7  11
ENDBRANCH   1   8
BRANCH   4  25
ATOM     25  S   UNL     1       2.089  -5.914  -2.199  0.00  0.00    +0.062 S 
ATOM     26  O   UNL     1       1.844  -6.776  -3.301  0.00  0.00    -0.153 OA
ATOM     27  O   UNL     1       3.338  -5.267  -2.000  0.00  0.00    -0.153 OA
BRANCH  25  28
ATOM     28  C   UNL     1       1.772  -6.855  -0.743  0.00  0.00    +0.124 A 
ATOM     29  C   UNL     1       0.946  -7.980  -0.654  0.00  0.00    +0.061 A 
ATOM     30  C   UNL     1       0.980  -8.404   0.657  0.00  0.00    +0.106 A 
ATOM     31  N   UNL     1       1.811  -7.552   1.348  0.00  0.00    -0.344 N 
ATOM     32  C   UNL     1       2.289  -6.621   0.487  0.00  0.00    +0.114 A 
ATOM     33  C   UNL     1       2.131  -7.640   2.775  0.00  0.00    +0.149 C 
BRANCH  30  34
ATOM     34  C   UNL     1       0.260  -9.555   1.215  0.00  0.00    +0.258 C 
ATOM     35  O   UNL     1       0.300  -9.775   2.411  0.00  0.00    -0.269 OA
ATOM     36  N   UNL     1      -0.445 -10.367   0.403  0.00  0.00    -0.324 N 
ATOM     37  H   UNL     1      -0.984 -11.229   0.821  0.00  0.00    +0.145 HD
ATOM     38  H   UNL     1      -0.480 -10.167  -0.678  0.00  0.00    +0.145 HD
ENDBRANCH  30  34
ENDBRANCH  25  28
ENDBRANCH   4  25
TORSDOF 10
