REMARK  Name = ZINC35958147
REMARK  17 active torsions:
REMARK  status: ('A' for Active; 'I' for Inactive)
REMARK    1  A    between atoms: C_1  and  C_2
REMARK    2  A    between atoms: C_3  and  C_33
REMARK    3  A    between atoms: C_4  and  C_23
REMARK    4  A    between atoms: C_6  and  C_10
REMARK    5  A    between atoms: C_7  and  C_9
REMARK    6  A    between atoms: C_10  and  O_12
REMARK    7  A    between atoms: O_12  and  C_13
REMARK    8  A    between atoms: C_13  and  C_14
REMARK    9  A    between atoms: C_14  and  N_15
REMARK   10  A    between atoms: C_16  and  O_18
REMARK   11  A    between atoms: O_18  and  C_19
REMARK   12  A    between atoms: C_19  and  C_20
REMARK   13  A    between atoms: C_19  and  C_21
REMARK   14  A    between atoms: C_19  and  C_22
REMARK   15  A    between atoms: C_28  and  C_29
REMARK   16  A    between atoms: C_33  and  O_35
REMARK   17  A    between atoms: O_35  and  C_36
REMARK                            x       y       z     vdW  Elec       q    Type
REMARK                         _______ _______ _______ _____ _____    ______ ____
ROOT
ATOM      1  C   UNL     1       0.544   0.965   0.257  0.00  0.00    +0.061 C 
ATOM      2  C   UNL     1       0.536  -0.525   0.031  0.00  0.00    +0.016 C 
ATOM      3  C   UNL     1      -0.635  -1.170  -0.105  0.00  0.00    +0.065 C 
ATOM      4  C   UNL     1      -0.691  -2.652  -0.340  0.00  0.00    +0.096 C 
ATOM      5  C   UNL     1       0.626  -3.294  -0.007  0.00  0.00    +0.065 C 
ATOM      6  C   UNL     1       1.748  -2.564   0.125  0.00  0.00    +0.016 C 
ATOM      7  N   UNL     1       1.722  -1.204  -0.039  0.00  0.00    -0.321 N 
ATOM      8  C   UNL     1       3.049  -3.251   0.451  0.00  0.00    +0.061 C 
ATOM      9  H   UNL     1       2.547  -0.720  -0.201  0.00  0.00    +0.152 HD
ENDROOT
BRANCH   4  10
ATOM     10  C   UNL     1      -1.018  -2.914  -1.787  0.00  0.00    -0.023 A 
ATOM     11  C   UNL     1      -0.263  -2.323  -2.784  0.00  0.00    +0.005 A 
ATOM     12  C   UNL     1      -0.562  -2.562  -4.112  0.00  0.00    +0.000 A 
ATOM     13  C   UNL     1      -1.617  -3.393  -4.443  0.00  0.00    +0.001 A 
ATOM     14  C   UNL     1      -2.371  -3.984  -3.447  0.00  0.00    +0.012 A 
ATOM     15  C   UNL     1      -2.068  -3.748  -2.119  0.00  0.00    +0.059 A 
BRANCH  15  16
ATOM     16  C   UNL     1      -2.887  -4.397  -1.033  0.00  0.00    +0.418 C 
ATOM     17  F   UNL     1      -3.812  -5.276  -1.608  0.00  0.00    -0.166 F 
ATOM     18  F   UNL     1      -2.042  -5.106  -0.172  0.00  0.00    -0.166 F 
ATOM     19  F   UNL     1      -3.568  -3.411  -0.310  0.00  0.00    -0.166 F 
ENDBRANCH  15  16
ENDBRANCH   4  10
BRANCH   5  20
ATOM     20  C   UNL     1       0.688  -4.695   0.171  0.00  0.00    +0.338 C 
ATOM     21  O   UNL     1       0.329  -5.191   1.223  0.00  0.00    -0.245 OA
BRANCH  20  22
ATOM     22  O   UNL     1       1.146  -5.482  -0.825  0.00  0.00    -0.460 OA
BRANCH  22  23
ATOM     23  C   UNL     1       1.181  -6.889  -0.575  0.00  0.00    +0.251 C 
BRANCH  23  24
ATOM     24  C   UNL     1       1.724  -7.612  -1.809  0.00  0.00    +0.148 C 
BRANCH  24  25
ATOM     25  N   UNL     1       3.119  -7.223  -2.029  0.00  0.00    -0.278 N 
ATOM     26  C   UNL     1       3.807  -7.739  -3.067  0.00  0.00    +0.401 C 
ATOM     27  O   UNL     1       3.271  -8.527  -3.820  0.00  0.00    -0.226 OA
ATOM     28  H   UNL     1       3.547  -6.594  -1.428  0.00  0.00    +0.152 HD
BRANCH  26  29
ATOM     29  O   UNL     1       5.089  -7.381  -3.269  0.00  0.00    -0.445 OA
BRANCH  29  30
ATOM     30  C   UNL     1       5.758  -7.966  -4.388  0.00  0.00    +0.107 C 
ATOM     31  C   UNL     1       5.019  -7.594  -5.675  0.00  0.00    +0.055 C 
ATOM     32  C   UNL     1       7.194  -7.444  -4.455  0.00  0.00    +0.055 C 
ATOM     33  C   UNL     1       5.776  -9.488  -4.232  0.00  0.00    +0.055 C 
ENDBRANCH  29  30
ENDBRANCH  26  29
ENDBRANCH  24  25
ENDBRANCH  23  24
ENDBRANCH  22  23
ENDBRANCH  20  22
ENDBRANCH   5  20
BRANCH   3  34
ATOM     34  C   UNL     1      -1.842  -0.436  -0.024  0.00  0.00    +0.337 C 
ATOM     35  O   UNL     1      -1.812   0.765   0.166  0.00  0.00    -0.245 OA
BRANCH  34  36
ATOM     36  O   UNL     1      -3.026  -1.069  -0.158  0.00  0.00    -0.465 OA
ATOM     37  C   UNL     1      -4.205  -0.266  -0.066  0.00  0.00    +0.280 C 
ENDBRANCH  34  36
ENDBRANCH   3  34
TORSDOF 11
