REMARK  Name = ZINC36205692
REMARK  17 active torsions:
REMARK  status: ('A' for Active; 'I' for Inactive)
REMARK    1  A    between atoms: C_1  and  C_2
REMARK    2  A    between atoms: C_7  and  C_8
REMARK    3  A    between atoms: C_17  and  C_19
REMARK    4  A    between atoms: C_19  and  N_20
REMARK    5  A    between atoms: N_20  and  C_21
REMARK    6  A    between atoms: N_20  and  C_31
REMARK    7  A    between atoms: C_21  and  C_22
REMARK    8  A    between atoms: C_22  and  C_24
REMARK    9  A    between atoms: C_22  and  O_30
REMARK   10  A    between atoms: C_24  and  O_25
REMARK   11  A    between atoms: O_25  and  C_26
REMARK   12  A    between atoms: C_26  and  C_27
REMARK   13  A    between atoms: C_26  and  C_28
REMARK   14  A    between atoms: C_26  and  C_29
REMARK   15  A    between atoms: C_31  and  C_32
REMARK   16  A    between atoms: C_32  and  C_33
REMARK   17  A    between atoms: C_32  and  C_34
REMARK                            x       y       z     vdW  Elec       q    Type
REMARK                         _______ _______ _______ _____ _____    ______ ____
ROOT
ATOM      1  C   UNL     1      -5.268   8.120   1.967  0.00  0.00    +0.004 A 
ATOM      2  C   UNL     1      -4.736   9.219   2.553  0.00  0.00    +0.056 A 
ATOM      3  S   UNL     1      -3.973   8.572   4.029  0.00  0.00    -0.076 S 
ATOM      4  C   UNL     1      -4.382   6.858   3.826  0.00  0.00    +0.116 A 
ATOM      5  C   UNL     1      -5.106   6.828   2.623  0.00  0.00    +0.080 A 
ATOM      6  C   UNL     1      -5.572   5.538   2.212  0.00  0.00    +0.260 A 
ATOM      7  O   UNL     1      -6.206   5.410   1.179  0.00  0.00    -0.267 OA
ATOM      8  N   UNL     1      -5.301   4.470   2.985  0.00  0.00    -0.312 N 
ATOM      9  H   UNL     1      -5.615   3.594   2.711  0.00  0.00    +0.170 HD
ATOM     10  C   UNL     1      -4.597   4.594   4.138  0.00  0.00    +0.094 A 
ATOM     11  N   UNL     1      -4.150   5.756   4.535  0.00  0.00    -0.229 NA
ENDROOT
BRANCH   1  18
ATOM     12  C   UNL     1      -8.097   7.516   1.889  0.00  0.00    +0.044 C 
ATOM     13  C   UNL     1      -7.370   7.941   0.639  0.00  0.00    -0.043 A 
ATOM     14  C   UNL     1      -8.054   8.050  -0.555  0.00  0.00    +0.004 A 
ATOM     15  C   UNL     1      -7.388   8.439  -1.704  0.00  0.00    +0.000 A 
ATOM     16  C   UNL     1      -6.034   8.721  -1.663  0.00  0.00    +0.001 A 
ATOM     17  C   UNL     1      -5.340   8.615  -0.475  0.00  0.00    +0.009 A 
ATOM     18  C   UNL     1      -6.007   8.229   0.687  0.00  0.00    -0.014 A 
ENDBRANCH   1  18
BRANCH  10  19
ATOM     19  C   UNL     1      -4.317   3.370   4.971  0.00  0.00    -0.003 C 
BRANCH  19  20
ATOM     20  N   UNL     1      -3.657   3.768   6.221  0.00  0.00    +0.386 N 
ATOM     21  H   UNL     1      -2.846   4.330   6.010  0.00  0.00    -0.081 HD
BRANCH  20  22
ATOM     22  C   UNL     1      -4.593   4.548   7.042  0.00  0.00    -0.044 C 
BRANCH  22  23
ATOM     23  C   UNL     1      -3.869   5.068   8.286  0.00  0.00    +0.124 C 
BRANCH  23  24
ATOM     24  O   UNL     1      -2.851   5.991   7.894  0.00  0.00    -0.391 OA
ATOM     25  H   UNL     1      -3.183   6.762   7.413  0.00  0.00    +0.210 HD
ENDBRANCH  23  24
BRANCH  23  26
ATOM     26  C   UNL     1      -4.872   5.773   9.202  0.00  0.00    +0.189 C 
BRANCH  26  27
ATOM     27  O   UNL     1      -4.221   6.157  10.415  0.00  0.00    -0.372 OA
BRANCH  27  28
ATOM     28  C   UNL     1      -5.074   6.827  11.345  0.00  0.00    +0.061 C 
ATOM     29  C   UNL     1      -6.235   5.907  11.727  0.00  0.00    +0.041 C 
ATOM     30  C   UNL     1      -4.276   7.189  12.600  0.00  0.00    +0.041 C 
ATOM     31  C   UNL     1      -5.623   8.103  10.705  0.00  0.00    +0.041 C 
ENDBRANCH  27  28
ENDBRANCH  26  27
ENDBRANCH  23  26
ENDBRANCH  22  23
ENDBRANCH  20  22
BRANCH  20  32
ATOM     32  C   UNL     1      -3.241   2.568   6.960  0.00  0.00    -0.075 C 
BRANCH  32  33
ATOM     33  C   UNL     1      -2.154   1.835   6.171  0.00  0.00    -0.034 C 
ATOM     34  C   UNL     1      -0.900   2.709   6.098  0.00  0.00    +0.005 C 
ATOM     35  C   UNL     1      -1.817   0.517   6.870  0.00  0.00    +0.005 C 
ENDBRANCH  32  33
ENDBRANCH  20  32
ENDBRANCH  19  20
ENDBRANCH  10  19
TORSDOF 11
