REMARK  Name = ZINC43040941
REMARK  6 active torsions:
REMARK  status: ('A' for Active; 'I' for Inactive)
REMARK    1  A    between atoms: C_1  and  C_2
REMARK    2  A    between atoms: C_7  and  N_8
REMARK    3  A    between atoms: N_11  and  N_12
REMARK    4  A    between atoms: N_15  and  C_16
REMARK    5  A    between atoms: C_21  and  C_26
REMARK    6  A    between atoms: C_23  and  C_25
REMARK                            x       y       z     vdW  Elec       q    Type
REMARK                         _______ _______ _______ _____ _____    ______ ____
ROOT
ATOM      1  N   UNL     1      -0.173   1.375   4.750  0.00  0.00    -0.217 N 
ATOM      2  C   UNL     1      -0.272   2.043   5.917  0.00  0.00    +0.316 C 
ATOM      3  O   UNL     1      -0.288   3.258   5.921  0.00  0.00    -0.251 OA
ATOM      4  N   UNL     1      -0.354   1.363   7.077  0.00  0.00    -0.295 N 
ATOM      5  H   UNL     1      -0.115   1.864   3.915  0.00  0.00    +0.174 HD
ATOM      6  H   UNL     1      -0.341   0.393   7.074  0.00  0.00    +0.151 HD
ENDROOT
BRANCH   4   7
ATOM      7  C   UNL     1      -0.462   2.089   8.345  0.00  0.00    +0.078 C 
ATOM      8  C   UNL     1       0.937   2.469   8.836  0.00  0.00    +0.022 C 
ATOM      9  C   UNL     1       1.767   1.201   9.043  0.00  0.00    +0.002 C 
ATOM     10  C   UNL     1       1.086   0.310  10.085  0.00  0.00    +0.003 C 
ATOM     11  C   UNL     1      -0.313  -0.070   9.594  0.00  0.00    -0.009 C 
ATOM     12  C   UNL     1      -1.143   1.198   9.387  0.00  0.00    +0.009 C 
ATOM     13  C   UNL     1      -2.541   0.818   8.896  0.00  0.00    +0.009 C 
ATOM     14  C   UNL     1      -0.994  -0.960  10.636  0.00  0.00    +0.008 C 
ENDBRANCH   4   7
BRANCH   1  18
ATOM     15  N   UNL     1       0.026  -0.015   2.417  0.00  0.00    -0.268 N 
ATOM     16  C   UNL     1      -0.056  -0.694   3.578  0.00  0.00    +0.320 C 
ATOM     17  O   UNL     1      -0.040  -1.910   3.573  0.00  0.00    -0.251 OA
ATOM     18  N   UNL     1      -0.155  -0.026   4.745  0.00  0.00    -0.217 N 
ATOM     19  H   UNL     1       0.079   0.954   2.425  0.00  0.00    +0.156 HD
ATOM     20  H   UNL     1      -0.214  -0.515   5.580  0.00  0.00    +0.174 HD
BRANCH  15  27
ATOM     21  C   UNL     1      -1.265   1.184   0.182  0.00  0.00    +0.045 C 
ATOM     22  C   UNL     1      -0.585  -0.158   0.085  0.00  0.00    -0.029 A 
ATOM     23  C   UNL     1      -0.570  -0.840  -1.116  0.00  0.00    +0.005 A 
ATOM     24  C   UNL     1       0.054  -2.070  -1.206  0.00  0.00    +0.000 A 
ATOM     25  C   UNL     1       0.665  -2.622  -0.095  0.00  0.00    +0.002 A 
ATOM     26  C   UNL     1       0.654  -1.945   1.108  0.00  0.00    +0.023 A 
ATOM     27  C   UNL     1       0.033  -0.706   1.200  0.00  0.00    +0.038 A 
ENDBRANCH  15  27
ENDBRANCH   1  18
TORSDOF 3
