REMARK  Name = ZINC04646201
REMARK  9 active torsions:
REMARK  status: ('A' for Active; 'I' for Inactive)
REMARK    1  A    between atoms: C_1  and  C_2
REMARK    2  A    between atoms: C_2  and  O_3
REMARK    3  A    between atoms: O_3  and  C_4
REMARK    4  A    between atoms: C_4  and  C_6
REMARK    5  A    between atoms: C_7  and  C_26
REMARK    6  A    between atoms: C_13  and  O_25
REMARK    7  A    between atoms: C_14  and  C_17
REMARK    8  A    between atoms: C_17  and  N_58
REMARK    9  A    between atoms: C_21  and  C_24
REMARK                            x       y       z     vdW  Elec       q    Type
REMARK                         _______ _______ _______ _____ _____    ______ ____
ROOT
ATOM      1  C   UNL     1      -6.280   3.139   1.017  0.00  0.00    +0.223 A 
ATOM      2  C   UNL     1      -7.535   2.571   1.027  0.00  0.00    +0.079 A 
ATOM      3  C   UNL     1      -7.694   1.225   1.622  0.00  0.00    +0.201 A 
ATOM      4  O   UNL     1      -8.777   0.669   1.661  0.00  0.00    -0.286 OA
ATOM      5  C   UNL     1      -6.481   0.590   2.164  0.00  0.00    +0.065 A 
ATOM      6  C   UNL     1      -6.531  -0.680   2.745  0.00  0.00    +0.019 A 
ATOM      7  C   UNL     1      -5.391  -1.244   3.239  0.00  0.00    +0.046 A 
ATOM      8  C   UNL     1      -4.178  -0.560   3.167  0.00  0.00    +0.122 A 
ATOM      9  C   UNL     1      -4.112   0.698   2.594  0.00  0.00    +0.020 A 
ATOM     10  C   UNL     1      -5.263   1.291   2.091  0.00  0.00    +0.144 A 
ATOM     11  O   UNL     1      -5.208   2.513   1.527  0.00  0.00    -0.447 OA
ENDROOT
BRANCH   2  12
ATOM     12  C   UNL     1      -8.695   3.288   0.457  0.00  0.00    -0.010 A 
ATOM     13  C   UNL     1      -8.743   3.571  -0.909  0.00  0.00    +0.010 A 
ATOM     14  C   UNL     1      -9.830   4.236  -1.436  0.00  0.00    +0.016 A 
ATOM     15  C   UNL     1     -10.869   4.633  -0.610  0.00  0.00    +0.018 A 
ATOM     16  C   UNL     1     -10.826   4.359   0.747  0.00  0.00    +0.016 A 
ATOM     17  C   UNL     1      -9.746   3.690   1.284  0.00  0.00    +0.010 A 
ATOM     18 BR   UNL     1     -12.353   5.550  -1.339  0.00  0.00    -0.050 Br
ENDBRANCH   2  12
BRANCH   1  19
ATOM     19  C   UNL     1      -6.109   4.481   0.426  0.00  0.00    +0.376 C 
ATOM     20  O   UNL     1      -7.066   5.065  -0.042  0.00  0.00    -0.241 OA
BRANCH  19  21
ATOM     21  O   UNL     1      -4.891   5.057   0.404  0.00  0.00    -0.459 OA
BRANCH  21  23
ATOM     22  C   UNL     1      -3.348   6.866  -0.126  0.00  0.00    +0.048 C 
ATOM     23  C   UNL     1      -4.797   6.378  -0.192  0.00  0.00    +0.229 C 
ENDBRANCH  21  23
ENDBRANCH  19  21
ENDBRANCH   1  19
BRANCH   8  24
ATOM     24  O   UNL     1      -3.052  -1.133   3.663  0.00  0.00    -0.506 OA
ATOM     25  H   UNL     1      -2.886  -0.933   4.594  0.00  0.00    +0.292 HD
ENDBRANCH   8  24
BRANCH   9  26
ATOM     26  C   UNL     1      -2.794   1.427   2.523  0.00  0.00    -0.036 C 
BRANCH  26  33
ATOM     27  C   UNL     1      -2.861   1.601   0.109  0.00  0.00    -0.078 C 
ATOM     28  C   UNL     1      -2.206   1.108  -1.183  0.00  0.00    -0.018 C 
ATOM     29  C   UNL     1      -0.755   1.594  -1.231  0.00  0.00    -0.001 C 
ATOM     30  C   UNL     1      -0.013   1.086   0.008  0.00  0.00    -0.031 C 
ATOM     31  C   UNL     1      -0.731   1.580   1.266  0.00  0.00    -0.075 C 
ATOM     32  C   UNL     1       1.422   1.616  -0.003  0.00  0.00    +0.005 C 
ATOM     33  N   UNL     1      -2.114   1.058   1.264  0.00  0.00    +0.383 N 
ATOM     34  H   UNL     1      -2.084   0.034   1.189  0.00  0.00    -0.081 HD
ENDBRANCH  26  33
ENDBRANCH   9  26
TORSDOF 7
