REMARK  Name = ZINC03840149
REMARK  8 active torsions:
REMARK  status: ('A' for Active; 'I' for Inactive)
REMARK    1  A    between atoms: C_3  and  O_33
REMARK    2  A    between atoms: C_6  and  N_7
REMARK    3  A    between atoms: N_10  and  C_11
REMARK    4  A    between atoms: C_14  and  C_22
REMARK    5  A    between atoms: C_16  and  O_21
REMARK    6  A    between atoms: C_18  and  O_20
REMARK    7  A    between atoms: N_24  and  C_25
REMARK    8  A    between atoms: O_33  and  C_34
REMARK                            x       y       z     vdW  Elec       q    Type
REMARK                         _______ _______ _______ _____ _____    ______ ____
ROOT
ATOM      1  C   UNL     1       2.808   3.531  -0.069  0.00  0.00    +0.129 C 
ATOM      2  C   UNL     1       3.831   2.753   0.706  0.00  0.00    +0.006 C 
ATOM      3  C   UNL     1       3.600   1.574   1.243  0.00  0.00    +0.015 C 
ATOM      4  C   UNL     1       2.282   0.861   1.159  0.00  0.00    +0.074 C 
ATOM      5  C   UNL     1       1.427   1.466   0.043  0.00  0.00    +0.149 C 
ATOM      6  C   UNL     1       1.406   2.989   0.217  0.00  0.00    +0.167 C 
ENDROOT
BRANCH   1  10
ATOM      7  N   UNL     1       4.234   4.128  -3.405  0.00  0.00    -0.269 N 
ATOM      8  C   UNL     1       3.975   4.239  -2.087  0.00  0.00    +0.304 C 
ATOM      9  O   UNL     1       4.543   5.088  -1.426  0.00  0.00    -0.252 OA
ATOM     10  N   UNL     1       3.088   3.410  -1.502  0.00  0.00    -0.290 N 
ATOM     11  H   UNL     1       3.841   3.404  -3.917  0.00  0.00    +0.156 HD
ATOM     12  H   UNL     1       2.636   2.734  -2.030  0.00  0.00    +0.151 HD
BRANCH   7  18
ATOM     13  C   UNL     1       5.083   6.381  -3.612  0.00  0.00    +0.027 A 
ATOM     14  C   UNL     1       5.910   7.298  -4.231  0.00  0.00    +0.048 A 
ATOM     15  C   UNL     1       6.721   6.899  -5.283  0.00  0.00    +0.130 A 
ATOM     16  C   UNL     1       6.706   5.580  -5.711  0.00  0.00    +0.048 A 
ATOM     17  C   UNL     1       5.882   4.662  -5.090  0.00  0.00    +0.027 A 
ATOM     18  C   UNL     1       5.070   5.060  -4.036  0.00  0.00    +0.035 A 
BRANCH  15  19
ATOM     19  O   UNL     1       7.532   7.803  -5.896  0.00  0.00    -0.406 OA
BRANCH  19  20
ATOM     20  C   UNL     1       7.497   9.144  -5.404  0.00  0.00    +0.575 C 
ATOM     21  F   UNL     1       7.872   9.156  -4.056  0.00  0.00    -0.133 F 
ATOM     22  F   UNL     1       8.385   9.934  -6.142  0.00  0.00    -0.133 F 
ATOM     23  F   UNL     1       6.201   9.654  -5.532  0.00  0.00    -0.133 F 
ENDBRANCH  19  20
ENDBRANCH  15  19
ENDBRANCH   7  18
ENDBRANCH   1  10
BRANCH   3  24
ATOM     24  C   UNL     1       4.698   0.918   1.970  0.00  0.00    +0.241 C 
ATOM     25  O   UNL     1       5.780   1.465   2.060  0.00  0.00    -0.271 OA
ATOM     26  N   UNL     1       4.504  -0.290   2.537  0.00  0.00    -0.300 N 
ATOM     27  H   UNL     1       3.640  -0.726   2.465  0.00  0.00    +0.150 HD
BRANCH  26  28
ATOM     28  C   UNL     1       5.597  -0.944   3.260  0.00  0.00    +0.159 C 
ATOM     29  C   UNL     1       5.015  -1.916   4.289  0.00  0.00    +0.033 C 
ATOM     30  C   UNL     1       6.156  -2.783   4.836  0.00  0.00    +0.021 C 
ATOM     31  C   UNL     1       6.663  -3.690   3.714  0.00  0.00    +0.104 C 
ATOM     32  N   UNL     1       6.949  -2.909   2.517  0.00  0.00    -0.314 N 
ATOM     33  C   UNL     1       6.464  -1.688   2.287  0.00  0.00    +0.233 C 
ATOM     34  O   UNL     1       6.739  -1.151   1.235  0.00  0.00    -0.274 OA
ATOM     35  H   UNL     1       7.529  -3.302   1.846  0.00  0.00    +0.149 HD
ENDBRANCH  26  28
ENDBRANCH   3  24
BRANCH   6  36
ATOM     36  O   UNL     1       0.472   3.564  -0.700  0.00  0.00    -0.387 OA
ATOM     37  H   UNL     1      -0.436   3.252  -0.584  0.00  0.00    +0.210 HD
ENDBRANCH   6  36
BRANCH   5  38
ATOM     38  O   UNL     1       0.096   0.954   0.128  0.00  0.00    -0.389 OA
ATOM     39  H   UNL     1       0.037  -0.007   0.041  0.00  0.00    +0.210 HD
ENDBRANCH   5  38
TORSDOF 8
