REMARK  Name = ZINC38683493
REMARK  13 active torsions:
REMARK  status: ('A' for Active; 'I' for Inactive)
REMARK    1  A    between atoms: C_1  and  C_2
REMARK    2  A    between atoms: C_2  and  C_3
REMARK    3  A    between atoms: C_2  and  O_4
REMARK    4  A    between atoms: O_4  and  C_5
REMARK    5  A    between atoms: C_8  and  C_11
REMARK    6  A    between atoms: C_11  and  O_13
REMARK    7  A    between atoms: O_13  and  C_14
REMARK    8  A    between atoms: C_21  and  N_37
REMARK    9  A    between atoms: C_22  and  C_35
REMARK   10  A    between atoms: C_23  and  C_25
REMARK   11  A    between atoms: C_28  and  C_31
REMARK   12  A    between atoms: C_31  and  O_33
REMARK   13  A    between atoms: O_33  and  C_34
REMARK                            x       y       z     vdW  Elec       q    Type
REMARK                         _______ _______ _______ _____ _____    ______ ____
ROOT
ATOM      1  C   UNL     1      -5.084  -1.996  -6.449  0.00  0.00    +0.135 A 
ATOM      2  C   UNL     1      -4.343  -1.725  -7.591  0.00  0.00    +0.047 A 
ATOM      3  C   UNL     1      -4.905  -1.911  -8.838  0.00  0.00    +0.012 A 
ATOM      4  C   UNL     1      -6.206  -2.368  -8.956  0.00  0.00    +0.008 A 
ATOM      5  C   UNL     1      -6.950  -2.641  -7.819  0.00  0.00    +0.138 A 
ATOM      6  C   UNL     1      -6.385  -2.459  -6.563  0.00  0.00    +0.093 A 
ATOM      7  O   UNL     1      -8.226  -3.090  -7.914  0.00  0.00    -0.441 OA
ATOM      8  C   UNL     1      -8.661  -3.637  -9.061  0.00  0.00    +0.199 C 
ATOM      9  C   UNL     1      -8.028  -3.427 -10.240  0.00  0.00    +0.098 C 
ATOM     10  C   UNL     1      -6.801  -2.564 -10.325  0.00  0.00    +0.098 C 
ENDROOT
BRANCH  10  11
ATOM     11  C   UNL     1      -7.172  -1.224 -10.905  0.00  0.00    -0.035 A 
ATOM     12  C   UNL     1      -8.085  -0.418 -10.247  0.00  0.00    +0.005 A 
ATOM     13  C   UNL     1      -8.430   0.810 -10.772  0.00  0.00    +0.015 A 
ATOM     14  C   UNL     1      -7.855   1.240 -11.970  0.00  0.00    +0.059 A 
ATOM     15  C   UNL     1      -6.935   0.422 -12.629  0.00  0.00    +0.015 A 
ATOM     16  C   UNL     1      -6.595  -0.802 -12.089  0.00  0.00    +0.005 A 
BRANCH  14  17
ATOM     17  C   UNL     1      -8.220   2.554 -12.538  0.00  0.00    +0.339 C 
ATOM     18  O   UNL     1      -9.021   3.263 -11.963  0.00  0.00    -0.245 OA
BRANCH  17  19
ATOM     19  O   UNL     1      -7.664   2.965 -13.694  0.00  0.00    -0.464 OA
ATOM     20  C   UNL     1      -8.062   4.246 -14.186  0.00  0.00    +0.280 C 
ENDBRANCH  17  19
ENDBRANCH  14  17
ENDBRANCH  10  11
BRANCH   8  21
ATOM     21  N   UNL     1      -9.778  -4.433  -9.037  0.00  0.00    -0.328 N 
ATOM     22  H   UNL     1     -10.242  -4.593  -8.201  0.00  0.00    +0.145 HD
ATOM     23  H   UNL     1     -10.105  -4.836  -9.857  0.00  0.00    +0.145 HD
ENDBRANCH   8  21
BRANCH   9  24
ATOM     24  C   UNL     1      -8.540  -4.039 -11.429  0.00  0.00    +0.101 C 
ATOM     25  N   UNL     1      -8.946  -4.524 -12.373  0.00  0.00    -0.191 NA
ENDBRANCH   9  24
BRANCH   1  26
ATOM     26  O   UNL     1      -4.532  -1.814  -5.220  0.00  0.00    -0.422 OA
BRANCH  26  27
ATOM     27  C   UNL     1      -4.298  -2.905  -4.464  0.00  0.00    +0.344 C 
ATOM     28  O   UNL     1      -4.487  -4.014  -4.922  0.00  0.00    -0.245 OA
BRANCH  27  32
ATOM     29  C   UNL     1      -2.898  -2.464  -0.480  0.00  0.00    +0.121 A 
ATOM     30  C   UNL     1      -3.114  -3.734  -1.002  0.00  0.00    +0.046 A 
ATOM     31  C   UNL     1      -3.568  -3.882  -2.294  0.00  0.00    +0.018 A 
ATOM     32  C   UNL     1      -3.812  -2.752  -3.080  0.00  0.00    +0.060 A 
ATOM     33  C   UNL     1      -3.593  -1.476  -2.551  0.00  0.00    +0.018 A 
ATOM     34  C   UNL     1      -3.144  -1.338  -1.257  0.00  0.00    +0.046 A 
BRANCH  29  35
ATOM     35  O   UNL     1      -2.450  -2.323   0.793  0.00  0.00    -0.489 OA
BRANCH  35  37
ATOM     36  C   UNL     1      -0.732  -3.987   1.137  0.00  0.00    +0.051 C 
ATOM     37  C   UNL     1      -2.141  -3.521   1.508  0.00  0.00    +0.167 C 
ATOM     38  C   UNL     1      -2.209  -3.249   3.012  0.00  0.00    +0.051 C 
ENDBRANCH  35  37
ENDBRANCH  29  35
ENDBRANCH  27  32
ENDBRANCH  26  27
ENDBRANCH   1  26
TORSDOF 10
