REMARK  Name = ZINC35703678
REMARK  13 active torsions:
REMARK  status: ('A' for Active; 'I' for Inactive)
REMARK    1  A    between atoms: C_1  and  C_2
REMARK    2  A    between atoms: C_5  and  C_9
REMARK    3  A    between atoms: C_6  and  C_8
REMARK    4  A    between atoms: C_11  and  C_32
REMARK    5  A    between atoms: C_12  and  C_31
REMARK    6  A    between atoms: C_16  and  C_19
REMARK    7  A    between atoms: C_20  and  N_22
REMARK    8  A    between atoms: C_28  and  C_30
REMARK    9  A    between atoms: C_32  and  O_34
REMARK   10  A    between atoms: O_34  and  C_35
REMARK   11  A    between atoms: C_35  and  C_36
REMARK   12  A    between atoms: C_36  and  O_37
REMARK   13  A    between atoms: O_37  and  C_38
REMARK                            x       y       z     vdW  Elec       q    Type
REMARK                         _______ _______ _______ _____ _____    ______ ____
ROOT
ATOM      1  C   UNL     1       2.081  -5.237  -1.293  0.00  0.00    +0.150 C 
ATOM      2  C   UNL     1       0.682  -5.790  -1.138  0.00  0.00    +0.082 C 
ATOM      3  C   UNL     1       0.218  -6.651  -2.114  0.00  0.00    +0.053 C 
ATOM      4  N   UNL     1       0.984  -6.973  -3.144  0.00  0.00    -0.230 NA
ATOM      5  C   UNL     1       2.208  -6.527  -3.338  0.00  0.00    +0.166 C 
ATOM      6  N   UNL     1       2.849  -5.667  -2.492  0.00  0.00    -0.267 N 
ATOM      7  C   UNL     1       4.133  -5.292  -2.835  0.00  0.00    +0.048 C 
ATOM      8  C   UNL     1       4.651  -5.801  -3.974  0.00  0.00    +0.072 C 
ATOM      9  S   UNL     1       3.315  -6.818  -4.565  0.00  0.00    -0.060 S 
ATOM     10  C   UNL     1      -1.170  -7.229  -2.004  0.00  0.00    +0.066 C 
ENDROOT
BRANCH   1  15
ATOM     11  C   UNL     1       1.710   0.529  -1.391  0.00  0.00    +0.044 C 
ATOM     12  C   UNL     1       1.807  -0.974  -1.365  0.00  0.00    -0.050 A 
ATOM     13  C   UNL     1       1.400  -1.712  -2.462  0.00  0.00    +0.004 A 
ATOM     14  C   UNL     1       1.489  -3.091  -2.438  0.00  0.00    +0.006 A 
ATOM     15  C   UNL     1       1.985  -3.733  -1.319  0.00  0.00    -0.019 A 
ATOM     16  C   UNL     1       2.393  -2.996  -0.223  0.00  0.00    -0.045 A 
ATOM     17  C   UNL     1       2.308  -1.616  -0.248  0.00  0.00    +0.007 A 
ATOM     18  C   UNL     1       2.933  -3.695   0.997  0.00  0.00    +0.044 C 
ENDBRANCH   1  15
BRANCH   7  19
ATOM     19  C   UNL     1       4.908  -4.372  -1.991  0.00  0.00    +0.091 C 
ATOM     20  C   UNL     1       6.105  -3.919  -2.411  0.00  0.00    +0.241 C 
ATOM     21  O   UNL     1       6.541  -4.215  -3.660  0.00  0.00    -0.271 OA
BRANCH  20  22
ATOM     22  N   UNL     1       6.890  -3.152  -1.567  0.00  0.00    -0.295 N 
ATOM     23  C   UNL     1       8.341  -3.051  -1.781  0.00  0.00    +0.127 C 
ATOM     24  C   UNL     1       8.717  -1.569  -1.899  0.00  0.00    +0.126 C 
ATOM     25  N   UNL     1       8.115  -0.841  -0.774  0.00  0.00    -0.299 N 
ATOM     26  C   UNL     1       6.664  -0.941  -0.560  0.00  0.00    +0.126 C 
ATOM     27  C   UNL     1       6.287  -2.419  -0.445  0.00  0.00    +0.127 C 
ATOM     28  C   UNL     1       8.879  -0.094   0.047  0.00  0.00    +0.213 C 
ATOM     29  O   UNL     1      10.061   0.048  -0.186  0.00  0.00    -0.276 OA
ATOM     30  C   UNL     1       8.265   0.566   1.255  0.00  0.00    +0.109 C 
ENDBRANCH  20  22
ENDBRANCH   7  19
BRANCH   2  31
ATOM     31  C   UNL     1      -0.116  -5.441  -0.042  0.00  0.00    +0.339 C 
ATOM     32  O   UNL     1      -1.210  -5.960   0.105  0.00  0.00    -0.245 OA
BRANCH  31  33
ATOM     33  O   UNL     1       0.325  -4.529   0.853  0.00  0.00    -0.459 OA
BRANCH  33  34
ATOM     34  C   UNL     1      -0.489  -4.305   2.005  0.00  0.00    +0.260 C 
BRANCH  34  35
ATOM     35  C   UNL     1       0.102  -3.160   2.832  0.00  0.00    +0.200 C 
BRANCH  35  36
ATOM     36  O   UNL     1       0.019  -1.943   2.087  0.00  0.00    -0.380 OA
ATOM     37  C   UNL     1       0.546  -0.806   2.773  0.00  0.00    +0.194 C 
ENDBRANCH  35  36
ENDBRANCH  34  35
ENDBRANCH  33  34
ENDBRANCH  31  33
ENDBRANCH   2  31
TORSDOF 8
