REMARK  Name = ZINC07780204
REMARK  9 active torsions:
REMARK  status: ('A' for Active; 'I' for Inactive)
REMARK    1  A    between atoms: C_1  and  N_2
REMARK    2  A    between atoms: N_2  and  C_3
REMARK    3  A    between atoms: N_2  and  C_4
REMARK    4  A    between atoms: C_7  and  C_10
REMARK    5  A    between atoms: C_10  and  N_11
REMARK    6  A    between atoms: N_11  and  C_12
REMARK    7  A    between atoms: C_12  and  C_13
REMARK    8  A    between atoms: C_19  and  C_21
REMARK    9  A    between atoms: C_21  and  C_22
REMARK                            x       y       z     vdW  Elec       q    Type
REMARK                         _______ _______ _______ _____ _____    ______ ____
ROOT
ATOM      1  N   UNL     1      -0.124  -0.248  -0.171  0.00  0.00    -0.295 N 
ATOM      2  C   UNL     1      -1.172  -0.915  -0.693  0.00  0.00    +0.220 C 
ATOM      3  O   UNL     1      -2.110  -0.302  -1.159  0.00  0.00    -0.275 OA
ENDROOT
BRANCH   1   4
ATOM      4  C   UNL     1      -0.116   1.217  -0.167  0.00  0.00    +0.143 C 
BRANCH   4   8
ATOM      5  C   UNL     1       1.988   2.639  -3.605  0.00  0.00    +0.029 A 
ATOM      6  C   UNL     1       0.605   2.512  -3.639  0.00  0.00    +0.023 A 
ATOM      7  C   UNL     1      -0.071   2.052  -2.526  0.00  0.00    +0.007 A 
ATOM      8  C   UNL     1       0.626   1.719  -1.379  0.00  0.00    -0.030 A 
ATOM      9  C   UNL     1       2.002   1.849  -1.341  0.00  0.00    +0.007 A 
ATOM     10  C   UNL     1       2.686   2.303  -2.452  0.00  0.00    +0.023 A 
BRANCH   5  12
ATOM     11  C   UNL     1       1.932   3.569  -5.902  0.00  0.00    +0.129 C 
ATOM     12  N   UNL     1       2.676   3.103  -4.729  0.00  0.00    -0.336 N 
ATOM     13  C   UNL     1       4.141   3.124  -4.734  0.00  0.00    +0.129 C 
ENDBRANCH   5  12
ENDBRANCH   4   8
ENDBRANCH   1   4
BRANCH   1  14
ATOM     14  C   UNL     1       1.008  -0.988   0.392  0.00  0.00    +0.139 C 
BRANCH  14  15
ATOM     15  C   UNL     1       0.706  -1.351   1.848  0.00  0.00    +0.136 C 
ATOM     16  C   UNL     1       1.881  -2.159   2.455  0.00  0.00    +0.035 C 
ATOM     17  C   UNL     1       1.697  -1.855   3.967  0.00  0.00    +0.031 C 
ATOM     18  C   UNL     1       1.170  -0.404   3.947  0.00  0.00    +0.160 C 
ATOM     19  O   UNL     1       0.615  -0.162   2.649  0.00  0.00    -0.375 OA
ENDBRANCH  14  15
ENDBRANCH   1  14
BRANCH   2  20
ATOM     20  C   UNL     1      -1.181  -2.422  -0.696  0.00  0.00    +0.150 C 
BRANCH  20  21
ATOM     21  C   UNL     1      -2.475  -2.923  -1.340  0.00  0.00    +0.268 C 
ATOM     22  C   UNL     1      -2.539  -4.426  -1.234  0.00  0.00    +0.259 C 
ATOM     23  O   UNL     1      -3.102  -4.946  -0.294  0.00  0.00    -0.271 OA
ATOM     24  N   UNL     1      -1.968  -5.189  -2.188  0.00  0.00    -0.280 N 
ATOM     25  C   UNL     1      -1.426  -4.573  -3.325  0.00  0.00    +0.076 A 
ATOM     26  C   UNL     1      -0.648  -5.294  -4.216  0.00  0.00    +0.027 A 
ATOM     27  C   UNL     1      -0.115  -4.668  -5.327  0.00  0.00    +0.002 A 
ATOM     28  C   UNL     1      -0.363  -3.326  -5.555  0.00  0.00    +0.004 A 
ATOM     29  C   UNL     1      -1.152  -2.605  -4.678  0.00  0.00    +0.047 A 
ATOM     30  C   UNL     1      -1.694  -3.227  -3.566  0.00  0.00    +0.143 A 
ATOM     31  O   UNL     1      -2.502  -2.538  -2.716  0.00  0.00    -0.477 OA
ATOM     32  H   UNL     1      -1.932  -6.154  -2.089  0.00  0.00    +0.155 HD
ENDBRANCH  20  21
ENDBRANCH   2  20
TORSDOF 7
