REMARK  Name = ZINC31911645
REMARK  4 active torsions:
REMARK  status: ('A' for Active; 'I' for Inactive)
REMARK    1  A    between atoms: C_1  and  C_2
REMARK    2  A    between atoms: C_10  and  C_11
REMARK    3  A    between atoms: C_11  and  C_13
REMARK    4  A    between atoms: C_11  and  N_19
REMARK                            x       y       z     vdW  Elec       q    Type
REMARK                         _______ _______ _______ _____ _____    ______ ____
ROOT
ATOM      1  C   UNL     1       2.492   3.836  -0.464  0.00  0.00    +0.044 C 
ATOM      2  C   UNL     1       1.184   3.097  -0.344  0.00  0.00    -0.046 A 
ATOM      3  C   UNL     1       1.165   1.692  -0.349  0.00  0.00    +0.021 A 
ATOM      4  C   UNL     1      -0.004   1.027  -0.243  0.00  0.00    +0.093 A 
ATOM      5  N   UNL     1      -1.183   1.707  -0.134  0.00  0.00    -0.302 N 
ATOM      6  C   UNL     1      -1.196   3.077  -0.120  0.00  0.00    +0.138 A 
ATOM      7  C   UNL     1       0.017   3.786  -0.230  0.00  0.00    +0.050 A 
ATOM      8  N   UNL     1      -2.454   3.475   0.001  0.00  0.00    -0.236 NA
ATOM      9  C   UNL     1      -3.249   2.404   0.055  0.00  0.00    +0.136 A 
ATOM     10  C   UNL     1      -2.483   1.293  -0.020  0.00  0.00    +0.064 A 
ENDROOT
BRANCH  10  11
ATOM     11  C   UNL     1      -2.968  -0.133   0.016  0.00  0.00    +0.131 C 
BRANCH  11  12
ATOM     12  C   UNL     1      -3.126  -0.574   1.449  0.00  0.00    -0.022 A 
ATOM     13  C   UNL     1      -4.245  -0.213   2.183  0.00  0.00    +0.025 A 
ATOM     14  C   UNL     1      -4.356  -0.639   3.493  0.00  0.00    +0.111 A 
ATOM     15  N   UNL     1      -3.411  -1.372   4.047  0.00  0.00    -0.263 NA
ATOM     16  C   UNL     1      -2.331  -1.731   3.380  0.00  0.00    +0.111 A 
ATOM     17  C   UNL     1      -2.152  -1.345   2.065  0.00  0.00    +0.025 A 
ENDBRANCH  11  12
BRANCH  11  18
ATOM     18  N   UNL     1      -4.263  -0.227  -0.670  0.00  0.00    -0.319 NA
ATOM     19  H   UNL     1      -4.617  -1.268  -0.644  0.00  0.00    +0.119 HD
ATOM     20  H   UNL     1      -4.994   0.422  -0.165  0.00  0.00    +0.119 HD
ENDBRANCH  11  18
ENDBRANCH  10  11
TORSDOF 3
