REMARK  Name = ZINC16291071
REMARK  12 active torsions:
REMARK  status: ('A' for Active; 'I' for Inactive)
REMARK    1  A    between atoms: C_1  and  C_2
REMARK    2  A    between atoms: C_2  and  C_3
REMARK    3  A    between atoms: C_2  and  C_4
REMARK    4  A    between atoms: C_2  and  N_5
REMARK    5  A    between atoms: C_6  and  S_10
REMARK    6  A    between atoms: S_10  and  C_11
REMARK    7  A    between atoms: C_11  and  C_12
REMARK    8  A    between atoms: N_14  and  C_15
REMARK    9  A    between atoms: C_18  and  S_21
REMARK   10  A    between atoms: S_21  and  N_24
REMARK   11  A    between atoms: N_24  and  C_25
REMARK   12  A    between atoms: N_24  and  C_26
REMARK                            x       y       z     vdW  Elec       q    Type
REMARK                         _______ _______ _______ _____ _____    ______ ____
ROOT
ATOM      1  C   UNL     1       1.508   6.161   2.485  0.00  0.00    +0.034 A 
ATOM      2  C   UNL     1       0.221   5.848   2.899  0.00  0.00    +0.025 A 
ATOM      3  C   UNL     1      -0.193   4.530   2.928  0.00  0.00    +0.030 A 
ATOM      4  C   UNL     1       0.675   3.523   2.546  0.00  0.00    +0.106 A 
ATOM      5  C   UNL     1       1.960   3.832   2.138  0.00  0.00    +0.030 A 
ATOM      6  C   UNL     1       2.377   5.148   2.102  0.00  0.00    +0.025 A 
ENDROOT
BRANCH   1   9
ATOM      7  C   UNL     1       1.464   8.371   3.365  0.00  0.00    +0.227 C 
ATOM      8  O   UNL     1       0.755   7.984   4.271  0.00  0.00    -0.275 OA
ATOM      9  N   UNL     1       1.930   7.495   2.453  0.00  0.00    -0.285 N 
ATOM     10  H   UNL     1       2.557   7.790   1.774  0.00  0.00    +0.155 HD
BRANCH   7  11
ATOM     11  C   UNL     1       1.823   9.831   3.261  0.00  0.00    +0.173 C 
BRANCH  11  12
ATOM     12  S   UNL     1       1.051  10.741   4.622  0.00  0.00    -0.075 S 
BRANCH  12  14
ATOM     13  N   UNL     1       1.343  13.492   4.966  0.00  0.00    -0.215 N 
ATOM     14  C   UNL     1       1.621  12.369   4.263  0.00  0.00    +0.210 A 
ATOM     15  N   UNL     1       2.392  12.723   3.258  0.00  0.00    -0.101 NA
ATOM     16  N   UNL     1       2.619  13.987   3.289  0.00  0.00    -0.022 NA
ATOM     17  N   UNL     1       2.021  14.525   4.296  0.00  0.00    -0.043 NA
BRANCH  13  19
ATOM     18  C   UNL     1       1.109  12.739   7.281  0.00  0.00    +0.036 C 
ATOM     19  C   UNL     1       0.515  13.605   6.170  0.00  0.00    +0.060 C 
ATOM     20  C   UNL     1       0.476  15.065   6.626  0.00  0.00    +0.036 C 
ATOM     21  C   UNL     1      -0.906  13.131   5.858  0.00  0.00    +0.036 C 
ENDBRANCH  13  19
ENDBRANCH  12  14
ENDBRANCH  11  12
ENDBRANCH   7  11
ENDBRANCH   1   9
BRANCH   4  22
ATOM     22  S   UNL     1       0.144   1.844   2.585  0.00  0.00    +0.061 S 
ATOM     23  O   UNL     1      -0.918   1.775   3.527  0.00  0.00    -0.153 OA
ATOM     24  O   UNL     1       1.317   1.050   2.700  0.00  0.00    -0.153 OA
BRANCH  22  25
ATOM     25  N   UNL     1      -0.514   1.504   1.104  0.00  0.00    -0.177 NA
ATOM     26  C   UNL     1       0.333   0.984   0.028  0.00  0.00    +0.132 C 
BRANCH  25  27
ATOM     27  C   UNL     1      -1.944   1.723   0.870  0.00  0.00    +0.080 C 
ATOM     28  C   UNL     1      -2.606   0.399   0.485  0.00  0.00    +0.020 C 
ATOM     29  C   UNL     1      -4.099   0.627   0.241  0.00  0.00    +0.002 C 
ATOM     30  C   UNL     1      -4.282   1.637  -0.894  0.00  0.00    +0.000 C 
ATOM     31  C   UNL     1      -3.619   2.962  -0.509  0.00  0.00    +0.002 C 
ATOM     32  C   UNL     1      -2.126   2.733  -0.265  0.00  0.00    +0.020 C 
ENDBRANCH  25  27
ENDBRANCH  22  25
ENDBRANCH   4  22
TORSDOF 8
