REMARK  Name = ZINC08442112
REMARK  8 active torsions:
REMARK  status: ('A' for Active; 'I' for Inactive)
REMARK    1  A    between atoms: C_1  and  C_2
REMARK    2  A    between atoms: C_2  and  N_3
REMARK    3  A    between atoms: C_14  and  C_25
REMARK    4  A    between atoms: C_20  and  N_24
REMARK    5  A    between atoms: C_21  and  C_22
REMARK    6  A    between atoms: C_25  and  S_26
REMARK    7  A    between atoms: S_26  and  C_27
REMARK    8  A    between atoms: C_30  and  C_33
REMARK                            x       y       z     vdW  Elec       q    Type
REMARK                         _______ _______ _______ _____ _____    ______ ____
ROOT
ATOM      1  N   UNL     1       0.688  -0.476  -1.203  0.00  0.00    -0.270 N 
ATOM      2  C   UNL     1       0.052  -0.731  -2.405  0.00  0.00    +0.041 A 
ATOM      3  C   UNL     1      -1.299  -0.612  -2.737  0.00  0.00    +0.024 A 
ATOM      4  C   UNL     1      -1.665  -0.941  -4.033  0.00  0.00    +0.002 A 
ATOM      5  C   UNL     1      -0.744  -1.368  -4.967  0.00  0.00    +0.000 A 
ATOM      6  C   UNL     1       0.605  -1.490  -4.650  0.00  0.00    +0.007 A 
ATOM      7  C   UNL     1       0.977  -1.166  -3.363  0.00  0.00    -0.001 A 
ATOM      8  C   UNL     1       2.307  -1.179  -2.682  0.00  0.00    +0.145 C 
ATOM      9  C   UNL     1       2.016  -0.709  -1.274  0.00  0.00    +0.240 C 
ATOM     10  O   UNL     1       2.821  -0.570  -0.378  0.00  0.00    -0.274 OA
ATOM     11  C   UNL     1       2.899  -2.561  -2.666  0.00  0.00    +0.062 A 
ATOM     12  C   UNL     1       2.505  -3.661  -2.009  0.00  0.00    +0.055 A 
ATOM     13  N   UNL     1       3.364  -4.658  -2.324  0.00  0.00    -0.277 N 
ATOM     14  H   UNL     1       3.324  -5.569  -1.995  0.00  0.00    +0.189 HD
ATOM     15  N   UNL     1       4.323  -4.143  -3.210  0.00  0.00    -0.135 NA
ATOM     16  C   UNL     1       4.051  -2.888  -3.418  0.00  0.00    +0.245 A 
ATOM     17  O   UNL     1       4.686  -1.971  -4.195  0.00  0.00    -0.421 OA
ATOM     18  C   UNL     1       4.355  -0.674  -4.035  0.00  0.00    +0.201 C 
ATOM     19  C   UNL     1       3.274  -0.241  -3.350  0.00  0.00    +0.110 C 
ENDROOT
BRANCH  18  20
ATOM     20  N   UNL     1       5.171   0.270  -4.606  0.00  0.00    -0.328 N 
ATOM     21  H   UNL     1       5.956  -0.005  -5.105  0.00  0.00    +0.145 HD
ATOM     22  H   UNL     1       4.963   1.213  -4.511  0.00  0.00    +0.145 HD
ENDBRANCH  18  20
BRANCH   1  24
ATOM     23  C   UNL     1      -0.019   1.526   0.010  0.00  0.00    +0.025 C 
ATOM     24  C   UNL     1       0.002  -0.004   0.002  0.00  0.00    +0.110 C 
ENDBRANCH   1  24
BRANCH  19  25
ATOM     25  C   UNL     1       3.039   1.168  -3.256  0.00  0.00    +0.102 C 
ATOM     26  N   UNL     1       2.852   2.287  -3.182  0.00  0.00    -0.191 NA
ENDBRANCH  19  25
BRANCH  12  27
ATOM     27  C   UNL     1       1.319  -3.769  -1.085  0.00  0.00    +0.129 C 
BRANCH  27  28
ATOM     28  S   UNL     1      -0.148  -4.248  -2.039  0.00  0.00    -0.119 S 
BRANCH  28  29
ATOM     29  C   UNL     1      -1.431  -4.331  -0.835  0.00  0.00    +0.008 A 
ATOM     30  C   UNL     1      -1.156  -4.045   0.497  0.00  0.00    +0.015 A 
ATOM     31  C   UNL     1      -2.164  -4.110   1.438  0.00  0.00    +0.004 A 
ATOM     32  C   UNL     1      -3.447  -4.461   1.057  0.00  0.00    -0.050 A 
ATOM     33  C   UNL     1      -3.724  -4.747  -0.268  0.00  0.00    +0.004 A 
ATOM     34  C   UNL     1      -2.723  -4.677  -1.215  0.00  0.00    +0.015 A 
ATOM     35  C   UNL     1      -4.545  -4.531   2.087  0.00  0.00    +0.044 C 
ENDBRANCH  28  29
ENDBRANCH  27  28
ENDBRANCH  12  27
TORSDOF 6
