REMARK  Name = ZINC19321333
REMARK  5 active torsions:
REMARK  status: ('A' for Active; 'I' for Inactive)
REMARK    1  A    between atoms: C_4  and  C_7
REMARK    2  A    between atoms: C_7  and  C_18
REMARK    3  A    between atoms: N_8  and  N_9
REMARK    4  A    between atoms: C_10  and  C_11
REMARK    5  A    between atoms: C_15  and  O_17
REMARK                            x       y       z     vdW  Elec       q    Type
REMARK                         _______ _______ _______ _____ _____    ______ ____
ROOT
ATOM      1  C   UNL     1      -2.383   7.879   0.066  0.00  0.00    +0.077 C 
ATOM      2  N   UNL     1      -1.270   7.194   0.063  0.00  0.00    -0.153 NA
ENDROOT
BRANCH   1   3
ATOM      3  C   UNL     1      -3.709   7.163   0.061  0.00  0.00    +0.026 C 
ATOM      4  C   UNL     1      -4.511   7.537  -1.193  0.00  0.00    -0.059 C 
ATOM      5  N   UNL     1      -5.811   6.805  -1.126  0.00  0.00    +0.397 N 
ATOM      6  C   UNL     1      -5.573   5.353  -1.136  0.00  0.00    +0.011 C 
ATOM      7  N   UNL     1      -4.810   4.984   0.068  0.00  0.00    -0.305 NA
ATOM      8  C   UNL     1      -3.493   5.643   0.060  0.00  0.00    +0.096 C 
ATOM      9  C   UNL     1      -5.561   5.354   1.279  0.00  0.00    +0.167 C 
ATOM     10  N   UNL     1      -5.799   6.806   1.270  0.00  0.00    -0.305 NA
ATOM     11  C   UNL     1      -4.520   7.536   1.310  0.00  0.00    +0.096 C 
ATOM     12  C   UNL     1      -6.570   7.189   0.076  0.00  0.00    +0.011 C 
ATOM     13  H   UNL     1      -6.420   7.068  -2.004  0.00  0.00    -0.078 HD
ENDBRANCH   1   3
BRANCH   1  17
ATOM     14  C   UNL     1      -2.263  12.118   0.089  0.00  0.00    +0.000 A 
ATOM     15  C   UNL     1      -1.082  11.396   0.084  0.00  0.00    +0.001 A 
ATOM     16  C   UNL     1      -1.112  10.018   0.076  0.00  0.00    +0.010 A 
ATOM     17  C   UNL     1      -2.341   9.349   0.075  0.00  0.00    -0.001 A 
ATOM     18  C   UNL     1      -3.530  10.086   0.075  0.00  0.00    +0.010 A 
ATOM     19  C   UNL     1      -3.482  11.464   0.087  0.00  0.00    +0.001 A 
ENDBRANCH   1  17
BRANCH   2  20
ATOM     20  N   UNL     1      -1.303   5.910   0.183  0.00  0.00    -0.157 NA
ATOM     21  C   UNL     1      -0.189   5.224   0.180  0.00  0.00    +0.143 C 
BRANCH  21  22
ATOM     22  C   UNL     1      -0.227   3.760   0.318  0.00  0.00    -0.002 A 
ATOM     23  C   UNL     1      -1.452   3.098   0.451  0.00  0.00    +0.010 A 
ATOM     24  C   UNL     1      -1.483   1.725   0.573  0.00  0.00    +0.004 A 
ATOM     25  C   UNL     1      -0.305   1.000   0.575  0.00  0.00    +0.045 A 
ATOM     26  C   UNL     1       0.917   1.647   0.444  0.00  0.00    +0.117 A 
ATOM     27  C   UNL     1       0.962   3.024   0.315  0.00  0.00    +0.055 A 
BRANCH  26  28
ATOM     28  O   UNL     1       2.070   0.927   0.441  0.00  0.00    -0.507 OA
ATOM     29  H   UNL     1       3.038   1.439   0.337  0.00  0.00    +0.292 HD
ENDBRANCH  26  28
ENDBRANCH  21  22
ENDBRANCH   2  20
TORSDOF 5
