REMARK  Name = ZINC01373419
REMARK  5 active torsions:
REMARK  status: ('A' for Active; 'I' for Inactive)
REMARK    1  A    between atoms: C_5  and  N_7
REMARK    2  A    between atoms: C_8  and  C_10
REMARK    3  A    between atoms: C_10  and  S_11
REMARK    4  A    between atoms: S_11  and  C_12
REMARK    5  A    between atoms: C_21  and  C_24
REMARK                            x       y       z     vdW  Elec       q    Type
REMARK                         _______ _______ _______ _____ _____    ______ ____
ROOT
ATOM      1  C   UNL     1      -1.370  -6.656   0.437  0.00  0.00    +0.198 A 
ATOM      2  N   UNL     1      -0.230  -7.309   0.429  0.00  0.00    -0.122 NA
ATOM      3  N   UNL     1      -0.440  -8.575   0.528  0.00  0.00    -0.128 NA
ATOM      4  C   UNL     1      -1.728  -8.804   0.605  0.00  0.00    +0.173 A 
ATOM      5  N   UNL     1      -2.367  -7.584   0.555  0.00  0.00    -0.260 N 
ATOM      6  C   UNL     1      -3.728  -7.513   0.621  0.00  0.00    +0.208 A 
ATOM      7  N   UNL     1      -4.459  -8.584   0.735  0.00  0.00    -0.230 NA
ATOM      8  C   UNL     1      -3.933  -9.806   0.794  0.00  0.00    +0.114 A 
ATOM      9  C   UNL     1      -2.550 -10.026   0.730  0.00  0.00    +0.060 A 
ATOM     10  C   UNL     1      -2.139 -11.420   0.808  0.00  0.00    +0.002 A 
ATOM     11  C   UNL     1      -3.095 -12.376   0.921  0.00  0.00    +0.056 A 
ATOM     12  S   UNL     1      -4.611 -11.439   0.944  0.00  0.00    -0.076 S 
ENDROOT
BRANCH  10  13
ATOM     13  C   UNL     1      -0.704 -11.788   0.766  0.00  0.00    -0.017 A 
ATOM     14  C   UNL     1       0.121 -11.273  -0.233  0.00  0.00    +0.010 A 
ATOM     15  C   UNL     1       1.457 -11.618  -0.267  0.00  0.00    +0.020 A 
ATOM     16  C   UNL     1       1.978 -12.474   0.688  0.00  0.00    +0.041 A 
ATOM     17  C   UNL     1       1.163 -12.989   1.682  0.00  0.00    +0.020 A 
ATOM     18  C   UNL     1      -0.173 -12.645   1.729  0.00  0.00    +0.010 A 
ATOM     19 CL   UNL     1       3.659 -12.905   0.639  0.00  0.00    -0.084 Cl
ENDBRANCH  10  13
BRANCH   1  20
ATOM     20  S   UNL     1      -1.576  -4.910   0.325  0.00  0.00    -0.076 S 
BRANCH  20  21
ATOM     21  C   UNL     1       0.119  -4.276   0.191  0.00  0.00    +0.173 C 
BRANCH  21  23
ATOM     22  N   UNL     1       1.237  -2.080  -0.022  0.00  0.00    -0.284 N 
ATOM     23  C   UNL     1       0.086  -2.773   0.087  0.00  0.00    +0.228 C 
ATOM     24  O   UNL     1      -0.976  -2.187   0.102  0.00  0.00    -0.275 OA
ATOM     25  H   UNL     1       2.080  -2.551  -0.115  0.00  0.00    +0.155 HD
BRANCH  22  30
ATOM     26  C   UNL     1       0.153   1.372   0.637  0.00  0.00    +0.002 A 
ATOM     27  C   UNL     1       1.173   2.086   0.035  0.00  0.00    +0.001 A 
ATOM     28  C   UNL     1       2.214   1.421  -0.586  0.00  0.00    +0.017 A 
ATOM     29  C   UNL     1       2.239   0.040  -0.607  0.00  0.00    +0.039 A 
ATOM     30  C   UNL     1       1.216  -0.681  -0.003  0.00  0.00    +0.047 A 
ATOM     31  C   UNL     1       0.172  -0.009   0.620  0.00  0.00    +0.024 A 
ATOM     32 BR   UNL     1       3.662  -0.869  -1.458  0.00  0.00    -0.048 Br
ENDBRANCH  22  30
ENDBRANCH  21  23
ENDBRANCH  20  21
ENDBRANCH   1  20
TORSDOF 5
