REMARK  Name = ZINC63295968
REMARK  5 active torsions:
REMARK  status: ('A' for Active; 'I' for Inactive)
REMARK    1  A    between atoms: C_3  and  O_29
REMARK    2  A    between atoms: C_6  and  N_7
REMARK    3  A    between atoms: C_8  and  C_10
REMARK    4  A    between atoms: C_10  and  N_11
REMARK    5  A    between atoms: O_29  and  C_30
REMARK                            x       y       z     vdW  Elec       q    Type
REMARK                         _______ _______ _______ _____ _____    ______ ____
ROOT
ATOM      1  N   UNL     1      -2.198  -4.260  -0.306  0.00  0.00    -0.291 N 
ATOM      2  C   UNL     1      -3.212  -5.142  -0.417  0.00  0.00    +0.303 C 
ATOM      3  O   UNL     1      -4.356  -4.743  -0.519  0.00  0.00    -0.253 OA
ATOM      4  N   UNL     1      -2.957  -6.465  -0.414  0.00  0.00    -0.283 N 
ATOM      5  C   UNL     1      -1.568  -6.936  -0.401  0.00  0.00    +0.114 C 
ATOM      6  C   UNL     1      -1.321  -7.838  -1.625  0.00  0.00    +0.052 C 
ATOM      7  C   UNL     1      -2.496  -8.780  -1.712  0.00  0.00    -0.035 C 
ATOM      8  C   UNL     1      -2.555 -10.103  -1.806  0.00  0.00    +0.001 A 
ATOM      9  C   UNL     1      -1.506 -11.121  -1.970  0.00  0.00    +0.030 A 
ATOM     10  C   UNL     1      -1.925 -12.414  -2.012  0.00  0.00    +0.042 A 
ATOM     11  C   UNL     1      -3.269 -12.790  -1.908  0.00  0.00    +0.022 A 
ATOM     12  C   UNL     1      -4.300 -11.920  -1.763  0.00  0.00    +0.027 A 
ATOM     13  C   UNL     1      -3.985 -10.531  -1.715  0.00  0.00    +0.043 A 
ATOM     14  N   UNL     1      -4.763  -9.495  -1.608  0.00  0.00    -0.376 N 
ATOM     15  C   UNL     1      -3.939  -8.289  -1.680  0.00  0.00    +0.124 C 
ATOM     16  C   UNL     1      -4.075  -7.422  -0.418  0.00  0.00    +0.138 C 
ATOM     17 CL   UNL     1      -0.733 -13.662  -2.204  0.00  0.00    -0.084 Cl
ATOM     18  H   UNL     1      -1.281  -4.574  -0.297  0.00  0.00    +0.151 HD
ATOM     19  H   UNL     1      -5.727  -9.518  -1.499  0.00  0.00    +0.160 HD
ENDROOT
BRANCH   1  20
ATOM     20  C   UNL     1      -2.483  -2.827  -0.198  0.00  0.00    +0.202 C 
BRANCH  20  22
ATOM     21  N   UNL     1      -1.204  -0.722   0.023  0.00  0.00    -0.284 N 
ATOM     22  C   UNL     1      -1.188  -2.065  -0.087  0.00  0.00    +0.234 C 
ATOM     23  O   UNL     1      -0.131  -2.660  -0.096  0.00  0.00    -0.274 OA
ATOM     24  H   UNL     1      -2.048  -0.252   0.105  0.00  0.00    +0.155 HD
BRANCH  21  30
ATOM     25  C   UNL     1       1.074  -0.454  -0.736  0.00  0.00    +0.027 A 
ATOM     26  C   UNL     1       2.260   0.254  -0.740  0.00  0.00    +0.048 A 
ATOM     27  C   UNL     1       2.378   1.414   0.011  0.00  0.00    +0.130 A 
ATOM     28  C   UNL     1       1.305   1.864   0.766  0.00  0.00    +0.048 A 
ATOM     29  C   UNL     1       0.119   1.157   0.771  0.00  0.00    +0.027 A 
ATOM     30  C   UNL     1       0.000  -0.004   0.019  0.00  0.00    +0.034 A 
BRANCH  27  31
ATOM     31  O   UNL     1       3.546   2.110   0.007  0.00  0.00    -0.406 OA
BRANCH  31  32
ATOM     32  C   UNL     1       3.597   3.296   0.802  0.00  0.00    +0.575 C 
ATOM     33  F   UNL     1       3.358   2.970   2.142  0.00  0.00    -0.133 F 
ATOM     34  F   UNL     1       4.861   3.884   0.684  0.00  0.00    -0.133 F 
ATOM     35  F   UNL     1       2.621   4.196   0.361  0.00  0.00    -0.133 F 
ENDBRANCH  31  32
ENDBRANCH  27  31
ENDBRANCH  21  30
ENDBRANCH  20  22
ENDBRANCH   1  20
TORSDOF 5
