REMARK  Name = ZINC58612696
REMARK  5 active torsions:
REMARK  status: ('A' for Active; 'I' for Inactive)
REMARK    1  A    between atoms: C_1  and  C_2
REMARK    2  A    between atoms: C_4  and  C_7
REMARK    3  A    between atoms: C_7  and  N_12
REMARK    4  A    between atoms: C_13  and  C_15
REMARK    5  A    between atoms: C_20  and  N_21
REMARK                            x       y       z     vdW  Elec       q    Type
REMARK                         _______ _______ _______ _____ _____    ______ ____
ROOT
ATOM      1  N   UNL     1      -2.226  -2.372  -1.190  0.00  0.00    -0.299 N 
ATOM      2  C   UNL     1      -3.347  -1.641  -1.351  0.00  0.00    +0.247 C 
ATOM      3  O   UNL     1      -3.653  -0.807  -0.520  0.00  0.00    -0.270 OA
ATOM      4  H   UNL     1      -1.982  -3.037  -1.852  0.00  0.00    +0.150 HD
ENDROOT
BRANCH   2   5
ATOM      5  C   UNL     1      -4.204  -1.851  -2.537  0.00  0.00    +0.068 A 
ATOM      6  C   UNL     1      -3.658  -1.769  -3.819  0.00  0.00    +0.035 A 
ATOM      7  C   UNL     1      -4.464  -1.967  -4.922  0.00  0.00    +0.042 A 
ATOM      8  C   UNL     1      -5.810  -2.247  -4.758  0.00  0.00    +0.022 A 
ATOM      9  C   UNL     1      -6.356  -2.330  -3.490  0.00  0.00    +0.035 A 
ATOM     10  C   UNL     1      -5.560  -2.140  -2.379  0.00  0.00    +0.138 A 
ATOM     11 CL   UNL     1      -3.788  -1.864  -6.518  0.00  0.00    -0.084 Cl
BRANCH  10  12
ATOM     12  N   UNL     1      -6.145  -2.236  -1.023  0.00  0.00    +0.057 N 
ATOM     13  O   UNL     1      -7.339  -2.363  -0.887  0.00  0.00    -0.126 OA
ATOM     14  O   UNL     1      -5.428  -2.187  -0.051  0.00  0.00    -0.126 OA
ENDBRANCH  10  12
ENDBRANCH   2   5
BRANCH   1  15
ATOM     15  C   UNL     1      -1.377  -2.163  -0.014  0.00  0.00    +0.098 C 
ATOM     16  C   UNL     1      -2.164  -2.491   1.272  0.00  0.00    +0.034 C 
ATOM     17  C   UNL     1      -1.777  -3.957   1.590  0.00  0.00    +0.003 C 
ATOM     18  C   UNL     1      -0.276  -4.004   1.211  0.00  0.00    +0.003 C 
ATOM     19  C   UNL     1      -0.177  -3.125  -0.053  0.00  0.00    +0.034 C 
BRANCH  15  23
ATOM     20  C   UNL     1      -1.457   2.843   0.141  0.00  0.00    +0.112 C 
ATOM     21  C   UNL     1      -0.943   1.427   0.093  0.00  0.00    +0.224 A 
ATOM     22  N   UNL     1      -1.676   0.349   0.065  0.00  0.00    -0.194 NA
ATOM     23  C   UNL     1      -0.894  -0.736   0.026  0.00  0.00    +0.195 A 
ATOM     24  N   UNL     1       0.352  -0.359   0.028  0.00  0.00    -0.059 NA
ATOM     25  O   UNL     1       0.344   1.061   0.067  0.00  0.00    -0.338 OA
ENDBRANCH  15  23
ENDBRANCH   1  15
TORSDOF 4
