REMARK  Name = ZINC18222265
REMARK  3 active torsions:
REMARK  status: ('A' for Active; 'I' for Inactive)
REMARK    1  A    between atoms: C_1  and  C_2
REMARK    2  A    between atoms: C_7  and  C_8
REMARK    3  A    between atoms: C_13  and  C_22
REMARK                            x       y       z     vdW  Elec       q    Type
REMARK                         _______ _______ _______ _____ _____    ______ ____
ROOT
ATOM      1  C   UNL     1      -0.064   0.299   2.455  0.00  0.00    +0.032 C 
ATOM      2  C   UNL     1      -1.069  -0.249   3.471  0.00  0.00    +0.060 C 
ATOM      3  C   UNL     1      -0.822   0.382   4.817  0.00  0.00    +0.021 C 
ATOM      4  C   UNL     1       0.442   0.813   5.179  0.00  0.00    +0.055 C 
ATOM      5  C   UNL     1       0.663   1.477   6.467  0.00  0.00    +0.051 C 
ATOM      6  N   UNL     1       0.131   1.169   7.585  0.00  0.00    -0.250 NA
ATOM      7  C   UNL     1      -0.742   0.148   7.835  0.00  0.00    +0.085 A 
ATOM      8  C   UNL     1      -0.614  -0.591   9.012  0.00  0.00    +0.029 A 
ATOM      9  C   UNL     1      -1.515  -1.599   9.297  0.00  0.00    +0.002 A 
ATOM     10  C   UNL     1      -2.546  -1.880   8.422  0.00  0.00    +0.002 A 
ATOM     11  C   UNL     1      -2.673  -1.162   7.243  0.00  0.00    +0.025 A 
ATOM     12  C   UNL     1      -1.766  -0.163   6.937  0.00  0.00    +0.057 A 
ATOM     13  N   UNL     1      -1.853   0.492   5.697  0.00  0.00    -0.316 N 
ATOM     14  C   UNL     1       1.616   2.644   6.470  0.00  0.00    +0.066 C 
ATOM     15  C   UNL     1       1.541   0.627   4.308  0.00  0.00    +0.167 C 
ATOM     16  O   UNL     1       2.650   0.978   4.658  0.00  0.00    -0.292 OA
ATOM     17  C   UNL     1       1.354   0.002   2.952  0.00  0.00    +0.088 C 
ATOM     18  H   UNL     1      -2.637   1.016   5.471  0.00  0.00    +0.152 HD
ENDROOT
BRANCH   1  25
ATOM     19  C   UNL     1      -0.942   1.862   0.189  0.00  0.00    +0.044 C 
ATOM     20  C   UNL     1      -0.702   0.382   0.036  0.00  0.00    -0.047 A 
ATOM     21  C   UNL     1      -0.896  -0.227  -1.190  0.00  0.00    +0.003 A 
ATOM     22  C   UNL     1      -0.676  -1.584  -1.330  0.00  0.00    +0.000 A 
ATOM     23  C   UNL     1      -0.261  -2.333  -0.244  0.00  0.00    +0.000 A 
ATOM     24  C   UNL     1      -0.066  -1.724   0.981  0.00  0.00    +0.004 A 
ATOM     25  C   UNL     1      -0.282  -0.366   1.120  0.00  0.00    -0.041 A 
ENDBRANCH   1  25
TORSDOF 1
