REMARK  Name = ZINC08640532
REMARK  4 active torsions:
REMARK  status: ('A' for Active; 'I' for Inactive)
REMARK    1  A    between atoms: C_3  and  N_9
REMARK    2  A    between atoms: C_10  and  C_12
REMARK    3  A    between atoms: C_12  and  S_13
REMARK    4  A    between atoms: S_13  and  C_14
REMARK                            x       y       z     vdW  Elec       q    Type
REMARK                         _______ _______ _______ _____ _____    ______ ____
ROOT
ATOM      1  C   UNL     1       3.768   3.031  -0.056  0.00  0.00    +0.170 A 
ATOM      2  N   UNL     1       4.381   1.815  -0.077  0.00  0.00    -0.301 N 
ATOM      3  H   UNL     1       5.350   1.786  -0.085  0.00  0.00    +0.171 HD
ATOM      4  C   UNL     1       3.699   0.646  -0.086  0.00  0.00    +0.261 A 
ATOM      5  O   UNL     1       4.265  -0.434  -0.104  0.00  0.00    -0.267 OA
ATOM      6  C   UNL     1       2.270   0.755  -0.074  0.00  0.00    +0.075 A 
ATOM      7  C   UNL     1       1.315  -0.341  -0.081  0.00  0.00    -0.023 A 
ATOM      8  C   UNL     1       0.005  -0.005  -0.068  0.00  0.00    -0.004 A 
ATOM      9  S   UNL     1      -0.020   1.770  -0.045  0.00  0.00    -0.073 S 
ATOM     10  C   UNL     1       1.721   2.058  -0.054  0.00  0.00    +0.117 A 
ATOM     11  N   UNL     1       2.448   3.168  -0.044  0.00  0.00    -0.216 NA
ATOM     12  C   UNL     1      -1.171  -0.933  -0.073  0.00  0.00    +0.043 C 
ATOM     13  C   UNL     1      -0.683  -2.334  -0.469  0.00  0.00    +0.005 C 
ATOM     14  C   UNL     1       0.563  -2.670   0.357  0.00  0.00    +0.005 C 
ATOM     15  C   UNL     1       1.738  -1.808  -0.103  0.00  0.00    +0.037 C 
ENDROOT
BRANCH   1  16
ATOM     16  S   UNL     1       4.768   4.481  -0.044  0.00  0.00    -0.078 S 
BRANCH  16  17
ATOM     17  C   UNL     1       3.479   5.752  -0.018  0.00  0.00    +0.173 C 
BRANCH  17  19
ATOM     18  N   UNL     1       3.348   8.222   0.016  0.00  0.00    -0.284 N 
ATOM     19  C   UNL     1       4.118   7.116  -0.005  0.00  0.00    +0.228 C 
ATOM     20  O   UNL     1       5.327   7.220  -0.012  0.00  0.00    -0.275 OA
ATOM     21  H   UNL     1       2.383   8.141  -0.044  0.00  0.00    +0.155 HD
BRANCH  18  24
ATOM     22  C   UNL     1       5.748  10.981  -0.372  0.00  0.00    +0.022 A 
ATOM     23  C   UNL     1       5.166   9.733  -0.479  0.00  0.00    +0.026 A 
ATOM     24  C   UNL     1       3.940   9.486   0.123  0.00  0.00    +0.052 A 
ATOM     25  C   UNL     1       3.298  10.498   0.827  0.00  0.00    +0.064 A 
ATOM     26  C   UNL     1       3.887  11.743   0.936  0.00  0.00    +0.041 A 
ATOM     27  C   UNL     1       5.110  11.986   0.334  0.00  0.00    +0.042 A 
ATOM     28 CL   UNL     1       5.844  13.553   0.466  0.00  0.00    -0.083 Cl
ATOM     29 CL   UNL     1       1.761  10.196   1.576  0.00  0.00    -0.082 Cl
ENDBRANCH  18  24
ENDBRANCH  17  19
ENDBRANCH  16  17
ENDBRANCH   1  16
TORSDOF 4
