REMARK  Name = ZINC11553652
REMARK  6 active torsions:
REMARK  status: ('A' for Active; 'I' for Inactive)
REMARK    1  A    between atoms: C_1  and  C_2
REMARK    2  A    between atoms: C_5  and  N_8
REMARK    3  A    between atoms: C_9  and  C_33
REMARK    4  A    between atoms: C_10  and  C_24
REMARK    5  A    between atoms: C_11  and  C_16
REMARK    6  A    between atoms: C_29  and  C_32
REMARK                            x       y       z     vdW  Elec       q    Type
REMARK                         _______ _______ _______ _____ _____    ______ ____
ROOT
ATOM      1  N   UNL     1       1.453  -2.105   0.002  0.00  0.00    -0.255 N 
ATOM      2  C   UNL     1       2.596  -2.850  -0.070  0.00  0.00    +0.025 C 
ATOM      3  C   UNL     1       2.547  -4.197  -0.140  0.00  0.00    +0.057 C 
ATOM      4  C   UNL     1       1.181  -4.854  -0.136  0.00  0.00    +0.145 C 
ATOM      5  N   UNL     1       0.012  -3.962  -0.056  0.00  0.00    -0.315 N 
ATOM      6  C   UNL     1       0.222  -2.633   0.014  0.00  0.00    +0.142 C 
ATOM      7  S   UNL     1      -1.128  -1.585   0.115  0.00  0.00    -0.018 S 
ATOM      8  C   UNL     1       3.934  -2.156  -0.070  0.00  0.00    +0.062 C 
ATOM      9  H   UNL     1      -0.888  -4.324  -0.050  0.00  0.00    +0.149 HD
ENDROOT
BRANCH   3  10
ATOM     10  C   UNL     1       3.731  -4.971  -0.214  0.00  0.00    +0.249 C 
ATOM     11  O   UNL     1       4.096  -5.619   0.750  0.00  0.00    -0.270 OA
ATOM     12  N   UNL     1       4.453  -4.989  -1.352  0.00  0.00    -0.264 N 
ATOM     13  C   UNL     1       5.662  -5.681  -1.399  0.00  0.00    +0.168 A 
ATOM     14  C   UNL     1       6.268  -6.412  -0.342  0.00  0.00    +0.091 A 
ATOM     15  C   UNL     1       7.410  -6.888  -0.887  0.00  0.00    +0.136 A 
ATOM     16  O   UNL     1       7.439  -6.454  -2.155  0.00  0.00    -0.358 OA
ATOM     17  N   UNL     1       6.464  -5.793  -2.425  0.00  0.00    -0.063 NA
ATOM     18  C   UNL     1       8.448  -7.740  -0.203  0.00  0.00    +0.089 C 
ATOM     19  H   UNL     1       4.132  -4.521  -2.138  0.00  0.00    +0.157 HD
ENDBRANCH   3  10
BRANCH   4  20
ATOM     20  C   UNL     1       1.055  -5.671  -1.396  0.00  0.00    +0.048 A 
ATOM     21  C   UNL     1       0.810  -5.045  -2.606  0.00  0.00    +0.131 A 
ATOM     22  C   UNL     1       0.701  -5.796  -3.764  0.00  0.00    +0.039 A 
ATOM     23  C   UNL     1       0.824  -7.172  -3.710  0.00  0.00    +0.006 A 
ATOM     24  C   UNL     1       1.063  -7.798  -2.502  0.00  0.00    +0.039 A 
ATOM     25  C   UNL     1       1.179  -7.049  -1.343  0.00  0.00    +0.131 A 
ATOM     26  F   UNL     1       1.413  -7.662  -0.163  0.00  0.00    -0.205 F 
ATOM     27  F   UNL     1       0.683  -3.701  -2.658  0.00  0.00    -0.205 F 
ENDBRANCH   4  20
BRANCH   1  32
ATOM     28  C   UNL     1       1.946   3.541   0.291  0.00  0.00    +0.044 C 
ATOM     29  C   UNL     1       1.815   2.041   0.215  0.00  0.00    -0.050 A 
ATOM     30  C   UNL     1       1.324   1.450  -0.935  0.00  0.00    +0.005 A 
ATOM     31  C   UNL     1       1.203   0.076  -1.008  0.00  0.00    +0.024 A 
ATOM     32  C   UNL     1       1.575  -0.712   0.074  0.00  0.00    +0.040 A 
ATOM     33  C   UNL     1       2.067  -0.114   1.226  0.00  0.00    +0.024 A 
ATOM     34  C   UNL     1       2.186   1.260   1.294  0.00  0.00    +0.005 A 
ENDBRANCH   1  32
TORSDOF 3
