REMARK  Name = ZINC36601345
REMARK  13 active torsions:
REMARK  status: ('A' for Active; 'I' for Inactive)
REMARK    1  A    between atoms: C_1  and  C_2
REMARK    2  A    between atoms: C_5  and  C_7
REMARK    3  A    between atoms: C_7  and  N_8
REMARK    4  A    between atoms: N_8  and  C_9
REMARK    5  A    between atoms: C_9  and  C_11
REMARK    6  A    between atoms: C_9  and  C_21
REMARK    7  A    between atoms: C_14  and  C_17
REMARK    8  A    between atoms: N_23  and  C_24
REMARK    9  A    between atoms: C_24  and  C_25
REMARK   10  A    between atoms: C_24  and  C_26
REMARK   11  A    between atoms: C_24  and  C_27
REMARK   12  A    between atoms: C_28  and  C_30
REMARK   13  A    between atoms: C_34  and  N_36
REMARK                            x       y       z     vdW  Elec       q    Type
REMARK                         _______ _______ _______ _____ _____    ______ ____
ROOT
ATOM      1  N   UNL     1       2.899  -2.659  -1.384  0.00  0.00    -0.275 N 
ATOM      2  C   UNL     1       1.699  -2.157  -1.028  0.00  0.00    +0.248 C 
ATOM      3  O   UNL     1       1.432  -1.996   0.146  0.00  0.00    -0.270 OA
ENDROOT
BRANCH   2   4
ATOM      4  C   UNL     1       0.709  -1.803  -2.067  0.00  0.00    +0.039 A 
ATOM      5  C   UNL     1       0.842  -2.306  -3.362  0.00  0.00    +0.013 A 
ATOM      6  C   UNL     1      -0.086  -1.973  -4.327  0.00  0.00    +0.003 A 
ATOM      7  C   UNL     1      -1.147  -1.141  -4.013  0.00  0.00    +0.033 A 
ATOM      8  C   UNL     1      -1.284  -0.639  -2.731  0.00  0.00    +0.127 A 
ATOM      9  C   UNL     1      -0.366  -0.970  -1.756  0.00  0.00    +0.045 A 
BRANCH   8  10
ATOM     10  N   UNL     1      -2.421   0.250  -2.404  0.00  0.00    +0.056 N 
ATOM     11  O   UNL     1      -3.229   0.537  -3.257  0.00  0.00    -0.126 OA
ATOM     12  O   UNL     1      -2.542   0.690  -1.284  0.00  0.00    -0.126 OA
ENDBRANCH   8  10
ENDBRANCH   2   4
BRANCH   1  13
ATOM     13  C   UNL     1       3.806  -3.184  -0.360  0.00  0.00    +0.183 C 
BRANCH  13  18
ATOM     14  C   UNL     1       2.055  -7.781   0.755  0.00  0.00    +0.086 C 
ATOM     15  C   UNL     1       2.917  -6.683   0.187  0.00  0.00    +0.102 A 
ATOM     16  C   UNL     1       4.018  -6.858  -0.565  0.00  0.00    +0.045 A 
ATOM     17  C   UNL     1       4.509  -5.569  -0.878  0.00  0.00    +0.046 A 
ATOM     18  C   UNL     1       3.678  -4.684  -0.298  0.00  0.00    +0.122 A 
ATOM     19  O   UNL     1       2.712  -5.365   0.340  0.00  0.00    -0.463 OA
ENDBRANCH  13  18
ENDBRANCH   1  13
BRANCH   1  20
ATOM     20  C   UNL     1       3.296  -2.678  -2.794  0.00  0.00    +0.193 C 
BRANCH  20  21
ATOM     21  C   UNL     1       2.829  -1.411  -3.464  0.00  0.00    -0.018 A 
ATOM     22  C   UNL     1       2.396  -0.344  -2.700  0.00  0.00    +0.006 A 
ATOM     23  C   UNL     1       1.968   0.818  -3.316  0.00  0.00    +0.013 A 
ATOM     24  C   UNL     1       1.974   0.912  -4.695  0.00  0.00    +0.055 A 
ATOM     25  C   UNL     1       2.408  -0.155  -5.459  0.00  0.00    +0.013 A 
ATOM     26  C   UNL     1       2.840  -1.315  -4.843  0.00  0.00    +0.006 A 
BRANCH  24  27
ATOM     27  C   UNL     1       1.506   2.178  -5.365  0.00  0.00    +0.417 C 
ATOM     28  F   UNL     1       2.592   3.044  -5.535  0.00  0.00    -0.166 F 
ATOM     29  F   UNL     1       0.956   1.868  -6.614  0.00  0.00    -0.166 F 
ATOM     30  F   UNL     1       0.536   2.796  -4.569  0.00  0.00    -0.166 F 
ENDBRANCH  24  27
ENDBRANCH  20  21
BRANCH  20  31
ATOM     31  C   UNL     1       4.797  -2.775  -2.892  0.00  0.00    +0.239 C 
ATOM     32  O   UNL     1       5.415  -3.439  -2.087  0.00  0.00    -0.273 OA
ATOM     33  N   UNL     1       5.451  -2.123  -3.873  0.00  0.00    -0.309 N 
ATOM     34  H   UNL     1       4.964  -1.543  -4.479  0.00  0.00    +0.149 HD
BRANCH  33  35
ATOM     35  C   UNL     1       6.899  -2.290  -4.024  0.00  0.00    +0.026 C 
ATOM     36  C   UNL     1       7.215  -3.756  -4.326  0.00  0.00    +0.031 C 
ATOM     37  C   UNL     1       7.396  -1.414  -5.176  0.00  0.00    +0.031 C 
ATOM     38  C   UNL     1       7.598  -1.873  -2.729  0.00  0.00    +0.031 C 
ENDBRANCH  33  35
ENDBRANCH  20  31
ENDBRANCH   1  20
TORSDOF 9
