REMARK  Name = ZINC20116187
REMARK  13 active torsions:
REMARK  status: ('A' for Active; 'I' for Inactive)
REMARK    1  A    between atoms: C_1  and  C_2
REMARK    2  A    between atoms: C_2  and  N_3
REMARK    3  A    between atoms: N_3  and  C_4
REMARK    4  A    between atoms: N_3  and  C_6
REMARK    5  A    between atoms: C_4  and  C_5
REMARK    6  A    between atoms: C_6  and  C_7
REMARK    7  A    between atoms: C_7  and  N_8
REMARK    8  A    between atoms: C_9  and  C_11
REMARK    9  A    between atoms: C_11  and  C_13
REMARK   10  A    between atoms: C_11  and  N_24
REMARK   11  A    between atoms: C_13  and  C_14
REMARK   12  A    between atoms: C_25  and  C_27
REMARK   13  A    between atoms: C_30  and  C_33
REMARK                            x       y       z     vdW  Elec       q    Type
REMARK                         _______ _______ _______ _____ _____    ______ ____
ROOT
ATOM      1  C   UNL     1       4.589   1.376   3.020  0.00  0.00    +0.163 C 
ENDROOT
BRANCH   1   3
ATOM      2  N   UNL     1       6.557   2.167   1.747  0.00  0.00    -0.316 N 
ATOM      3  C   UNL     1       6.036   1.275   2.613  0.00  0.00    +0.234 C 
ATOM      4  O   UNL     1       6.732   0.390   3.063  0.00  0.00    -0.274 OA
ATOM      5  H   UNL     1       5.925   2.970   1.339  0.00  0.00    +0.149 HD
BRANCH   2   6
ATOM      6  C   UNL     1       7.963   2.069   1.351  0.00  0.00    +0.086 C 
BRANCH   6   7
ATOM      7  C   UNL     1       8.297   3.193   0.369  0.00  0.00    -0.060 C 
BRANCH   7   8
ATOM      8  N   UNL     1       9.708   3.095  -0.028  0.00  0.00    +0.380 N 
ATOM      9  H   UNL     1      10.314   3.041   0.888  0.00  0.00    -0.082 HD
BRANCH   8  11
ATOM     10  C   UNL     1       9.105   1.896  -2.077  0.00  0.00    -0.017 C 
ATOM     11  C   UNL     1       9.952   1.871  -0.803  0.00  0.00    -0.082 C 
ENDBRANCH   8  11
BRANCH   8  12
ATOM     12  C   UNL     1      10.128   4.285  -0.779  0.00  0.00    -0.082 C 
ATOM     13  C   UNL     1      11.656   4.340  -0.836  0.00  0.00    -0.017 C 
ENDBRANCH   8  12
ENDBRANCH   7   8
ENDBRANCH   6   7
ENDBRANCH   2   6
ENDBRANCH   1   3
BRANCH   1  14
ATOM     14  N   UNL     1       4.270   0.299   3.961  0.00  0.00    -0.300 N 
ATOM     15  C   UNL     1       3.253   0.446   4.834  0.00  0.00    +0.245 C 
ATOM     16  O   UNL     1       2.602   1.472   4.841  0.00  0.00    -0.270 OA
ATOM     17  H   UNL     1       4.859  -0.629   3.954  0.00  0.00    +0.150 HD
BRANCH  15  18
ATOM     18  C   UNL     1       2.931  -0.641   5.783  0.00  0.00    +0.037 A 
ATOM     19  C   UNL     1       3.674  -1.823   5.773  0.00  0.00    +0.013 A 
ATOM     20  C   UNL     1       3.372  -2.831   6.665  0.00  0.00    +0.005 A 
ATOM     21  C   UNL     1       2.328  -2.677   7.560  0.00  0.00    -0.041 A 
ATOM     22  C   UNL     1       1.584  -1.511   7.571  0.00  0.00    +0.005 A 
ATOM     23  C   UNL     1       1.879  -0.492   6.688  0.00  0.00    +0.013 A 
BRANCH  21  24
ATOM     24  C   UNL     1       1.999  -3.785   8.527  0.00  0.00    -0.003 C 
ATOM     25  C   UNL     1       0.563  -4.258   8.292  0.00  0.00    +0.015 C 
ATOM     26  C   UNL     1       0.229  -5.383   9.274  0.00  0.00    -0.010 C 
ATOM     27  C   UNL     1       1.193  -6.552   9.057  0.00  0.00    +0.007 C 
ATOM     28  C   UNL     1       2.629  -6.079   9.292  0.00  0.00    -0.010 C 
ATOM     29  C   UNL     1       2.963  -4.954   8.310  0.00  0.00    +0.015 C 
ATOM     30  C   UNL     1       2.768  -5.563  10.725  0.00  0.00    +0.007 C 
ATOM     31  C   UNL     1       1.804  -4.394  10.942  0.00  0.00    -0.010 C 
ATOM     32  C   UNL     1       0.368  -4.867  10.707  0.00  0.00    +0.007 C 
ATOM     33  C   UNL     1       2.138  -3.269   9.961  0.00  0.00    +0.015 C 
ENDBRANCH  21  24
ENDBRANCH  15  18
ENDBRANCH   1  14
BRANCH   1  34
ATOM     34  C   UNL     1       3.700   1.251   1.781  0.00  0.00    +0.069 C 
BRANCH  34  35
ATOM     35  C   UNL     1       2.261   1.475   2.170  0.00  0.00    -0.020 A 
ATOM     36  C   UNL     1       1.360   0.528   2.474  0.00  0.00    +0.087 A 
ATOM     37  N   UNL     1       0.158   1.108   2.776  0.00  0.00    -0.360 N 
ATOM     38  H   UNL     1      -0.702   0.479   3.051  0.00  0.00    +0.165 HD
ATOM     39  C   UNL     1       0.259   2.477   2.672  0.00  0.00    +0.047 A 
ATOM     40  C   UNL     1       1.581   2.767   2.288  0.00  0.00    +0.003 A 
ATOM     41  C   UNL     1       1.978   4.093   2.105  0.00  0.00    +0.010 A 
ATOM     42  C   UNL     1       1.079   5.103   2.300  0.00  0.00    +0.001 A 
ATOM     43  C   UNL     1      -0.226   4.822   2.679  0.00  0.00    +0.002 A 
ATOM     44  C   UNL     1      -0.638   3.521   2.870  0.00  0.00    +0.026 A 
ENDBRANCH  34  35
ENDBRANCH   1  34
TORSDOF 11
