REMARK  Name = ZINC36271725
REMARK  10 active torsions:
REMARK  status: ('A' for Active; 'I' for Inactive)
REMARK    1  A    between atoms: C_1  and  N_2
REMARK    2  A    between atoms: N_2  and  C_3
REMARK    3  A    between atoms: C_6  and  C_12
REMARK    4  A    between atoms: C_8  and  N_9
REMARK    5  A    between atoms: N_13  and  N_14
REMARK    6  A    between atoms: C_15  and  C_17
REMARK    7  A    between atoms: C_17  and  S_18
REMARK    8  A    between atoms: S_18  and  C_19
REMARK    9  A    between atoms: C_22  and  C_30
REMARK   10  A    between atoms: N_23  and  C_24
REMARK                            x       y       z     vdW  Elec       q    Type
REMARK                         _______ _______ _______ _____ _____    ______ ____
ROOT
ATOM      1  C   UNL     1      -9.631  -3.108   0.490  0.00  0.00    +0.174 C 
ENDROOT
BRANCH   1   3
ATOM      2  N   UNL     1      -7.167  -2.988   0.312  0.00  0.00    -0.206 N 
ATOM      3  C   UNL     1      -8.340  -2.334   0.423  0.00  0.00    +0.242 C 
ATOM      4  O   UNL     1      -8.357  -1.122   0.470  0.00  0.00    -0.273 OA
ATOM      5  H   UNL     1      -7.153  -3.957   0.274  0.00  0.00    +0.177 HD
BRANCH   2   7
ATOM      6  C   UNL     1      -4.837  -2.897   0.142  0.00  0.00    +0.138 C 
ATOM      7  N   UNL     1      -5.966  -2.267   0.250  0.00  0.00    -0.188 NA
BRANCH   6  11
ATOM      8  C   UNL     1      -1.200  -0.715  -0.044  0.00  0.00    +0.058 A 
ATOM      9  C   UNL     1      -2.410  -0.038   0.070  0.00  0.00    +0.026 A 
ATOM     10  C   UNL     1      -3.591  -0.743   0.131  0.00  0.00    +0.011 A 
ATOM     11  C   UNL     1      -3.574  -2.139   0.077  0.00  0.00    -0.003 A 
ATOM     12  C   UNL     1      -2.356  -2.816  -0.038  0.00  0.00    +0.044 A 
ATOM     13  C   UNL     1      -1.179  -2.104  -0.103  0.00  0.00    +0.147 A 
BRANCH   8  15
ATOM     14  C   UNL     1      -0.012   1.456   0.081  0.00  0.00    +0.125 C 
ATOM     15  N   UNL     1      -0.005   0.002  -0.105  0.00  0.00    -0.345 N 
ATOM     16  H   UNL     1       0.831  -0.461  -0.271  0.00  0.00    +0.146 HD
ENDBRANCH   8  15
BRANCH  13  17
ATOM     17  N   UNL     1       0.111  -2.819  -0.230  0.00  0.00    +0.058 N 
ATOM     18  O   UNL     1       0.186  -3.813  -0.914  0.00  0.00    -0.126 OA
ATOM     19  O   UNL     1       1.089  -2.409   0.349  0.00  0.00    -0.126 OA
ENDBRANCH  13  17
ENDBRANCH   6  11
ENDBRANCH   2   7
ENDBRANCH   1   3
BRANCH   1  20
ATOM     20  S   UNL     1     -11.022  -1.954   0.637  0.00  0.00    -0.076 S 
BRANCH  20  21
ATOM     21  C   UNL     1     -12.439  -2.999   0.702  0.00  0.00    +0.197 A 
ATOM     22  N   UNL     1     -12.441  -4.313   0.659  0.00  0.00    -0.122 NA
ATOM     23  N   UNL     1     -13.645  -4.756   0.730  0.00  0.00    -0.128 NA
ATOM     24  C   UNL     1     -14.488  -3.753   0.823  0.00  0.00    +0.169 A 
ATOM     25  N   UNL     1     -13.741  -2.596   0.814  0.00  0.00    -0.270 N 
BRANCH  25  26
ATOM     26  C   UNL     1     -14.216  -1.280   0.899  0.00  0.00    +0.051 A 
ATOM     27  C   UNL     1     -14.842  -0.840   2.057  0.00  0.00    +0.026 A 
ATOM     28  C   UNL     1     -15.310   0.458   2.138  0.00  0.00    +0.002 A 
ATOM     29  C   UNL     1     -15.155   1.318   1.066  0.00  0.00    +0.000 A 
ATOM     30  C   UNL     1     -14.532   0.882  -0.089  0.00  0.00    +0.002 A 
ATOM     31  C   UNL     1     -14.057  -0.412  -0.173  0.00  0.00    +0.026 A 
ENDBRANCH  25  26
BRANCH  24  32
ATOM     32  C   UNL     1     -15.960  -3.849   0.923  0.00  0.00    +0.020 A 
ATOM     33  C   UNL     1     -16.752  -2.723   0.697  0.00  0.00    +0.011 A 
ATOM     34  C   UNL     1     -18.125  -2.819   0.792  0.00  0.00    +0.001 A 
ATOM     35  C   UNL     1     -18.717  -4.028   1.111  0.00  0.00    +0.000 A 
ATOM     36  C   UNL     1     -17.937  -5.149   1.336  0.00  0.00    +0.001 A 
ATOM     37  C   UNL     1     -16.563  -5.068   1.238  0.00  0.00    +0.011 A 
ENDBRANCH  24  32
ENDBRANCH  20  21
ENDBRANCH   1  20
TORSDOF 9
