REMARK  Name = ZINC39542955
REMARK  11 active torsions:
REMARK  status: ('A' for Active; 'I' for Inactive)
REMARK    1  A    between atoms: C_1  and  C_2
REMARK    2  A    between atoms: C_5  and  C_33
REMARK    3  A    between atoms: C_6  and  N_8
REMARK    4  A    between atoms: C_9  and  C_11
REMARK    5  A    between atoms: C_11  and  N_12
REMARK    6  A    between atoms: N_12  and  C_13
REMARK    7  A    between atoms: C_14  and  C_16
REMARK    8  A    between atoms: C_16  and  N_17
REMARK    9  A    between atoms: C_22  and  C_29
REMARK   10  A    between atoms: C_25  and  C_27
REMARK   11  A    between atoms: C_25  and  C_28
REMARK                            x       y       z     vdW  Elec       q    Type
REMARK                         _______ _______ _______ _____ _____    ______ ____
ROOT
ATOM      1  N   UNL     1       0.311  -1.912   6.036  0.00  0.00    -0.294 N 
ATOM      2  C   UNL     1      -0.897  -1.449   6.723  0.00  0.00    +0.132 C 
ATOM      3  C   UNL     1       1.522  -1.471   6.432  0.00  0.00    +0.234 C 
ATOM      4  O   UNL     1       2.522  -1.854   5.864  0.00  0.00    -0.274 OA
ENDROOT
BRANCH   1   5
ATOM      5  C   UNL     1       0.204  -2.853   4.919  0.00  0.00    +0.203 C 
BRANCH   5   7
ATOM      6  N   UNL     1      -0.046  -2.751   2.460  0.00  0.00    -0.284 N 
ATOM      7  C   UNL     1       0.068  -2.088   3.628  0.00  0.00    +0.235 C 
ATOM      8  O   UNL     1       0.062  -0.875   3.640  0.00  0.00    -0.274 OA
ATOM      9  H   UNL     1      -0.123  -3.718   2.457  0.00  0.00    +0.155 HD
BRANCH   6  15
ATOM     10  C   UNL     1       1.187   1.258  -0.104  0.00  0.00    +0.044 C 
ATOM     11  C   UNL     1       0.538  -0.099  -0.019  0.00  0.00    -0.049 A 
ATOM     12  C   UNL     1      -0.064  -0.648  -1.136  0.00  0.00    +0.004 A 
ATOM     13  C   UNL     1      -0.660  -1.893  -1.062  0.00  0.00    +0.005 A 
ATOM     14  C   UNL     1      -0.656  -2.593   0.129  0.00  0.00    -0.029 A 
ATOM     15  C   UNL     1      -0.052  -2.045   1.252  0.00  0.00    +0.037 A 
ATOM     16  C   UNL     1       0.551  -0.796   1.173  0.00  0.00    +0.027 A 
ATOM     17  C   UNL     1      -1.306  -3.950   0.208  0.00  0.00    +0.045 C 
ENDBRANCH   6  15
ENDBRANCH   5   7
ENDBRANCH   1   5
BRANCH   3  18
ATOM     18  C   UNL     1       1.632  -0.502   7.581  0.00  0.00    +0.213 C 
BRANCH  18  19
ATOM     19  N   UNL     1       3.042  -0.179   7.814  0.00  0.00    -0.215 N 
ATOM     20  C   UNL     1       3.851  -0.870   8.644  0.00  0.00    +0.247 C 
ATOM     21  O   UNL     1       3.561  -1.838   9.313  0.00  0.00    -0.273 OA
ATOM     22  C   UNL     1       5.194  -0.182   8.563  0.00  0.00    +0.113 C 
ATOM     23  C   UNL     1       6.253  -1.143   8.034  0.00  0.00    +0.038 C 
ATOM     24  C   UNL     1       7.598  -0.418   7.931  0.00  0.00    -0.011 C 
ATOM     25  C   UNL     1       8.002   0.102   9.312  0.00  0.00    +0.009 C 
ATOM     26  C   UNL     1       6.942   1.082   9.819  0.00  0.00    -0.032 C 
ATOM     27  C   UNL     1       5.595   0.364   9.930  0.00  0.00    +0.041 C 
ATOM     28  C   UNL     1       6.818   2.252   8.840  0.00  0.00    +0.011 C 
ATOM     29  C   UNL     1       7.353   1.611  11.195  0.00  0.00    +0.011 C 
ATOM     30  C   UNL     1       8.663  -1.390   7.420  0.00  0.00    +0.007 C 
ATOM     31  N   UNL     1       4.976   0.917   7.614  0.00  0.00    -0.285 N 
ATOM     32  C   UNL     1       3.689   0.835   7.226  0.00  0.00    +0.310 C 
ATOM     33  O   UNL     1       3.171   1.597   6.433  0.00  0.00    -0.252 OA
ATOM     34  H   UNL     1       5.630   1.571   7.322  0.00  0.00    +0.151 HD
ENDBRANCH  18  19
ENDBRANCH   3  18
TORSDOF 5
