REMARK  Name = ZINC63588481
REMARK  10 active torsions:
REMARK  status: ('A' for Active; 'I' for Inactive)
REMARK    1  A    between atoms: C_1  and  O_2
REMARK    2  A    between atoms: O_2  and  C_3
REMARK    3  A    between atoms: C_6  and  N_11
REMARK    4  A    between atoms: C_8  and  O_9
REMARK    5  A    between atoms: O_9  and  C_10
REMARK    6  A    between atoms: N_13  and  C_14
REMARK    7  A    between atoms: C_14  and  C_15
REMARK    8  A    between atoms: C_15  and  C_16
REMARK    9  A    between atoms: N_25  and  C_26
REMARK   10  A    between atoms: C_26  and  C_28
REMARK                            x       y       z     vdW  Elec       q    Type
REMARK                         _______ _______ _______ _____ _____    ______ ____
ROOT
ATOM      1  N   UNL     1       2.095  -2.161  -4.530  0.00  0.00    -0.328 N 
ATOM      2  C   UNL     1       3.067  -1.619  -5.321  0.00  0.00    +0.194 C 
ATOM      3  N   UNL     1       3.808  -2.422  -6.137  0.00  0.00    -0.357 N 
ATOM      4  N   UNL     1       3.289  -0.314  -5.296  0.00  0.00    -0.143 NA
ATOM      5  H   UNL     1       3.584  -3.362  -6.227  0.00  0.00    +0.162 HD
ATOM      6  H   UNL     1       1.341  -1.620  -4.248  0.00  0.00    +0.169 HD
ENDROOT
BRANCH   1  10
ATOM      7  C   UNL     1       2.375  -6.146  -3.323  0.00  0.00    +0.162 A 
ATOM      8  C   UNL     1       3.507  -5.348  -3.350  0.00  0.00    +0.051 A 
ATOM      9  C   UNL     1       3.415  -4.028  -3.750  0.00  0.00    +0.029 A 
ATOM     10  C   UNL     1       2.187  -3.499  -4.125  0.00  0.00    +0.045 A 
ATOM     11  C   UNL     1       1.051  -4.296  -4.098  0.00  0.00    +0.075 A 
ATOM     12  C   UNL     1       1.144  -5.620  -3.703  0.00  0.00    +0.163 A 
BRANCH   7  14
ATOM     13  C   UNL     1       3.762  -7.918  -2.553  0.00  0.00    +0.277 C 
ATOM     14  O   UNL     1       2.467  -7.445  -2.929  0.00  0.00    -0.491 OA
ENDBRANCH   7  14
BRANCH  12  15
ATOM     15  O   UNL     1       0.033  -6.404  -3.681  0.00  0.00    -0.491 OA
ATOM     16  C   UNL     1      -1.197  -5.797  -4.084  0.00  0.00    +0.277 C 
ENDBRANCH  12  15
ENDBRANCH   1  10
BRANCH   4  17
ATOM     17  C   UNL     1       2.690   0.450  -4.373  0.00  0.00    +0.270 C 
ATOM     18  O   UNL     1       2.092  -0.069  -3.447  0.00  0.00    -0.268 OA
BRANCH  17  19
ATOM     19  C   UNL     1       2.756   1.925  -4.477  0.00  0.00    +0.039 A 
ATOM     20  C   UNL     1       3.337   2.523  -5.596  0.00  0.00    +0.014 A 
ATOM     21  C   UNL     1       3.395   3.898  -5.688  0.00  0.00    +0.021 A 
ATOM     22  C   UNL     1       2.878   4.685  -4.673  0.00  0.00    +0.041 A 
ATOM     23  C   UNL     1       2.300   4.097  -3.560  0.00  0.00    +0.021 A 
ATOM     24  C   UNL     1       2.232   2.723  -3.460  0.00  0.00    +0.014 A 
ATOM     25 CL   UNL     1       2.955   6.415  -4.795  0.00  0.00    -0.084 Cl
ENDBRANCH  17  19
ENDBRANCH   4  17
BRANCH   3  26
ATOM     26  C   UNL     1       4.943  -1.866  -6.878  0.00  0.00    +0.120 C 
BRANCH  26  27
ATOM     27  C   UNL     1       5.598  -2.969  -7.712  0.00  0.00    +0.054 C 
BRANCH  27  28
ATOM     28  C   UNL     1       6.765  -2.396  -8.474  0.00  0.00    -0.040 C 
ATOM     29  C   UNL     1       8.066  -2.411  -8.102  0.00  0.00    -0.001 A 
ATOM     30  C   UNL     1       8.756  -2.944  -6.921  0.00  0.00    +0.010 A 
ATOM     31  C   UNL     1      10.098  -2.804  -6.827  0.00  0.00    +0.001 A 
ATOM     32  C   UNL     1      10.844  -2.164  -7.826  0.00  0.00    +0.002 A 
ATOM     33  C   UNL     1      10.281  -1.649  -8.940  0.00  0.00    +0.026 A 
ATOM     34  C   UNL     1       8.877  -1.740  -9.143  0.00  0.00    +0.043 A 
ATOM     35  N   UNL     1       8.107  -1.327 -10.121  0.00  0.00    -0.380 N 
ATOM     36  C   UNL     1       6.721  -1.694  -9.813  0.00  0.00    +0.144 C 
ATOM     37  H   UNL     1       8.406  -0.860 -10.917  0.00  0.00    +0.160 HD
ENDBRANCH  27  28
ENDBRANCH  26  27
ENDBRANCH   3  26
TORSDOF 8
