REMARK  Name = ZINC39709348
REMARK  9 active torsions:
REMARK  status: ('A' for Active; 'I' for Inactive)
REMARK    1  A    between atoms: C_1  and  C_2
REMARK    2  A    between atoms: C_2  and  C_3
REMARK    3  A    between atoms: C_8  and  C_12
REMARK    4  A    between atoms: C_12  and  C_14
REMARK    5  A    between atoms: C_14  and  S_15
REMARK    6  A    between atoms: S_15  and  C_16
REMARK    7  A    between atoms: C_20  and  C_27
REMARK    8  A    between atoms: N_22  and  C_23
REMARK    9  A    between atoms: C_23  and  C_24
REMARK                            x       y       z     vdW  Elec       q    Type
REMARK                         _______ _______ _______ _____ _____    ______ ____
ROOT
ATOM      1  C   UNL     1       9.304  -2.056  -3.681  0.00  0.00    +0.078 C 
ATOM      2  N   UNL     1       9.631  -0.682  -3.239  0.00  0.00    -0.262 NA
ATOM      3  N   UNL     1       9.387  -0.694  -1.788  0.00  0.00    -0.267 NA
ATOM      4  C   UNL     1       9.861  -2.042  -1.379  0.00  0.00    +0.050 C 
ATOM      5  N   UNL     1       9.452  -2.927  -2.496  0.00  0.00    +0.417 N 
ATOM      6  H   UNL     1      10.594  -0.456  -3.441  0.00  0.00    +0.140 HD
ATOM      7  H   UNL     1       8.405  -0.579  -1.586  0.00  0.00    +0.139 HD
ATOM      8  H   UNL     1       8.572  -3.371  -2.281  0.00  0.00    -0.074 HD
ENDROOT
BRANCH   4   9
ATOM      9  C   UNL     1       9.197  -2.467  -0.095  0.00  0.00    -0.046 A 
ATOM     10  C   UNL     1       8.950  -3.806   0.145  0.00  0.00    +0.005 A 
ATOM     11  C   UNL     1       8.341  -4.197   1.322  0.00  0.00    +0.020 A 
ATOM     12  C   UNL     1       7.978  -3.248   2.261  0.00  0.00    +0.041 A 
ATOM     13  C   UNL     1       8.226  -1.908   2.021  0.00  0.00    +0.020 A 
ATOM     14  C   UNL     1       8.840  -1.519   0.846  0.00  0.00    +0.005 A 
ATOM     15 CL   UNL     1       7.213  -3.738   3.740  0.00  0.00    -0.084 Cl
ENDBRANCH   4   9
BRANCH   1  16
ATOM     16  S   UNL     1       7.598  -2.123  -4.292  0.00  0.00    -0.152 S 
BRANCH  16  17
ATOM     17  C   UNL     1       6.604  -1.554  -2.885  0.00  0.00    +0.148 C 
BRANCH  17  18
ATOM     18  C   UNL     1       5.146  -1.561  -3.264  0.00  0.00    +0.171 C 
ATOM     19  O   UNL     1       4.809  -1.916  -4.375  0.00  0.00    -0.291 OA
BRANCH  18  25
ATOM     20  C   UNL     1       0.707  -0.490  -1.238  0.00  0.00    -0.024 A 
ATOM     21  C   UNL     1       0.003  -0.812  -2.344  0.00  0.00    +0.005 A 
ATOM     22  C   UNL     1       0.628  -1.268  -3.517  0.00  0.00    +0.001 A 
ATOM     23  C   UNL     1       1.968  -1.413  -3.615  0.00  0.00    +0.010 A 
ATOM     24  C   UNL     1       2.802  -1.105  -2.514  0.00  0.00    +0.006 A 
ATOM     25  C   UNL     1       4.172  -1.156  -2.327  0.00  0.00    +0.024 C 
ATOM     26  C   UNL     1       4.406  -0.688  -0.908  0.00  0.00    +0.152 C 
ATOM     27  N   UNL     1       3.082  -0.386  -0.356  0.00  0.00    -0.380 N 
ATOM     28  C   UNL     1       2.174  -0.615  -1.262  0.00  0.00    +0.046 A 
ATOM     29  H   UNL     1       2.908  -0.062   0.542  0.00  0.00    +0.160 HD
BRANCH  20  31
ATOM     30  C   UNL     1      -0.019   1.526   0.010  0.00  0.00    +0.009 C 
ATOM     31  C   UNL     1       0.002  -0.004   0.002  0.00  0.00    +0.034 C 
ENDBRANCH  20  31
ENDBRANCH  18  25
ENDBRANCH  17  18
ENDBRANCH  16  17
ENDBRANCH   1  16
BRANCH   5  32
ATOM     32  C   UNL     1      10.485  -3.941  -2.741  0.00  0.00    +0.055 C 
BRANCH  32  33
ATOM     33  C   UNL     1      10.020  -4.881  -3.824  0.00  0.00    +0.340 C 
ATOM     34  O   UNL     1       8.928  -4.720  -4.343  0.00  0.00    -0.249 OA
ATOM     35  O   UNL     1      10.735  -5.802  -4.180  0.00  0.00    -0.249 OA
ENDBRANCH  32  33
ENDBRANCH   5  32
TORSDOF 8
