REMARK  Name = ZINC27020033
REMARK  8 active torsions:
REMARK  status: ('A' for Active; 'I' for Inactive)
REMARK    1  A    between atoms: C_1  and  C_2
REMARK    2  A    between atoms: C_5  and  C_8
REMARK    3  A    between atoms: C_9  and  C_10
REMARK    4  A    between atoms: C_22  and  C_24
REMARK    5  A    between atoms: C_24  and  C_25
REMARK    6  A    between atoms: N_27  and  C_28
REMARK    7  A    between atoms: C_31  and  C_35
REMARK    8  A    between atoms: C_32  and  C_34
REMARK                            x       y       z     vdW  Elec       q    Type
REMARK                         _______ _______ _______ _____ _____    ______ ____
ROOT
ATOM      1  C   UNL     1       5.061   2.494  -0.644  0.00  0.00    +0.244 C 
ATOM      2  O   UNL     1       5.257   1.470  -1.274  0.00  0.00    -0.270 OA
ATOM      3  N   UNL     1       3.843   2.743  -0.125  0.00  0.00    -0.254 N 
ATOM      4  C   UNL     1       2.755   1.901  -0.398  0.00  0.00    +0.059 A 
ATOM      5  C   UNL     1       2.939   0.555  -0.657  0.00  0.00    +0.025 A 
ATOM      6  C   UNL     1       1.845  -0.250  -0.917  0.00  0.00    +0.002 A 
ATOM      7  C   UNL     1       0.570   0.287  -0.916  0.00  0.00    +0.002 A 
ATOM      8  C   UNL     1       0.379   1.632  -0.658  0.00  0.00    +0.025 A 
ATOM      9  C   UNL     1       1.469   2.447  -0.399  0.00  0.00    +0.055 A 
ATOM     10  N   UNL     1       1.298   3.812  -0.147  0.00  0.00    -0.282 N 
ATOM     11  C   UNL     1       2.300   4.546   0.372  0.00  0.00    +0.239 C 
ATOM     12  O   UNL     1       2.145   5.737   0.542  0.00  0.00    -0.273 OA
ATOM     13  C   UNL     1       3.613   3.905   0.746  0.00  0.00    +0.176 C 
ATOM     14  H   UNL     1       0.337   4.297  -0.373  0.00  0.00    +0.155 HD
ENDROOT
BRANCH   1  16
ATOM     15  C   UNL     1       7.341   3.251  -1.048  0.00  0.00    +0.013 C 
ATOM     16  C   UNL     1       6.149   3.454  -0.452  0.00  0.00    +0.068 C 
BRANCH  15  21
ATOM     17  C   UNL     1      11.614   7.023  -0.294  0.00  0.00    +0.044 C 
ATOM     18  C   UNL     1      10.494   6.034  -0.491  0.00  0.00    -0.050 A 
ATOM     19  C   UNL     1      10.693   4.919  -1.286  0.00  0.00    +0.004 A 
ATOM     20  C   UNL     1       9.673   4.009  -1.472  0.00  0.00    +0.008 A 
ATOM     21  C   UNL     1       8.435   4.216  -0.855  0.00  0.00    -0.025 A 
ATOM     22  C   UNL     1       8.240   5.349  -0.058  0.00  0.00    +0.008 A 
ATOM     23  C   UNL     1       9.271   6.247   0.122  0.00  0.00    +0.004 A 
ENDBRANCH  15  21
ENDBRANCH   1  16
BRANCH  13  24
ATOM     24  C   UNL     1       3.563   3.450   2.205  0.00  0.00    +0.128 C 
BRANCH  24  25
ATOM     25  C   UNL     1       4.920   2.940   2.619  0.00  0.00    +0.219 C 
ATOM     26  O   UNL     1       5.813   2.862   1.802  0.00  0.00    -0.275 OA
ATOM     27  N   UNL     1       5.140   2.570   3.896  0.00  0.00    -0.285 N 
ATOM     28  H   UNL     1       4.311   2.569   4.619  0.00  0.00    +0.155 HD
BRANCH  27  29
ATOM     29  C   UNL     1       6.423   2.189   4.303  0.00  0.00    +0.034 A 
ATOM     30  C   UNL     1       7.249   1.489   3.433  0.00  0.00    +0.023 A 
ATOM     31  C   UNL     1       8.518   1.119   3.835  0.00  0.00    +0.005 A 
ATOM     32  C   UNL     1       8.961   1.435   5.106  0.00  0.00    -0.047 A 
ATOM     33  C   UNL     1       8.139   2.126   5.976  0.00  0.00    -0.046 A 
ATOM     34  C   UNL     1       6.872   2.504   5.578  0.00  0.00    +0.027 A 
ATOM     35  C   UNL     1       8.627   2.468   7.361  0.00  0.00    +0.044 C 
ATOM     36  C   UNL     1      10.344   1.024   5.544  0.00  0.00    +0.044 C 
ENDBRANCH  27  29
ENDBRANCH  24  25
ENDBRANCH  13  24
TORSDOF 5
