REMARK  Name = ZINC38604358
REMARK  8 active torsions:
REMARK  status: ('A' for Active; 'I' for Inactive)
REMARK    1  A    between atoms: C_1  and  C_2
REMARK    2  A    between atoms: C_3  and  C_14
REMARK    3  A    between atoms: C_4  and  C_7
REMARK    4  A    between atoms: N_16  and  C_17
REMARK    5  A    between atoms: C_17  and  C_18
REMARK    6  A    between atoms: C_18  and  C_20
REMARK    7  A    between atoms: C_18  and  N_25
REMARK    8  A    between atoms: N_28  and  C_31
REMARK                            x       y       z     vdW  Elec       q    Type
REMARK                         _______ _______ _______ _____ _____    ______ ____
ROOT
ATOM      1  C   UNL     1      -4.998   0.451   2.476  0.00  0.00    +0.017 C 
ENDROOT
BRANCH   1   2
ATOM      2  N   UNL     1      -4.867  -0.636   3.456  0.00  0.00    +0.389 N 
ATOM      3  C   UNL     1      -5.744  -1.749   3.070  0.00  0.00    -0.059 C 
ATOM      4  C   UNL     1      -5.524  -2.927   4.025  0.00  0.00    +0.086 C 
ATOM      5  N   UNL     1      -5.718  -2.451   5.404  0.00  0.00    -0.333 N 
ATOM      6  C   UNL     1      -5.000  -1.239   5.827  0.00  0.00    +0.086 C 
ATOM      7  C   UNL     1      -5.244  -0.141   4.786  0.00  0.00    -0.059 C 
ATOM      8  H   UNL     1      -3.911  -0.956   3.476  0.00  0.00    -0.081 HD
BRANCH   5   9
ATOM      9  C   UNL     1      -6.561  -3.132   6.287  0.00  0.00    +0.030 A 
ATOM     10  C   UNL     1      -7.134  -4.340   5.910  0.00  0.00    +0.026 A 
ATOM     11  C   UNL     1      -7.966  -5.012   6.784  0.00  0.00    +0.040 A 
ATOM     12  C   UNL     1      -8.230  -4.481   8.036  0.00  0.00    +0.124 A 
ATOM     13  C   UNL     1      -7.661  -3.277   8.413  0.00  0.00    +0.040 A 
ATOM     14  C   UNL     1      -6.824  -2.605   7.544  0.00  0.00    +0.026 A 
ATOM     15  F   UNL     1      -9.045  -5.139   8.889  0.00  0.00    -0.205 F 
ENDBRANCH   5   9
ENDBRANCH   1   2
BRANCH   1  16
ATOM     16  C   UNL     1      -6.403   0.995   2.514  0.00  0.00    +0.093 A 
ATOM     17  C   UNL     1      -6.741   2.294   2.597  0.00  0.00    +0.043 A 
ATOM     18  C   UNL     1      -8.153   2.350   2.604  0.00  0.00    +0.041 A 
ATOM     19  C   UNL     1      -8.594   1.082   2.525  0.00  0.00    +0.195 A 
ATOM     20  O   UNL     1      -7.529   0.266   2.465  0.00  0.00    -0.469 OA
ENDBRANCH   1  16
BRANCH   1  21
ATOM     21  C   UNL     1      -4.697  -0.087   1.076  0.00  0.00    +0.097 C 
BRANCH  21  24
ATOM     22  C   UNL     1      -2.884  -1.241  -0.072  0.00  0.00    +0.250 C 
ATOM     23  O   UNL     1      -3.570  -1.257  -1.077  0.00  0.00    -0.270 OA
ATOM     24  N   UNL     1      -3.357  -0.678   1.057  0.00  0.00    -0.312 N 
ATOM     25  H   UNL     1      -2.810  -0.665   1.858  0.00  0.00    +0.149 HD
BRANCH  22  28
ATOM     26  C   UNL     1      -0.234   0.248  -0.798  0.00  0.00    +0.090 C 
ATOM     27  C   UNL     1      -0.371  -1.200  -0.405  0.00  0.00    +0.147 A 
ATOM     28  C   UNL     1      -1.537  -1.836  -0.091  0.00  0.00    +0.106 A 
ATOM     29  C   UNL     1      -1.189  -3.229   0.226  0.00  0.00    +0.127 A 
ATOM     30  N   UNL     1       0.109  -3.337   0.088  0.00  0.00    -0.077 NA
ATOM     31  O   UNL     1       0.626  -2.083  -0.309  0.00  0.00    -0.359 OA
BRANCH  29  32
ATOM     32  C   UNL     1      -2.128  -4.305   0.624  0.00  0.00    +0.023 A 
ATOM     33  C   UNL     1      -3.493  -4.042   0.724  0.00  0.00    +0.011 A 
ATOM     34  C   UNL     1      -4.362  -5.047   1.096  0.00  0.00    +0.001 A 
ATOM     35  C   UNL     1      -3.881  -6.315   1.369  0.00  0.00    +0.001 A 
ATOM     36  C   UNL     1      -2.529  -6.584   1.272  0.00  0.00    +0.020 A 
ATOM     37  C   UNL     1      -1.649  -5.587   0.895  0.00  0.00    +0.050 A 
ATOM     38 CL   UNL     1       0.048  -5.927   0.767  0.00  0.00    -0.083 Cl
ENDBRANCH  29  32
ENDBRANCH  22  28
ENDBRANCH  21  24
ENDBRANCH   1  21
TORSDOF 7
