REMARK  Name = ZINC36312894
REMARK  13 active torsions:
REMARK  status: ('A' for Active; 'I' for Inactive)
REMARK    1  A    between atoms: C_1  and  C_2
REMARK    2  A    between atoms: N_8  and  C_9
REMARK    3  A    between atoms: C_10  and  C_20
REMARK    4  A    between atoms: C_11  and  C_14
REMARK    5  A    between atoms: C_20  and  N_21
REMARK    6  A    between atoms: N_21  and  C_22
REMARK    7  A    between atoms: C_22  and  C_23
REMARK    8  A    between atoms: C_23  and  N_24
REMARK    9  A    between atoms: N_24  and  C_25
REMARK   10  A    between atoms: N_24  and  C_26
REMARK   11  A    between atoms: N_29  and  C_30
REMARK   12  A    between atoms: C_30  and  C_31
REMARK   13  A    between atoms: C_30  and  C_32
REMARK                            x       y       z     vdW  Elec       q    Type
REMARK                         _______ _______ _______ _____ _____    ______ ____
ROOT
ATOM      1  C   UNL     1       2.264  -0.232   2.267  0.00  0.00    +0.226 A 
ATOM      2  C   UNL     1       2.197  -0.246   3.622  0.00  0.00    +0.059 A 
ATOM      3  C   UNL     1       0.994   0.383   4.005  0.00  0.00    +0.120 A 
ATOM      4  N   UNL     1       0.368   0.757   2.913  0.00  0.00    -0.076 NA
ATOM      5  O   UNL     1       1.161   0.380   1.803  0.00  0.00    -0.339 OA
ENDROOT
BRANCH   1  12
ATOM      6  C   UNL     1       1.814  -2.691   1.240  0.00  0.00    +0.028 C 
ATOM      7  C   UNL     1       3.202  -2.113   0.955  0.00  0.00    +0.073 C 
ATOM      8  C   UNL     1       3.435  -2.060  -0.558  0.00  0.00    +0.022 C 
ATOM      9  C   UNL     1       4.763  -1.355  -0.841  0.00  0.00    +0.003 C 
ATOM     10  C   UNL     1       4.705   0.080  -0.311  0.00  0.00    +0.019 C 
ATOM     11  C   UNL     1       4.486   0.050   1.205  0.00  0.00    +0.108 C 
ATOM     12  N   UNL     1       3.289  -0.751   1.498  0.00  0.00    -0.296 N 
ENDBRANCH   1  12
BRANCH   3  13
ATOM     13  C   UNL     1       0.520   0.586   5.397  0.00  0.00    +0.004 A 
ATOM     14  C   UNL     1       0.311  -0.510   6.231  0.00  0.00    +0.010 A 
ATOM     15  C   UNL     1      -0.130  -0.316   7.525  0.00  0.00    +0.001 A 
ATOM     16  C   UNL     1      -0.365   0.964   7.993  0.00  0.00    +0.000 A 
ATOM     17  C   UNL     1      -0.159   2.056   7.169  0.00  0.00    +0.001 A 
ATOM     18  C   UNL     1       0.287   1.873   5.876  0.00  0.00    +0.010 A 
ENDBRANCH   3  13
BRANCH   2  19
ATOM     19  C   UNL     1       3.228  -0.830   4.554  0.00  0.00    +0.151 C 
BRANCH  19  20
ATOM     20  N   UNL     1       3.770  -2.060   3.973  0.00  0.00    -0.283 N 
ATOM     21  C   UNL     1       3.053  -3.200   4.018  0.00  0.00    +0.303 C 
ATOM     22  O   UNL     1       3.488  -4.213   3.506  0.00  0.00    -0.253 OA
ATOM     23  N   UNL     1       1.853  -3.217   4.631  0.00  0.00    -0.297 N 
ATOM     24  H   UNL     1       1.448  -2.387   4.928  0.00  0.00    +0.150 HD
BRANCH  23  25
ATOM     25  C   UNL     1       1.160  -4.489   4.850  0.00  0.00    +0.068 C 
ATOM     26  C   UNL     1       1.772  -5.203   6.057  0.00  0.00    +0.027 C 
ATOM     27  C   UNL     1      -0.324  -4.223   5.113  0.00  0.00    +0.027 C 
ENDBRANCH  23  25
BRANCH  20  28
ATOM     28  C   UNL     1       5.092  -2.051   3.341  0.00  0.00    +0.091 C 
BRANCH  28  29
ATOM     29  C   UNL     1       6.144  -2.506   4.355  0.00  0.00    -0.060 C 
BRANCH  29  30
ATOM     30  N   UNL     1       7.470  -2.497   3.722  0.00  0.00    +0.377 N 
ATOM     31  C   UNL     1       8.494  -2.818   4.726  0.00  0.00    -0.097 C 
ATOM     32  C   UNL     1       7.506  -3.499   2.648  0.00  0.00    -0.097 C 
ATOM     33  H   UNL     1       7.652  -1.583   3.336  0.00  0.00    -0.083 HD
ENDBRANCH  29  30
ENDBRANCH  28  29
ENDBRANCH  20  28
ENDBRANCH  19  20
ENDBRANCH   2  19
TORSDOF 8
