REMARK  Name = ZINC33863539
REMARK  6 active torsions:
REMARK  status: ('A' for Active; 'I' for Inactive)
REMARK    1  A    between atoms: C_1  and  C_2
REMARK    2  A    between atoms: C_2  and  C_4
REMARK    3  A    between atoms: C_2  and  N_7
REMARK    4  A    between atoms: C_8  and  C_26
REMARK    5  A    between atoms: N_17  and  C_20
REMARK    6  A    between atoms: C_29  and  C_31
REMARK                            x       y       z     vdW  Elec       q    Type
REMARK                         _______ _______ _______ _____ _____    ______ ____
ROOT
ATOM      1  N   UNL     1       1.099  -0.527   0.827  0.00  0.00    -0.164 NA
ATOM      2  C   UNL     1       1.218  -2.012   0.682  0.00  0.00    +0.166 C 
ATOM      3  C   UNL     1       2.687  -2.221   0.342  0.00  0.00    +0.142 C 
ATOM      4  C   UNL     1       2.926  -0.874  -0.442  0.00  0.00    +0.242 C 
ATOM      5  O   UNL     1       2.410   0.064   0.413  0.00  0.00    -0.282 OA
ATOM      6  C   UNL     1       4.157  -1.175  -1.151  0.00  0.00    +0.258 C 
ATOM      7  O   UNL     1       5.052  -0.406  -1.430  0.00  0.00    -0.272 OA
ATOM      8  N   UNL     1       4.090  -2.513  -1.440  0.00  0.00    -0.208 N 
ATOM      9  C   UNL     1       3.099  -3.166  -0.743  0.00  0.00    +0.234 C 
ATOM     10  O   UNL     1       2.646  -4.269  -0.960  0.00  0.00    -0.274 OA
ENDROOT
BRANCH   8  11
ATOM     11  C   UNL     1       4.949  -3.156  -2.343  0.00  0.00    +0.044 A 
ATOM     12  C   UNL     1       4.811  -4.516  -2.585  0.00  0.00    +0.024 A 
ATOM     13  C   UNL     1       5.659  -5.146  -3.475  0.00  0.00    +0.002 A 
ATOM     14  C   UNL     1       6.643  -4.424  -4.125  0.00  0.00    +0.000 A 
ATOM     15  C   UNL     1       6.782  -3.070  -3.886  0.00  0.00    +0.002 A 
ATOM     16  C   UNL     1       5.934  -2.432  -3.001  0.00  0.00    +0.024 A 
ENDBRANCH   8  11
BRANCH   2  17
ATOM     17  C   UNL     1       0.867  -2.701   1.975  0.00  0.00    +0.126 A 
ATOM     18  C   UNL     1       0.183  -3.857   2.089  0.00  0.00    +0.047 A 
ATOM     19  C   UNL     1       0.078  -4.140   3.466  0.00  0.00    +0.050 A 
ATOM     20  C   UNL     1       0.710  -3.131   4.122  0.00  0.00    +0.135 A 
ATOM     21  O   UNL     1       1.188  -2.268   3.205  0.00  0.00    -0.458 OA
BRANCH  20  22
ATOM     22  C   UNL     1       0.852  -3.005   5.588  0.00  0.00    +0.017 A 
ATOM     23  C   UNL     1       0.316  -3.981   6.430  0.00  0.00    +0.012 A 
ATOM     24  C   UNL     1       0.452  -3.858   7.798  0.00  0.00    +0.016 A 
ATOM     25  C   UNL     1       1.118  -2.770   8.335  0.00  0.00    +0.018 A 
ATOM     26  C   UNL     1       1.652  -1.799   7.505  0.00  0.00    +0.016 A 
ATOM     27  C   UNL     1       1.528  -1.914   6.136  0.00  0.00    +0.012 A 
ATOM     28 BR   UNL     1       1.298  -2.609  10.210  0.00  0.00    -0.050 Br
ENDBRANCH  20  22
ENDBRANCH   2  17
BRANCH   1  30
ATOM     29  C   UNL     1      -1.326  -0.581   0.495  0.00  0.00    +0.036 C 
ATOM     30  C   UNL     1       0.002  -0.004   0.002  0.00  0.00    +0.167 C 
BRANCH  30  31
ATOM     31  C   UNL     1      -0.033   1.499   0.108  0.00  0.00    +0.230 C 
ATOM     32  O   UNL     1       0.411   2.048   1.094  0.00  0.00    -0.274 OA
ATOM     33  N   UNL     1      -0.558   2.233  -0.894  0.00  0.00    -0.328 N 
ATOM     34  H   UNL     1      -0.913   1.793  -1.682  0.00  0.00    +0.145 HD
ATOM     35  H   UNL     1      -0.580   3.200  -0.826  0.00  0.00    +0.145 HD
ENDBRANCH  30  31
ENDBRANCH   1  30
TORSDOF 5
