REMARK  Name = ZINC56421968
REMARK  7 active torsions:
REMARK  status: ('A' for Active; 'I' for Inactive)
REMARK    1  A    between atoms: C_1  and  C_2
REMARK    2  A    between atoms: C_2  and  C_4
REMARK    3  A    between atoms: C_2  and  N_15
REMARK    4  A    between atoms: N_6  and  N_7
REMARK    5  A    between atoms: N_7  and  C_8
REMARK    6  A    between atoms: N_15  and  S_16
REMARK    7  A    between atoms: S_16  and  C_19
REMARK                            x       y       z     vdW  Elec       q    Type
REMARK                         _______ _______ _______ _____ _____    ______ ____
ROOT
ATOM      1  C   UNL     1       0.707  -0.490  -1.238  0.00  0.00    +0.247 C 
ATOM      2  O   UNL     1       1.704  -1.174  -1.140  0.00  0.00    -0.273 OA
ATOM      3  N   UNL     1       0.231  -0.164  -2.456  0.00  0.00    -0.235 N 
ATOM      4  H   UNL     1      -0.566   0.383  -2.534  0.00  0.00    +0.173 HD
ENDROOT
BRANCH   1   6
ATOM      5  C   UNL     1      -0.019   1.526   0.010  0.00  0.00    +0.035 C 
ATOM      6  C   UNL     1       0.002  -0.004   0.002  0.00  0.00    +0.160 C 
BRANCH   6   7
ATOM      7  N   UNL     1       0.711  -0.489   1.189  0.00  0.00    -0.178 NA
ATOM      8  H   UNL     1       1.677  -0.569   1.178  0.00  0.00    +0.149 HD
BRANCH   7   9
ATOM      9  S   UNL     1      -0.139  -0.902   2.549  0.00  0.00    +0.065 S 
ATOM     10  O   UNL     1       0.814  -1.354   3.502  0.00  0.00    -0.153 OA
ATOM     11  O   UNL     1      -1.030   0.173   2.814  0.00  0.00    -0.153 OA
BRANCH   9  12
ATOM     12  C   UNL     1      -1.137  -2.294   2.137  0.00  0.00    +0.142 A 
ATOM     13  C   UNL     1      -0.844  -3.614   2.234  0.00  0.00    +0.036 A 
ATOM     14  C   UNL     1      -1.793  -4.542   1.849  0.00  0.00    +0.010 A 
ATOM     15  C   UNL     1      -2.990  -4.105   1.386  0.00  0.00    +0.047 A 
ATOM     16  S   UNL     1      -2.801  -2.333   1.492  0.00  0.00    -0.077 S 
ENDBRANCH   9  12
ENDBRANCH   7   9
ENDBRANCH   6   7
ENDBRANCH   1   6
BRANCH   3  17
ATOM     17  N   UNL     1       0.887  -0.616  -3.608  0.00  0.00    -0.264 N 
ATOM     18  H   UNL     1       1.684  -1.163  -3.530  0.00  0.00    +0.170 HD
BRANCH  17  19
ATOM     19  C   UNL     1       0.392  -0.278  -4.872  0.00  0.00    +0.045 A 
ATOM     20  C   UNL     1      -0.745   0.510  -4.985  0.00  0.00    +0.027 A 
ATOM     21  C   UNL     1      -1.232   0.844  -6.234  0.00  0.00    +0.040 A 
ATOM     22  C   UNL     1      -0.586   0.392  -7.373  0.00  0.00    +0.124 A 
ATOM     23  C   UNL     1       0.548  -0.395  -7.262  0.00  0.00    +0.040 A 
ATOM     24  C   UNL     1       1.042  -0.725  -6.015  0.00  0.00    +0.027 A 
ATOM     25  F   UNL     1      -1.064   0.718  -8.594  0.00  0.00    -0.205 F 
ENDBRANCH  17  19
ENDBRANCH   3  17
TORSDOF 6
