REMARK  Name = ZINC49486352
REMARK  8 active torsions:
REMARK  status: ('A' for Active; 'I' for Inactive)
REMARK    1  A    between atoms: C_3  and  N_13
REMARK    2  A    between atoms: C_5  and  N_7
REMARK    3  A    between atoms: C_14  and  C_16
REMARK    4  A    between atoms: N_18  and  C_19
REMARK    5  A    between atoms: C_19  and  C_20
REMARK    6  A    between atoms: C_20  and  C_22
REMARK    7  A    between atoms: C_20  and  N_27
REMARK    8  A    between atoms: N_30  and  C_33
REMARK                            x       y       z     vdW  Elec       q    Type
REMARK                         _______ _______ _______ _____ _____    ______ ____
ROOT
ATOM      1  C   UNL     1       6.494   6.167  -0.265  0.00  0.00    +0.097 C 
ENDROOT
BRANCH   1   4
ATOM      2  C   UNL     1       5.186   4.128  -0.010  0.00  0.00    +0.299 C 
ATOM      3  O   UNL     1       6.212   3.490  -0.126  0.00  0.00    -0.265 OA
ATOM      4  N   UNL     1       5.219   5.474  -0.065  0.00  0.00    -0.309 N 
ATOM      5  H   UNL     1       4.399   5.983   0.028  0.00  0.00    +0.149 HD
BRANCH   2   7
ATOM      6  N   UNL     1       3.853   2.074   0.248  0.00  0.00    -0.278 N 
ATOM      7  C   UNL     1       3.886   3.420   0.193  0.00  0.00    +0.303 C 
ATOM      8  O   UNL     1       2.860   4.058   0.309  0.00  0.00    -0.265 OA
ATOM      9  H   UNL     1       4.679   1.567   0.228  0.00  0.00    +0.155 HD
BRANCH   6  12
ATOM     10  C   UNL     1       0.266   1.340  -0.094  0.00  0.00    +0.004 A 
ATOM     11  C   UNL     1       1.478   1.998  -0.178  0.00  0.00    +0.023 A 
ATOM     12  C   UNL     1       2.627   1.409   0.334  0.00  0.00    +0.036 A 
ATOM     13  C   UNL     1       2.556   0.158   0.932  0.00  0.00    +0.046 A 
ATOM     14  C   UNL     1       1.338  -0.500   1.015  0.00  0.00    +0.038 A 
ATOM     15  C   UNL     1       0.192   0.095   0.500  0.00  0.00    +0.023 A 
BRANCH  14  16
ATOM     16  N   UNL     1       1.262  -1.761   1.616  0.00  0.00    -0.271 N 
ATOM     17  C   UNL     1       0.054  -2.594   1.645  0.00  0.00    +0.114 C 
ATOM     18  C   UNL     1       0.542  -4.016   1.999  0.00  0.00    +0.029 C 
ATOM     19  C   UNL     1       1.853  -3.719   2.763  0.00  0.00    +0.098 C 
ATOM     20  C   UNL     1       2.288  -2.369   2.237  0.00  0.00    +0.220 C 
ATOM     21  O   UNL     1       3.401  -1.901   2.359  0.00  0.00    -0.275 OA
ENDBRANCH  14  16
ENDBRANCH   6  12
ENDBRANCH   2   7
ENDBRANCH   1   4
BRANCH   1  22
ATOM     22  C   UNL     1       6.239   7.669  -0.415  0.00  0.00    +0.017 C 
BRANCH  22  23
ATOM     23  N   UNL     1       5.276   7.895  -1.501  0.00  0.00    +0.389 N 
ATOM     24  C   UNL     1       5.763   7.252  -2.728  0.00  0.00    -0.059 C 
ATOM     25  C   UNL     1       4.706   7.389  -3.829  0.00  0.00    +0.086 C 
ATOM     26  N   UNL     1       4.375   8.814  -3.982  0.00  0.00    -0.333 N 
ATOM     27  C   UNL     1       4.032   9.580  -2.773  0.00  0.00    +0.086 C 
ATOM     28  C   UNL     1       5.121   9.339  -1.721  0.00  0.00    -0.059 C 
ATOM     29  H   UNL     1       4.384   7.497  -1.246  0.00  0.00    -0.081 HD
BRANCH  26  30
ATOM     30  C   UNL     1       4.383   9.424  -5.240  0.00  0.00    +0.030 A 
ATOM     31  C   UNL     1       4.590   8.660  -6.381  0.00  0.00    +0.026 A 
ATOM     32  C   UNL     1       4.598   9.264  -7.623  0.00  0.00    +0.040 A 
ATOM     33  C   UNL     1       4.400  10.630  -7.731  0.00  0.00    +0.124 A 
ATOM     34  C   UNL     1       4.194  11.394  -6.595  0.00  0.00    +0.040 A 
ATOM     35  C   UNL     1       4.181  10.793  -5.351  0.00  0.00    +0.026 A 
ATOM     36  F   UNL     1       4.409  11.219  -8.947  0.00  0.00    -0.205 F 
ENDBRANCH  26  30
ENDBRANCH  22  23
BRANCH  22  37
ATOM     37  C   UNL     1       7.535   8.367  -0.739  0.00  0.00    +0.093 A 
ATOM     38  C   UNL     1       8.351   8.963   0.149  0.00  0.00    +0.043 A 
ATOM     39  C   UNL     1       9.441   9.486  -0.584  0.00  0.00    +0.041 A 
ATOM     40  C   UNL     1       9.226   9.179  -1.875  0.00  0.00    +0.195 A 
ATOM     41  O   UNL     1       8.073   8.496  -1.963  0.00  0.00    -0.469 OA
ENDBRANCH  22  37
ENDBRANCH   1  22
TORSDOF 8
