REMARK  Name = ZINC63573592
REMARK  7 active torsions:
REMARK  status: ('A' for Active; 'I' for Inactive)
REMARK    1  A    between atoms: C_1  and  C_2
REMARK    2  A    between atoms: C_5  and  C_8
REMARK    3  A    between atoms: C_15  and  O_20
REMARK    4  A    between atoms: O_20  and  C_21
REMARK    5  A    between atoms: N_27  and  C_28
REMARK    6  A    between atoms: C_28  and  C_29
REMARK    7  A    between atoms: C_28  and  C_30
REMARK                            x       y       z     vdW  Elec       q    Type
REMARK                         _______ _______ _______ _____ _____    ______ ____
ROOT
ATOM      1  C   UNL     1       0.058  -4.278  -0.020  0.00  0.00    +0.134 C 
ATOM      2  C   UNL     1      -1.320  -4.813   0.387  0.00  0.00    +0.131 C 
ATOM      3  C   UNL     1      -1.485  -4.504   1.870  0.00  0.00    -0.035 C 
ATOM      4  C   UNL     1      -2.603  -3.799   1.984  0.00  0.00    +0.003 A 
ATOM      5  C   UNL     1      -3.318  -3.274   3.157  0.00  0.00    +0.055 A 
ATOM      6  C   UNL     1      -4.456  -2.567   2.913  0.00  0.00    +0.121 A 
ATOM      7  C   UNL     1      -4.967  -2.321   1.630  0.00  0.00    +0.047 A 
ATOM      8  C   UNL     1      -4.392  -2.762   0.482  0.00  0.00    +0.029 A 
ATOM      9  C   UNL     1      -3.155  -3.544   0.617  0.00  0.00    +0.043 A 
ATOM     10  N   UNL     1      -2.402  -4.112  -0.307  0.00  0.00    -0.375 N 
ATOM     11  C   UNL     1      -0.460  -4.909   2.900  0.00  0.00    +0.052 C 
ATOM     12  C   UNL     1       0.905  -4.420   2.383  0.00  0.00    +0.114 C 
ATOM     13  N   UNL     1       1.040  -4.763   0.962  0.00  0.00    -0.276 N 
ATOM     14  C   UNL     1       2.070  -5.529   0.553  0.00  0.00    +0.303 C 
ATOM     15  O   UNL     1       2.240  -5.737  -0.632  0.00  0.00    -0.253 OA
ATOM     16  N   UNL     1       2.912  -6.065   1.459  0.00  0.00    -0.297 N 
ATOM     17  H   UNL     1       2.733  -5.963   2.407  0.00  0.00    +0.150 HD
ATOM     18  H   UNL     1      -2.530  -4.074  -1.268  0.00  0.00    +0.160 HD
ENDROOT
BRANCH   1  23
ATOM     19  C   UNL     1      -0.016   1.500  -0.029  0.00  0.00    +0.044 C 
ATOM     20  C   UNL     1       0.003  -0.006  -0.027  0.00  0.00    -0.050 A 
ATOM     21  C   UNL     1       0.269  -0.696  -1.195  0.00  0.00    +0.004 A 
ATOM     22  C   UNL     1       0.287  -2.078  -1.193  0.00  0.00    +0.006 A 
ATOM     23  C   UNL     1       0.039  -2.771  -0.022  0.00  0.00    -0.025 A 
ATOM     24  C   UNL     1      -0.226  -2.081   1.146  0.00  0.00    +0.006 A 
ATOM     25  C   UNL     1      -0.239  -0.699   1.145  0.00  0.00    +0.004 A 
ENDBRANCH   1  23
BRANCH  16  26
ATOM     26  C   UNL     1       4.096  -6.803   1.012  0.00  0.00    +0.068 C 
ATOM     27  C   UNL     1       5.239  -5.820   0.749  0.00  0.00    +0.027 C 
ATOM     28  C   UNL     1       4.517  -7.797   2.096  0.00  0.00    +0.027 C 
ENDBRANCH  16  26
BRANCH   6  29
ATOM     29  O   UNL     1      -5.139  -2.069   3.978  0.00  0.00    -0.495 OA
ATOM     30  C   UNL     1      -6.330  -1.331   3.697  0.00  0.00    +0.277 C 
ENDBRANCH   6  29
TORSDOF 3
