REMARK  Name = ZINC45819460
REMARK  10 active torsions:
REMARK  status: ('A' for Active; 'I' for Inactive)
REMARK    1  A    between atoms: C_1  and  N_2
REMARK    2  A    between atoms: N_2  and  C_3
REMARK    3  A    between atoms: N_2  and  C_4
REMARK    4  A    between atoms: C_4  and  C_6
REMARK    5  A    between atoms: C_4  and  C_26
REMARK    6  A    between atoms: C_6  and  N_7
REMARK    7  A    between atoms: C_8  and  C_10
REMARK    8  A    between atoms: N_13  and  C_15
REMARK    9  A    between atoms: C_29  and  O_32
REMARK   10  A    between atoms: O_32  and  C_33
REMARK                            x       y       z     vdW  Elec       q    Type
REMARK                         _______ _______ _______ _____ _____    ______ ____
ROOT
ATOM      1  N   UNL     1      -0.123  -1.869   1.163  0.00  0.00    -0.311 N 
ATOM      2  C   UNL     1       0.380  -3.101   1.378  0.00  0.00    +0.264 C 
ATOM      3  O   UNL     1       0.084  -4.017   0.635  0.00  0.00    -0.268 OA
ATOM      4  H   UNL     1       0.113  -1.139   1.756  0.00  0.00    +0.149 HD
ENDROOT
BRANCH   2   5
ATOM      5  C   UNL     1       1.291  -3.339   2.515  0.00  0.00    +0.151 A 
ATOM      6  C   UNL     1       1.897  -4.558   2.863  0.00  0.00    +0.006 A 
ATOM      7  C   UNL     1       2.641  -4.304   3.968  0.00  0.00    +0.049 A 
ATOM      8  N   UNL     1       2.485  -2.994   4.259  0.00  0.00    -0.236 N 
ATOM      9  N   UNL     1       1.698  -2.443   3.400  0.00  0.00    -0.161 NA
ATOM     10  C   UNL     1       3.463  -5.343   4.686  0.00  0.00    +0.056 C 
ATOM     11  C   UNL     1       2.989  -6.730   4.233  0.00  0.00    +0.006 C 
ATOM     12  C   UNL     1       2.940  -6.783   2.703  0.00  0.00    +0.005 C 
ATOM     13  C   UNL     1       1.790  -5.902   2.196  0.00  0.00    +0.039 C 
BRANCH   8  14
ATOM     14  C   UNL     1       3.093  -2.330   5.334  0.00  0.00    +0.066 A 
ATOM     15  C   UNL     1       4.423  -2.584   5.645  0.00  0.00    +0.030 A 
ATOM     16  C   UNL     1       5.020  -1.930   6.704  0.00  0.00    +0.040 A 
ATOM     17  C   UNL     1       4.295  -1.021   7.456  0.00  0.00    +0.124 A 
ATOM     18  C   UNL     1       2.969  -0.766   7.147  0.00  0.00    +0.040 A 
ATOM     19  C   UNL     1       2.369  -1.414   6.085  0.00  0.00    +0.030 A 
ATOM     20  F   UNL     1       4.881  -0.382   8.492  0.00  0.00    -0.205 F 
ENDBRANCH   8  14
ENDBRANCH   2   5
BRANCH   1  21
ATOM     21  C   UNL     1      -1.027  -1.634   0.035  0.00  0.00    +0.094 C 
BRANCH  21  22
ATOM     22  C   UNL     1      -1.546  -0.196   0.089  0.00  0.00    -0.021 C 
BRANCH  22  23
ATOM     23  C   UNL     1      -2.397  -0.014   1.319  0.00  0.00    -0.059 A 
ATOM     24  C   UNL     1      -3.707  -0.457   1.324  0.00  0.00    +0.005 A 
ATOM     25  C   UNL     1      -4.489  -0.291   2.450  0.00  0.00    +0.046 A 
ATOM     26  C   UNL     1      -3.959   0.319   3.578  0.00  0.00    +0.120 A 
ATOM     27  C   UNL     1      -2.644   0.761   3.571  0.00  0.00    +0.046 A 
ATOM     28  C   UNL     1      -1.865   0.589   2.444  0.00  0.00    +0.005 A 
BRANCH  26  29
ATOM     29  O   UNL     1      -4.727   0.483   4.687  0.00  0.00    -0.495 OA
ATOM     30  C   UNL     1      -4.115   1.119   5.811  0.00  0.00    +0.277 C 
ENDBRANCH  26  29
ENDBRANCH  22  23
BRANCH  22  32
ATOM     31  C   UNL     1      -2.888   1.445  -1.035  0.00  0.00    -0.096 C 
ATOM     32  N   UNL     1      -2.352   0.080  -1.109  0.00  0.00    +0.382 N 
ATOM     33  C   UNL     1      -1.510  -0.052  -2.306  0.00  0.00    -0.096 C 
ATOM     34  H   UNL     1      -3.114  -0.579  -1.159  0.00  0.00    -0.082 HD
ENDBRANCH  22  32
ENDBRANCH  21  22
ENDBRANCH   1  21
TORSDOF 7
