REMARK  Name = ZINC12586722
REMARK  4 active torsions:
REMARK  status: ('A' for Active; 'I' for Inactive)
REMARK    1  A    between atoms: C_4  and  N_7
REMARK    2  A    between atoms: C_12  and  C_14
REMARK    3  A    between atoms: N_16  and  C_17
REMARK    4  A    between atoms: C_17  and  C_18
REMARK                            x       y       z     vdW  Elec       q    Type
REMARK                         _______ _______ _______ _____ _____    ______ ____
ROOT
ATOM      1  N   UNL     1       4.285  -0.619   4.318  0.00  0.00    -0.160 N 
ATOM      2  C   UNL     1       5.247   0.094   4.938  0.00  0.00    +0.240 C 
ATOM      3  O   UNL     1       5.671  -0.266   6.015  0.00  0.00    -0.273 OA
ATOM      4  C   UNL     1       5.792   1.339   4.287  0.00  0.00    +0.104 C 
ATOM      5  C   UNL     1       5.789   1.152   2.764  0.00  0.00    +0.071 C 
ATOM      6  C   UNL     1       4.451   0.618   2.329  0.00  0.00    +0.122 C 
ATOM      7  N   UNL     1       3.786  -0.206   3.079  0.00  0.00    -0.172 NA
ENDROOT
BRANCH   1  11
ATOM      8  C   UNL     1       2.787  -4.070   6.109  0.00  0.00    +0.000 A 
ATOM      9  C   UNL     1       4.154  -3.881   6.012  0.00  0.00    +0.002 A 
ATOM     10  C   UNL     1       4.653  -2.738   5.419  0.00  0.00    +0.025 A 
ATOM     11  C   UNL     1       3.782  -1.778   4.920  0.00  0.00    +0.060 A 
ATOM     12  C   UNL     1       2.410  -1.970   5.023  0.00  0.00    +0.025 A 
ATOM     13  C   UNL     1       1.917  -3.117   5.613  0.00  0.00    +0.002 A 
ENDBRANCH   1  11
BRANCH   6  14
ATOM     14  C   UNL     1       3.893   1.030   1.035  0.00  0.00    +0.260 C 
ATOM     15  O   UNL     1       4.510   1.802   0.325  0.00  0.00    -0.269 OA
ATOM     16  N   UNL     1       2.699   0.553   0.634  0.00  0.00    -0.310 N 
ATOM     17  H   UNL     1       2.207  -0.063   1.200  0.00  0.00    +0.149 HD
BRANCH  16  18
ATOM     18  C   UNL     1       2.142   0.964  -0.657  0.00  0.00    +0.108 C 
BRANCH  18  19
ATOM     19  C   UNL     1       0.788   0.284  -0.869  0.00  0.00    +0.006 C 
ATOM     20  C   UNL     1      -0.206   0.788   0.179  0.00  0.00    +0.005 C 
ATOM     21  C   UNL     1      -1.560   0.108  -0.033  0.00  0.00    +0.000 C 
ATOM     22  C   UNL     1      -2.083   0.438  -1.432  0.00  0.00    +0.000 C 
ATOM     23  C   UNL     1      -1.089  -0.067  -2.480  0.00  0.00    +0.000 C 
ATOM     24  C   UNL     1       0.265   0.614  -2.269  0.00  0.00    +0.005 C 
ENDBRANCH  18  19
ENDBRANCH  16  18
ENDBRANCH   6  14
TORSDOF 4
