REMARK  Name = ZINC17114182
REMARK  6 active torsions:
REMARK  status: ('A' for Active; 'I' for Inactive)
REMARK    1  A    between atoms: C_1  and  C_2
REMARK    2  A    between atoms: C_2  and  O_3
REMARK    3  A    between atoms: O_3  and  C_4
REMARK    4  A    between atoms: C_10  and  C_28
REMARK    5  A    between atoms: C_11  and  C_13
REMARK    6  A    between atoms: N_15  and  N_16
REMARK                            x       y       z     vdW  Elec       q    Type
REMARK                         _______ _______ _______ _____ _____    ______ ____
ROOT
ATOM      1  C   UNL     1       5.979   0.936  -0.050  0.00  0.00    +0.296 C 
ATOM      2  O   UNL     1       6.663  -0.070  -0.062  0.00  0.00    -0.265 OA
ATOM      3  N   UNL     1       6.566   2.149  -0.050  0.00  0.00    -0.217 N 
ATOM      4  H   UNL     1       6.021   2.952  -0.041  0.00  0.00    +0.174 HD
ENDROOT
BRANCH   3   5
ATOM      5  N   UNL     1       7.963   2.252  -0.064  0.00  0.00    -0.137 N 
ATOM      6  C   UNL     1       8.688   2.600  -1.147  0.00  0.00    +0.263 C 
ATOM      7  O   UNL     1       8.271   2.874  -2.252  0.00  0.00    -0.271 OA
ATOM      8  C   UNL     1      10.130   2.578  -0.693  0.00  0.00    +0.114 C 
ATOM      9  C   UNL     1      10.751   3.963  -0.829  0.00  0.00    +0.035 C 
ATOM     10  C   UNL     1      12.201   3.925  -0.339  0.00  0.00    +0.003 C 
ATOM     11  C   UNL     1      12.992   2.909  -1.165  0.00  0.00    +0.000 C 
ATOM     12  C   UNL     1      12.371   1.521  -0.999  0.00  0.00    +0.003 C 
ATOM     13  C   UNL     1      10.922   1.549  -1.492  0.00  0.00    +0.035 C 
ATOM     14  N   UNL     1      10.052   2.184   0.720  0.00  0.00    -0.284 N 
ATOM     15  C   UNL     1       8.745   2.021   0.999  0.00  0.00    +0.326 C 
ATOM     16  O   UNL     1       8.322   1.698   2.091  0.00  0.00    -0.251 OA
ATOM     17  H   UNL     1      10.796   2.069   1.332  0.00  0.00    +0.151 HD
ENDBRANCH   3   5
BRANCH   1  25
ATOM     18  C   UNL     1       0.002  -0.004   0.002  0.00  0.00    +0.121 A 
ATOM     19  C   UNL     1      -0.017   1.389   0.010  0.00  0.00    +0.049 A 
ATOM     20  C   UNL     1       1.158   2.108   0.002  0.00  0.00    +0.050 A 
ATOM     21  C   UNL     1       2.380   1.446  -0.013  0.00  0.00    +0.136 A 
ATOM     22  C   UNL     1       2.402   0.039  -0.021  0.00  0.00    +0.027 A 
ATOM     23  C   UNL     1       1.205  -0.682  -0.013  0.00  0.00    +0.057 A 
ATOM     24  C   UNL     1       3.815  -0.336  -0.036  0.00  0.00    +0.008 A 
ATOM     25  C   UNL     1       4.514   0.829  -0.036  0.00  0.00    +0.195 A 
ATOM     26  O   UNL     1       3.659   1.872  -0.023  0.00  0.00    -0.450 OA
ATOM     27  C   UNL     1       4.382  -1.732  -0.048  0.00  0.00    +0.048 C 
BRANCH  18  28
ATOM     28  O   UNL     1      -1.167  -0.698   0.009  0.00  0.00    -0.492 OA
BRANCH  28  30
ATOM     29  C   UNL     1      -3.577  -0.881   0.030  0.00  0.00    +0.048 C 
ATOM     30  C   UNL     1      -2.375   0.066   0.024  0.00  0.00    +0.225 C 
ENDBRANCH  28  30
ENDBRANCH  18  28
ENDBRANCH   1  25
TORSDOF 4
