REMARK  Name = ZINC65198357
REMARK  6 active torsions:
REMARK  status: ('A' for Active; 'I' for Inactive)
REMARK    1  A    between atoms: C_1  and  C_2
REMARK    2  A    between atoms: C_9  and  C_11
REMARK    3  A    between atoms: N_13  and  N_14
REMARK    4  A    between atoms: N_17  and  C_18
REMARK    5  A    between atoms: C_18  and  C_19
REMARK    6  A    between atoms: C_19  and  C_20
REMARK                            x       y       z     vdW  Elec       q    Type
REMARK                         _______ _______ _______ _____ _____    ______ ____
ROOT
ATOM      1  C   UNL     1       0.091  -5.622   2.222  0.00  0.00    +0.295 C 
ATOM      2  O   UNL     1       0.099  -5.699   3.436  0.00  0.00    -0.265 OA
ATOM      3  N   UNL     1       0.103  -6.744   1.475  0.00  0.00    -0.227 N 
ATOM      4  H   UNL     1       0.098  -6.683   0.507  0.00  0.00    +0.173 HD
ENDROOT
BRANCH   1  13
ATOM      5  C   UNL     1      -0.018   1.503   0.010  0.00  0.00    +0.044 C 
ATOM      6  C   UNL     1       0.002  -0.004   0.002  0.00  0.00    -0.050 A 
ATOM      7  C   UNL     1       0.006  -0.687  -1.207  0.00  0.00    +0.007 A 
ATOM      8  C   UNL     1       0.025  -2.064  -1.238  0.00  0.00    +0.047 A 
ATOM      9  C   UNL     1       0.041  -2.783  -0.048  0.00  0.00    +0.136 A 
ATOM     10  C   UNL     1       0.037  -2.086   1.175  0.00  0.00    +0.021 A 
ATOM     11  C   UNL     1       0.023  -0.689   1.184  0.00  0.00    +0.015 A 
ATOM     12  C   UNL     1       0.056  -3.112   2.216  0.00  0.00    +0.063 A 
ATOM     13  C   UNL     1       0.070  -4.306   1.569  0.00  0.00    +0.192 A 
ATOM     14  O   UNL     1       0.060  -4.100   0.235  0.00  0.00    -0.450 OA
ENDBRANCH   1  13
BRANCH   3  15
ATOM     15  N   UNL     1       0.124  -7.999   2.098  0.00  0.00    -0.218 N 
ATOM     16  C   UNL     1       0.136  -9.121   1.351  0.00  0.00    +0.316 C 
ATOM     17  O   UNL     1       0.154 -10.211   1.891  0.00  0.00    -0.251 OA
ATOM     18  N   UNL     1       0.128  -9.036   0.006  0.00  0.00    -0.298 N 
ATOM     19  H   UNL     1       0.130  -8.061   3.066  0.00  0.00    +0.174 HD
ATOM     20  H   UNL     1       0.114  -8.168  -0.425  0.00  0.00    +0.150 HD
BRANCH  18  21
ATOM     21  C   UNL     1       0.141 -10.256  -0.805  0.00  0.00    +0.111 C 
BRANCH  21  22
ATOM     22  C   UNL     1       0.128  -9.882  -2.288  0.00  0.00    +0.061 C 
BRANCH  22  23
ATOM     23  C   UNL     1       0.142 -11.137  -3.123  0.00  0.00    -0.009 A 
ATOM     24  C   UNL     1      -0.904 -11.860  -3.595  0.00  0.00    +0.011 A 
ATOM     25  C   UNL     1      -0.651 -12.990  -4.349  0.00  0.00    +0.008 A 
ATOM     26  C   UNL     1       0.634 -13.342  -4.595  0.00  0.00    +0.045 A 
ATOM     27  S   UNL     1       1.538 -12.053  -3.753  0.00  0.00    -0.102 S 
ENDBRANCH  22  23
ENDBRANCH  21  22
ENDBRANCH  18  21
ENDBRANCH   3  15
TORSDOF 5
