REMARK  Name = ZINC13064623
REMARK  12 active torsions:
REMARK  status: ('A' for Active; 'I' for Inactive)
REMARK    1  A    between atoms: C_1  and  C_2
REMARK    2  A    between atoms: C_2  and  C_3
REMARK    3  A    between atoms: C_3  and  C_5
REMARK    4  A    between atoms: C_3  and  N_73
REMARK    5  A    between atoms: N_9  and  C_10
REMARK    6  A    between atoms: C_10  and  C_11
REMARK    7  A    between atoms: C_17  and  C_18
REMARK    8  A    between atoms: C_17  and  N_73
REMARK    9  A    between atoms: C_27  and  C_28
REMARK   10  A    between atoms: C_27  and  N_73
REMARK   11  A    between atoms: C_32  and  C_41
REMARK   12  A    between atoms: C_33  and  C_40
REMARK                            x       y       z     vdW  Elec       q    Type
REMARK                         _______ _______ _______ _____ _____    ______ ____
ROOT
ATOM      1  N   UNL     1       2.614   1.167   1.414  0.00  0.00    +0.392 N 
ATOM      2  H   UNL     1       1.654   0.809   1.478  0.00  0.00    -0.080 HD
ENDROOT
BRANCH   1   3
ATOM      3  C   UNL     1       3.556   0.073   1.734  0.00  0.00    +0.003 C 
BRANCH   3   4
ATOM      4  C   UNL     1       4.941   0.619   1.966  0.00  0.00    +0.138 A 
ATOM      5  N   UNL     1       5.273   1.591   2.780  0.00  0.00    -0.115 NA
ATOM      6  N   UNL     1       6.547   1.762   2.697  0.00  0.00    -0.023 NA
ATOM      7  N   UNL     1       7.035   0.930   1.845  0.00  0.00    -0.044 NA
ATOM      8  N   UNL     1       6.077   0.208   1.372  0.00  0.00    -0.228 N 
BRANCH   8   9
ATOM      9  C   UNL     1       6.201  -0.859   0.376  0.00  0.00    +0.178 C 
BRANCH   9  10
ATOM     10  C   UNL     1       6.248  -0.246  -1.025  0.00  0.00    +0.140 C 
ATOM     11  C   UNL     1       6.291  -1.367  -2.086  0.00  0.00    +0.035 C 
ATOM     12  C   UNL     1       7.284  -0.792  -3.133  0.00  0.00    +0.031 C 
ATOM     13  C   UNL     1       8.261  -0.014  -2.215  0.00  0.00    +0.160 C 
ATOM     14  O   UNL     1       7.439   0.536  -1.174  0.00  0.00    -0.375 OA
ENDBRANCH   9  10
ENDBRANCH   8   9
ENDBRANCH   3   4
BRANCH   3  16
ATOM     15  C   UNL     1       1.712  -1.289   2.727  0.00  0.00    +0.002 C 
ATOM     16  C   UNL     1       3.071  -0.640   2.997  0.00  0.00    -0.011 C 
ENDBRANCH   3  16
ENDBRANCH   1   3
BRANCH   1  17
ATOM     17  C   UNL     1       2.780   2.274   2.379  0.00  0.00    -0.041 C 
BRANCH  17  18
ATOM     18  C   UNL     1       1.542   3.132   2.346  0.00  0.00    -0.060 A 
ATOM     19  C   UNL     1       0.459   2.812   3.143  0.00  0.00    +0.005 A 
ATOM     20  C   UNL     1      -0.679   3.596   3.116  0.00  0.00    +0.050 A 
ATOM     21  C   UNL     1      -0.736   4.706   2.290  0.00  0.00    +0.166 A 
ATOM     22  C   UNL     1       0.355   5.030   1.487  0.00  0.00    +0.166 A 
ATOM     23  C   UNL     1       1.494   4.242   1.523  0.00  0.00    +0.051 A 
ATOM     24  O   UNL     1       0.055   6.154   0.775  0.00  0.00    -0.453 OA
ATOM     25  C   UNL     1      -1.070   6.748   1.450  0.00  0.00    +0.466 C 
ATOM     26  O   UNL     1      -1.720   5.629   2.080  0.00  0.00    -0.453 OA
ENDBRANCH  17  18
ENDBRANCH   1  17
BRANCH   1  27
ATOM     27  C   UNL     1       2.855   1.655   0.040  0.00  0.00    -0.036 C 
BRANCH  27  28
ATOM     28  C   UNL     1       2.001   0.854  -0.909  0.00  0.00    +0.001 A 
ATOM     29  C   UNL     1       0.782   1.320  -1.279  0.00  0.00    +0.017 A 
ATOM     30  C   UNL     1      -0.022   0.519  -2.203  0.00  0.00    -0.001 A 
ATOM     31  C   UNL     1      -1.287   0.948  -2.620  0.00  0.00    +0.013 A 
ATOM     32  C   UNL     1      -2.013   0.177  -3.483  0.00  0.00    -0.047 A 
ATOM     33  C   UNL     1      -1.507  -1.029  -3.950  0.00  0.00    -0.046 A 
ATOM     34  C   UNL     1      -0.264  -1.471  -3.552  0.00  0.00    +0.030 A 
ATOM     35  C   UNL     1       0.494  -0.703  -2.674  0.00  0.00    +0.049 A 
ATOM     36  N   UNL     1       1.743  -1.118  -2.264  0.00  0.00    -0.322 N 
ATOM     37  H   UNL     1       2.099  -1.958  -2.593  0.00  0.00    +0.169 HD
ATOM     38  C   UNL     1       2.473  -0.378  -1.411  0.00  0.00    +0.251 A 
ATOM     39  O   UNL     1       3.571  -0.779  -1.066  0.00  0.00    -0.268 OA
ATOM     40  C   UNL     1      -2.326  -1.863  -4.901  0.00  0.00    +0.044 C 
ATOM     41  C   UNL     1      -3.375   0.639  -3.933  0.00  0.00    +0.044 C 
ENDBRANCH  27  28
ENDBRANCH   1  27
TORSDOF 9
