REMARK  Name = ZINC09009577
REMARK  8 active torsions:
REMARK  status: ('A' for Active; 'I' for Inactive)
REMARK    1  A    between atoms: C_1  and  C_2
REMARK    2  A    between atoms: C_2  and  C_3
REMARK    3  A    between atoms: C_2  and  C_4
REMARK    4  A    between atoms: C_2  and  C_5
REMARK    5  A    between atoms: C_5  and  C_7
REMARK    6  A    between atoms: C_9  and  C_32
REMARK    7  A    between atoms: C_32  and  C_34
REMARK    8  A    between atoms: C_38  and  N_40
REMARK                            x       y       z     vdW  Elec       q    Type
REMARK                         _______ _______ _______ _____ _____    ______ ____
ROOT
ATOM      1  C   UNL     1       0.869   1.802  -0.190  0.00  0.00    +0.153 C 
ATOM      2  C   UNL     1       1.220   2.617   1.088  0.00  0.00    +0.109 C 
ATOM      3  C   UNL     1       2.746   2.442   1.250  0.00  0.00    +0.108 C 
ATOM      4  C   UNL     1       3.097   1.812   2.554  0.00  0.00    -0.008 A 
ATOM      5  C   UNL     1       2.768   0.592   3.106  0.00  0.00    +0.006 A 
ATOM      6  C   UNL     1       3.275   0.313   4.370  0.00  0.00    +0.000 A 
ATOM      7  C   UNL     1       4.072   1.217   5.041  0.00  0.00    +0.002 A 
ATOM      8  C   UNL     1       4.408   2.445   4.494  0.00  0.00    +0.023 A 
ATOM      9  C   UNL     1       3.906   2.739   3.226  0.00  0.00    +0.038 A 
ATOM     10  N   UNL     1       4.080   3.874   2.453  0.00  0.00    -0.284 N 
ATOM     11  C   UNL     1       3.431   3.786   1.270  0.00  0.00    +0.231 C 
ATOM     12  O   UNL     1       3.405   4.625   0.395  0.00  0.00    -0.274 OA
ATOM     13  C   UNL     1       3.178   1.608   0.053  0.00  0.00    +0.117 C 
ATOM     14  N   UNL     1       1.958   0.823  -0.284  0.00  0.00    -0.311 N 
ATOM     15  C   UNL     1       2.156   0.165  -1.475  0.00  0.00    +0.038 A 
ATOM     16  C   UNL     1       1.214   0.101  -2.482  0.00  0.00    +0.024 A 
ATOM     17  C   UNL     1       1.501  -0.577  -3.653  0.00  0.00    +0.002 A 
ATOM     18  C   UNL     1       2.728  -1.194  -3.825  0.00  0.00    +0.001 A 
ATOM     19  C   UNL     1       3.683  -1.143  -2.827  0.00  0.00    +0.010 A 
ATOM     20  C   UNL     1       3.407  -0.467  -1.646  0.00  0.00    -0.004 A 
ATOM     21  C   UNL     1       4.398  -0.389  -0.546  0.00  0.00    +0.007 C 
ATOM     22  C   UNL     1       4.296   0.644   0.310  0.00  0.00    -0.003 C 
ATOM     23  H   UNL     1       4.605   4.642   2.727  0.00  0.00    +0.155 HD
ENDROOT
BRANCH   1  24
ATOM     24  C   UNL     1      -0.458   1.106  -0.027  0.00  0.00    +0.160 C 
ATOM     25  O   UNL     1      -0.495  -0.046   0.332  0.00  0.00    -0.295 OA
BRANCH  24  27
ATOM     26  C   UNL     1      -2.933   0.958   0.035  0.00  0.00    +0.018 C 
ATOM     27  C   UNL     1      -1.738   1.846  -0.320  0.00  0.00    +0.022 C 
ATOM     28  C   UNL     1      -1.788   3.127   0.516  0.00  0.00    +0.018 C 
ATOM     29  C   UNL     1      -1.792   2.204  -1.806  0.00  0.00    +0.018 C 
ENDBRANCH  24  27
ENDBRANCH   1  24
BRANCH   2  30
ATOM     30  C   UNL     1       0.497   2.055   2.285  0.00  0.00    +0.170 C 
ATOM     31  O   UNL     1       0.268   0.866   2.352  0.00  0.00    -0.292 OA
BRANCH  30  32
ATOM     32  C   UNL     1       0.070   2.949   3.373  0.00  0.00    +0.020 A 
ATOM     33  C   UNL     1       0.439   4.298   3.361  0.00  0.00    +0.011 A 
ATOM     34  C   UNL     1       0.031   5.130   4.381  0.00  0.00    +0.003 A 
ATOM     35  C   UNL     1      -0.734   4.631   5.422  0.00  0.00    +0.033 A 
ATOM     36  C   UNL     1      -1.099   3.297   5.444  0.00  0.00    +0.127 A 
ATOM     37  C   UNL     1      -0.703   2.453   4.428  0.00  0.00    +0.044 A 
BRANCH  36  38
ATOM     38  N   UNL     1      -1.917   2.774   6.561  0.00  0.00    +0.056 N 
ATOM     39  O   UNL     1      -2.240   1.599   6.582  0.00  0.00    -0.126 OA
ATOM     40  O   UNL     1      -2.268   3.518   7.459  0.00  0.00    -0.126 OA
ENDBRANCH  36  38
ENDBRANCH  30  32
ENDBRANCH   2  30
TORSDOF 5
