REMARK  Name = ZINC16426466
REMARK  14 active torsions:
REMARK  status: ('A' for Active; 'I' for Inactive)
REMARK    1  A    between atoms: C_1  and  C_2
REMARK    2  A    between atoms: C_5  and  C_7
REMARK    3  A    between atoms: C_12  and  C_17
REMARK    4  A    between atoms: C_20  and  O_25
REMARK    5  A    between atoms: C_21  and  O_23
REMARK    6  A    between atoms: O_23  and  C_24
REMARK    7  A    between atoms: O_25  and  C_26
REMARK    8  A    between atoms: C_26  and  C_27
REMARK    9  A    between atoms: C_26  and  C_28
REMARK   10  A    between atoms: C_30  and  C_42
REMARK   11  A    between atoms: C_31  and  C_32
REMARK   12  A    between atoms: C_32  and  O_34
REMARK   13  A    between atoms: O_34  and  C_35
REMARK   14  A    between atoms: C_35  and  C_36
REMARK                            x       y       z     vdW  Elec       q    Type
REMARK                         _______ _______ _______ _____ _____    ______ ____
ROOT
ATOM      1  C   UNL     1      -4.833   0.851   1.118  0.00  0.00    +0.128 C 
ATOM      2  C   UNL     1      -6.208   0.377   1.514  0.00  0.00    +0.027 C 
ATOM      3  C   UNL     1      -6.822   0.876   2.608  0.00  0.00    +0.016 C 
ATOM      4  C   UNL     1      -8.197   0.404   3.011  0.00  0.00    +0.059 C 
ATOM      5  C   UNL     1      -8.988   0.000   1.765  0.00  0.00    +0.032 C 
ATOM      6  C   UNL     1      -8.212  -1.101   1.033  0.00  0.00    +0.088 C 
ATOM      7  C   UNL     1      -6.832  -0.595   0.712  0.00  0.00    +0.162 C 
ATOM      8  O   UNL     1      -6.247  -1.034  -0.258  0.00  0.00    -0.292 OA
ATOM      9  N   UNL     1      -6.203   1.823   3.380  0.00  0.00    -0.321 N 
ATOM     10  C   UNL     1      -4.848   1.988   3.323  0.00  0.00    +0.016 C 
ATOM     11  C   UNL     1      -4.151   1.542   2.263  0.00  0.00    +0.068 C 
ATOM     12  C   UNL     1      -4.130   2.681   4.452  0.00  0.00    +0.061 C 
ATOM     13  H   UNL     1      -6.798   2.458   4.053  0.00  0.00    +0.152 HD
ENDROOT
BRANCH   1  18
ATOM     14  C   UNL     1      -6.105   4.900  -1.608  0.00  0.00    +0.086 C 
ATOM     15  C   UNL     1      -5.507   3.571  -1.223  0.00  0.00    +0.102 A 
ATOM     16  C   UNL     1      -4.781   2.773  -2.026  0.00  0.00    +0.044 A 
ATOM     17  C   UNL     1      -4.425   1.638  -1.262  0.00  0.00    +0.046 A 
ATOM     18  C   UNL     1      -4.954   1.811  -0.038  0.00  0.00    +0.117 A 
ATOM     19  O   UNL     1      -5.613   2.981  -0.021  0.00  0.00    -0.464 OA
ENDBRANCH   1  18
BRANCH   5  20
ATOM     20  C   UNL     1     -10.344  -0.515   2.172  0.00  0.00    -0.040 A 
ATOM     21  C   UNL     1     -10.444  -1.621   2.996  0.00  0.00    +0.008 A 
ATOM     22  C   UNL     1     -11.686  -2.094   3.376  0.00  0.00    +0.050 A 
ATOM     23  C   UNL     1     -12.835  -1.466   2.922  0.00  0.00    +0.162 A 
ATOM     24  C   UNL     1     -12.735  -0.357   2.088  0.00  0.00    +0.162 A 
ATOM     25  C   UNL     1     -11.487   0.115   1.715  0.00  0.00    +0.053 A 
BRANCH  24  26
ATOM     26  O   UNL     1     -13.860   0.262   1.639  0.00  0.00    -0.491 OA
ATOM     27  C   UNL     1     -13.681   1.395   0.787  0.00  0.00    +0.277 C 
ENDBRANCH  24  26
BRANCH  23  28
ATOM     28  O   UNL     1     -14.057  -1.934   3.290  0.00  0.00    -0.486 OA
BRANCH  28  29
ATOM     29  C   UNL     1     -14.085  -3.004   4.238  0.00  0.00    +0.167 C 
ATOM     30  C   UNL     1     -15.419  -2.989   4.986  0.00  0.00    +0.051 C 
ATOM     31  C   UNL     1     -13.925  -4.338   3.506  0.00  0.00    +0.051 C 
ENDBRANCH  28  29
ENDBRANCH  23  28
ENDBRANCH   5  20
BRANCH  11  32
ATOM     32  C   UNL     1      -2.749   1.723   2.228  0.00  0.00    +0.338 C 
ATOM     33  O   UNL     1      -2.197   2.367   3.101  0.00  0.00    -0.245 OA
BRANCH  32  34
ATOM     34  O   UNL     1      -2.023   1.182   1.228  0.00  0.00    -0.459 OA
BRANCH  34  35
ATOM     35  C   UNL     1      -0.612   1.404   1.256  0.00  0.00    +0.264 C 
BRANCH  35  36
ATOM     36  C   UNL     1       0.036   0.719   0.051  0.00  0.00    +0.156 C 
ATOM     37  C   UNL     1       1.561   0.994   0.033  0.00  0.00    +0.037 C 
ATOM     38  C   UNL     1       2.071  -0.228  -0.779  0.00  0.00    +0.031 C 
ATOM     39  C   UNL     1       1.094  -1.341  -0.344  0.00  0.00    +0.160 C 
ATOM     40  O   UNL     1      -0.086  -0.708   0.162  0.00  0.00    -0.373 OA
ENDBRANCH  35  36
ENDBRANCH  34  35
ENDBRANCH  32  34
ENDBRANCH  11  32
TORSDOF 9
