REMARK  Name = ZINC45626427
REMARK  5 active torsions:
REMARK  status: ('A' for Active; 'I' for Inactive)
REMARK    1  A    between atoms: C_1  and  C_2
REMARK    2  A    between atoms: C_8  and  C_10
REMARK    3  A    between atoms: C_10  and  N_11
REMARK    4  A    between atoms: C_12  and  C_16
REMARK    5  A    between atoms: C_18  and  N_23
REMARK                            x       y       z     vdW  Elec       q    Type
REMARK                         _______ _______ _______ _____ _____    ______ ____
ROOT
ATOM      1  N   UNL     1       3.017  -0.759   2.066  0.00  0.00    -0.225 N 
ATOM      2  C   UNL     1       3.921  -1.738   1.812  0.00  0.00    +0.183 A 
ATOM      3  N   UNL     1       4.644  -1.887   2.901  0.00  0.00    -0.108 NA
ATOM      4  N   UNL     1       4.255  -1.072   3.814  0.00  0.00    -0.023 NA
ATOM      5  N   UNL     1       3.277  -0.350   3.385  0.00  0.00    -0.044 NA
ENDROOT
BRANCH   2   6
ATOM      6  C   UNL     1       4.066  -2.495   0.548  0.00  0.00    +0.036 A 
ATOM      7  C   UNL     1       4.135  -1.818  -0.668  0.00  0.00    +0.035 A 
ATOM      8  C   UNL     1       4.271  -2.534  -1.848  0.00  0.00    +0.025 A 
ATOM      9  C   UNL     1       4.338  -3.922  -1.815  0.00  0.00    +0.024 A 
ATOM     10  C   UNL     1       4.270  -4.593  -0.609  0.00  0.00    +0.018 A 
ATOM     11  C   UNL     1       4.140  -3.888   0.572  0.00  0.00    +0.029 A 
ATOM     12 BR   UNL     1       4.055  -4.812   2.220  0.00  0.00    -0.050 Br
BRANCH   8  13
ATOM     13  N   UNL     1       4.341  -1.860  -3.070  0.00  0.00    -0.358 N 
ATOM     14  H   UNL     1       4.293  -0.891  -3.093  0.00  0.00    +0.142 HD
ATOM     15  H   UNL     1       4.436  -2.361  -3.895  0.00  0.00    +0.142 HD
ENDBRANCH   8  13
ENDBRANCH   2   6
BRANCH   1  16
ATOM     16  C   UNL     1       1.994  -0.235   1.158  0.00  0.00    +0.151 C 
BRANCH  16  23
ATOM     17  C   UNL     1      -0.659   0.808   0.482  0.00  0.00    +0.008 C 
ATOM     18  C   UNL     1      -0.276  -0.645   0.196  0.00  0.00    -0.009 C 
ATOM     19  C   UNL     1      -1.524  -1.527   0.272  0.00  0.00    +0.003 C 
ATOM     20  C   UNL     1      -2.135  -1.427   1.671  0.00  0.00    +0.000 C 
ATOM     21  C   UNL     1      -1.114  -1.898   2.708  0.00  0.00    +0.000 C 
ATOM     22  C   UNL     1       0.135  -1.017   2.632  0.00  0.00    +0.005 C 
ATOM     23  C   UNL     1       0.746  -1.117   1.233  0.00  0.00    +0.013 C 
ENDBRANCH  16  23
ENDBRANCH   1  16
TORSDOF 4
