REMARK  Name = ZINC12054588
REMARK  7 active torsions:
REMARK  status: ('A' for Active; 'I' for Inactive)
REMARK    1  A    between atoms: C_4  and  C_7
REMARK    2  A    between atoms: C_8  and  C_9
REMARK    3  A    between atoms: N_11  and  C_12
REMARK    4  A    between atoms: N_11  and  C_23
REMARK    5  A    between atoms: C_12  and  C_13
REMARK    6  A    between atoms: C_18  and  N_65
REMARK    7  A    between atoms: C_23  and  C_24
REMARK                            x       y       z     vdW  Elec       q    Type
REMARK                         _______ _______ _______ _____ _____    ______ ____
ROOT
ATOM      1  C   UNL     1       3.644   6.040  -0.001  0.00  0.00    +0.240 C 
ATOM      2  O   UNL     1       4.708   5.450  -0.015  0.00  0.00    -0.271 OA
ATOM      3  N   UNL     1       3.619   7.387   0.006  0.00  0.00    -0.295 N 
ENDROOT
BRANCH   1   5
ATOM      4  C   UNL     1       2.413   3.937  -0.000  0.00  0.00    +0.013 C 
ATOM      5  C   UNL     1       2.389   5.285   0.007  0.00  0.00    +0.068 C 
BRANCH   4   9
ATOM      6  C   UNL     1      -1.221   1.750   0.017  0.00  0.00    +0.000 A 
ATOM      7  C   UNL     1      -0.013   1.076   0.008  0.00  0.00    +0.001 A 
ATOM      8  C   UNL     1       1.173   1.780   0.000  0.00  0.00    +0.008 A 
ATOM      9  C   UNL     1       1.152   3.178   0.008  0.00  0.00    -0.025 A 
ATOM     10  C   UNL     1      -0.073   3.851   0.023  0.00  0.00    +0.008 A 
ATOM     11  C   UNL     1      -1.251   3.133   0.031  0.00  0.00    +0.001 A 
ENDBRANCH   4   9
ENDBRANCH   1   5
BRANCH   3  12
ATOM     12  C   UNL     1       4.874   8.143  -0.002  0.00  0.00    +0.111 C 
BRANCH  12  13
ATOM     13  C   UNL     1       5.297   8.413  -1.448  0.00  0.00    +0.003 C 
ATOM     14  C   UNL     1       5.626   7.088  -2.141  0.00  0.00    -0.014 C 
ATOM     15  C   UNL     1       6.106   7.370  -3.567  0.00  0.00    -0.078 C 
ATOM     16  C   UNL     1       6.993   9.525  -2.904  0.00  0.00    -0.078 C 
ATOM     17  C   UNL     1       6.540   9.308  -1.458  0.00  0.00    -0.014 C 
ATOM     18  N   UNL     1       7.318   8.215  -3.507  0.00  0.00    +0.382 N 
ATOM     19  H   UNL     1       8.022   7.746  -2.926  0.00  0.00    -0.081 HD
BRANCH  18  20
ATOM     20  C   UNL     1       7.867   8.407  -4.865  0.00  0.00    -0.069 C 
ATOM     21  C   UNL     1       6.839   9.093  -5.789  0.00  0.00    -0.015 C 
ATOM     22  C   UNL     1       7.050   8.412  -7.164  0.00  0.00    -0.002 C 
ATOM     23  C   UNL     1       7.325   6.938  -6.776  0.00  0.00    -0.002 C 
ATOM     24  C   UNL     1       8.175   7.036  -5.493  0.00  0.00    -0.015 C 
ENDBRANCH  18  20
ENDBRANCH  12  13
ENDBRANCH   3  12
BRANCH   3  25
ATOM     25  C   UNL     1       2.337   8.097   0.023  0.00  0.00    +0.139 C 
BRANCH  25  26
ATOM     26  C   UNL     1       1.906   8.336   1.471  0.00  0.00    +0.136 C 
ATOM     27  C   UNL     1       0.554   9.075   1.499  0.00  0.00    +0.035 C 
ATOM     28  C   UNL     1      -0.380   8.128   2.292  0.00  0.00    +0.031 C 
ATOM     29  C   UNL     1       0.633   7.254   3.074  0.00  0.00    +0.160 C 
ATOM     30  O   UNL     1       1.722   7.077   2.140  0.00  0.00    -0.375 OA
ENDBRANCH  25  26
ENDBRANCH   3  25
TORSDOF 7
