REMARK  Name = ZINC04880727
REMARK  8 active torsions:
REMARK  status: ('A' for Active; 'I' for Inactive)
REMARK    1  A    between atoms: C_1  and  C_2
REMARK    2  A    between atoms: C_2  and  O_3
REMARK    3  A    between atoms: O_3  and  C_4
REMARK    4  A    between atoms: C_7  and  N_10
REMARK    5  A    between atoms: C_11  and  C_13
REMARK    6  A    between atoms: N_20  and  N_21
REMARK    7  A    between atoms: C_22  and  C_23
REMARK    8  A    between atoms: C_22  and  C_24
REMARK                            x       y       z     vdW  Elec       q    Type
REMARK                         _______ _______ _______ _____ _____    ______ ____
ROOT
ATOM      1  C   UNL     1       3.054  -1.276   7.416  0.00  0.00    +0.149 C 
ATOM      2  C   UNL     1       4.573  -1.431   7.348  0.00  0.00    +0.120 C 
ATOM      3  C   UNL     1       5.128  -2.068   8.578  0.00  0.00    +0.220 C 
ATOM      4  O   UNL     1       6.286  -1.819   8.838  0.00  0.00    -0.275 OA
ATOM      5  N   UNL     1       4.495  -2.876   9.419  0.00  0.00    -0.264 N 
ATOM      6  C   UNL     1       3.155  -3.195   9.325  0.00  0.00    +0.183 C 
ATOM      7  N   UNL     1       2.510  -3.707  10.351  0.00  0.00    -0.126 NA
ATOM      8  S   UNL     1       2.326  -2.897   7.791  0.00  0.00    -0.075 S 
ATOM      9  H   UNL     1       5.005  -3.267  10.145  0.00  0.00    +0.157 HD
ENDROOT
BRANCH   1  11
ATOM     10  N   UNL     1       1.485   0.062   6.050  0.00  0.00    -0.285 N 
ATOM     11  C   UNL     1       2.535  -0.782   6.090  0.00  0.00    +0.231 C 
ATOM     12  O   UNL     1       3.062  -1.145   5.060  0.00  0.00    -0.274 OA
ATOM     13  H   UNL     1       1.112   0.412   6.874  0.00  0.00    +0.155 HD
BRANCH  10  17
ATOM     14  C   UNL     1      -0.157   1.170   2.381  0.00  0.00    +0.121 A 
ATOM     15  C   UNL     1      -0.140   2.073   3.433  0.00  0.00    +0.047 A 
ATOM     16  C   UNL     1       0.399   1.705   4.651  0.00  0.00    +0.027 A 
ATOM     17  C   UNL     1       0.933   0.434   4.817  0.00  0.00    +0.034 A 
ATOM     18  C   UNL     1       0.920  -0.467   3.761  0.00  0.00    +0.027 A 
ATOM     19  C   UNL     1       0.376  -0.100   2.546  0.00  0.00    +0.047 A 
BRANCH  14  20
ATOM     20  O   UNL     1      -0.693   1.532   1.184  0.00  0.00    -0.492 OA
BRANCH  20  22
ATOM     21  C   UNL     1      -1.778   3.076  -0.325  0.00  0.00    +0.048 C 
ATOM     22  C   UNL     1      -1.224   2.854   1.084  0.00  0.00    +0.225 C 
ENDBRANCH  20  22
ENDBRANCH  14  20
ENDBRANCH  10  17
ENDBRANCH   1  11
BRANCH   7  23
ATOM     23  N   UNL     1       3.183  -3.936  11.558  0.00  0.00    -0.151 NA
ATOM     24  C   UNL     1       2.542  -4.445  12.579  0.00  0.00    +0.074 C 
ATOM     25  C   UNL     1       1.080  -4.786  12.456  0.00  0.00    +0.069 C 
BRANCH  24  26
ATOM     26  C   UNL     1       3.245  -4.683  13.839  0.00  0.00    +0.035 A 
ATOM     27  C   UNL     1       4.574  -4.448  14.157  0.00  0.00    +0.017 A 
ATOM     28  C   UNL     1       5.005  -4.755  15.427  0.00  0.00    +0.008 A 
ATOM     29  C   UNL     1       4.127  -5.283  16.318  0.00  0.00    +0.046 A 
ATOM     30  S   UNL     1       2.618  -5.360  15.368  0.00  0.00    -0.095 S 
ENDBRANCH  24  26
ENDBRANCH   7  23
TORSDOF 6
