REMARK  Name = ZINC22110870
REMARK  9 active torsions:
REMARK  status: ('A' for Active; 'I' for Inactive)
REMARK    1  A    between atoms: C_1  and  O_2
REMARK    2  A    between atoms: O_2  and  C_3
REMARK    3  A    between atoms: C_8  and  N_9
REMARK    4  A    between atoms: C_10  and  C_12
REMARK    5  A    between atoms: C_12  and  C_13
REMARK    6  A    between atoms: C_15  and  C_18
REMARK    7  A    between atoms: C_18  and  O_19
REMARK    8  A    between atoms: O_19  and  C_20
REMARK    9  A    between atoms: C_20  and  C_22
REMARK                            x       y       z     vdW  Elec       q    Type
REMARK                         _______ _______ _______ _____ _____    ______ ____
ROOT
ATOM      1  C   UNL     1       4.648   5.460  -5.496  0.00  0.00    +0.087 A 
ATOM      2  N   UNL     1       4.484   4.234  -5.056  0.00  0.00    -0.245 NA
ATOM      3  C   UNL     1       4.002   3.994  -3.854  0.00  0.00    +0.086 A 
ATOM      4  C   UNL     1       3.668   5.051  -3.070  0.00  0.00    +0.073 A 
ATOM      5  S   UNL     1       4.096   6.409  -4.151  0.00  0.00    -0.080 S 
ENDROOT
BRANCH   1   6
ATOM      6  C   UNL     1       5.181   5.924  -6.827  0.00  0.00    +0.159 C 
BRANCH   6   8
ATOM      7  N   UNL     1       4.282   6.470  -9.066  0.00  0.00    -0.282 N 
ATOM      8  C   UNL     1       4.041   6.064  -7.803  0.00  0.00    +0.224 C 
ATOM      9  O   UNL     1       2.908   5.812  -7.452  0.00  0.00    -0.275 OA
ATOM     10  H   UNL     1       5.294   6.786  -9.359  0.00  0.00    +0.155 HD
BRANCH   7  16
ATOM     11  C   UNL     1       3.310   7.342 -11.104  0.00  0.00    +0.141 A 
ATOM     12  C   UNL     1       2.279   7.357 -12.030  0.00  0.00    +0.047 A 
ATOM     13  C   UNL     1       1.186   6.527 -11.861  0.00  0.00    +0.004 A 
ATOM     14  C   UNL     1       1.118   5.680 -10.770  0.00  0.00    +0.002 A 
ATOM     15  C   UNL     1       2.145   5.655  -9.845  0.00  0.00    +0.027 A 
ATOM     16  C   UNL     1       3.242   6.489 -10.005  0.00  0.00    +0.076 A 
BRANCH  11  18
ATOM     17  C   UNL     1       4.387   9.005 -12.420  0.00  0.00    +0.277 C 
ATOM     18  O   UNL     1       4.385   8.157 -11.269  0.00  0.00    -0.493 OA
ENDBRANCH  11  18
ENDBRANCH   7  16
ENDBRANCH   6   8
ENDBRANCH   1   6
BRANCH   3  19
ATOM     19  C   UNL     1       3.819   2.581  -3.363  0.00  0.00    +0.288 C 
BRANCH  19  20
ATOM     20  O   UNL     1       3.275   2.603  -2.017  0.00  0.00    -0.458 OA
BRANCH  20  21
ATOM     21  C   UNL     1       3.052   1.417  -1.431  0.00  0.00    +0.320 C 
ATOM     22  O   UNL     1       3.302   0.394  -2.023  0.00  0.00    -0.250 OA
BRANCH  21  23
ATOM     23  C   UNL     1       2.488   1.360  -0.034  0.00  0.00    +0.165 C 
ATOM     24  C   UNL     1       1.158   2.062  -0.008  0.00  0.00    +0.013 A 
ATOM     25  C   UNL     1       1.121   3.445   0.007  0.00  0.00    +0.008 A 
ATOM     26  C   UNL     1      -0.092   4.108   0.029  0.00  0.00    +0.001 A 
ATOM     27  C   UNL     1      -1.273   3.390   0.034  0.00  0.00    +0.004 A 
ATOM     28  C   UNL     1      -1.242   2.010   0.015  0.00  0.00    +0.046 A 
ATOM     29  C   UNL     1      -0.024   1.340  -0.000  0.00  0.00    +0.133 A 
ATOM     30  O   UNL     1      -0.015  -0.015  -0.013  0.00  0.00    -0.455 OA
ATOM     31  C   UNL     1       1.094  -0.690   0.373  0.00  0.00    +0.133 A 
ATOM     32  C   UNL     1       2.336  -0.077   0.382  0.00  0.00    +0.013 A 
ATOM     33  C   UNL     1       3.454  -0.791   0.778  0.00  0.00    +0.008 A 
ATOM     34  C   UNL     1       3.334  -2.111   1.166  0.00  0.00    +0.001 A 
ATOM     35  C   UNL     1       2.095  -2.725   1.160  0.00  0.00    +0.004 A 
ATOM     36  C   UNL     1       0.977  -2.019   0.765  0.00  0.00    +0.046 A 
ENDBRANCH  21  23
ENDBRANCH  20  21
ENDBRANCH  19  20
ENDBRANCH   3  19
TORSDOF 8
