REMARK  Name = ZINC17162877
REMARK  10 active torsions:
REMARK  status: ('A' for Active; 'I' for Inactive)
REMARK    1  A    between atoms: C_1  and  C_2
REMARK    2  A    between atoms: C_2  and  C_3
REMARK    3  A    between atoms: C_3  and  N_4
REMARK    4  A    between atoms: C_13  and  C_15
REMARK    5  A    between atoms: N_17  and  N_18
REMARK    6  A    between atoms: C_19  and  C_21
REMARK    7  A    between atoms: C_21  and  C_23
REMARK    8  A    between atoms: C_21  and  N_30
REMARK    9  A    between atoms: C_23  and  C_24
REMARK   10  A    between atoms: C_31  and  C_33
REMARK                            x       y       z     vdW  Elec       q    Type
REMARK                         _______ _______ _______ _____ _____    ______ ____
ROOT
ATOM      1  N   UNL     1       3.550   5.841   3.741  0.00  0.00    -0.233 N 
ATOM      2  C   UNL     1       4.514   5.066   4.276  0.00  0.00    +0.250 C 
ATOM      3  O   UNL     1       4.427   3.858   4.211  0.00  0.00    -0.272 OA
ATOM      4  H   UNL     1       3.620   6.807   3.792  0.00  0.00    +0.173 HD
ENDROOT
BRANCH   1   7
ATOM      5  C   UNL     1       1.483   6.026   2.574  0.00  0.00    +0.281 C 
ATOM      6  O   UNL     1       1.570   7.237   2.639  0.00  0.00    -0.267 OA
ATOM      7  N   UNL     1       2.447   5.251   3.110  0.00  0.00    -0.229 N 
ATOM      8  H   UNL     1       2.377   4.285   3.058  0.00  0.00    +0.173 HD
BRANCH   5  18
ATOM      9  N   UNL     1      -0.755   3.484   1.277  0.00  0.00    -0.228 N 
ATOM     10  C   UNL     1      -1.795   4.112   0.692  0.00  0.00    +0.275 A 
ATOM     11  O   UNL     1      -2.693   3.475   0.171  0.00  0.00    -0.266 OA
ATOM     12  C   UNL     1      -1.822   5.581   0.701  0.00  0.00    +0.050 A 
ATOM     13  C   UNL     1      -2.851   6.322   0.129  0.00  0.00    +0.014 A 
ATOM     14  C   UNL     1      -2.799   7.699   0.175  0.00  0.00    +0.001 A 
ATOM     15  C   UNL     1      -1.734   8.348   0.785  0.00  0.00    +0.001 A 
ATOM     16  C   UNL     1      -0.705   7.632   1.358  0.00  0.00    +0.011 A 
ATOM     17  C   UNL     1      -0.738   6.242   1.322  0.00  0.00    +0.020 A 
ATOM     18  C   UNL     1       0.321   5.404   1.909  0.00  0.00    +0.155 A 
ATOM     19  N   UNL     1       0.218   4.100   1.835  0.00  0.00    -0.163 NA
BRANCH   9  20
ATOM     20  C   UNL     1      -0.735   2.019   1.269  0.00  0.00    +0.147 C 
BRANCH  20  22
ATOM     21  C   UNL     1       0.002  -0.004   0.002  0.00  0.00    +0.005 C 
ATOM     22  C   UNL     1      -0.019   1.526   0.010  0.00  0.00    +0.020 C 
ENDBRANCH  20  22
ENDBRANCH   9  20
ENDBRANCH   5  18
ENDBRANCH   1   7
BRANCH   2  23
ATOM     23  C   UNL     1       5.700   5.700   4.955  0.00  0.00    +0.165 C 
BRANCH  23  24
ATOM     24  N   UNL     1       6.598   4.653   5.449  0.00  0.00    -0.300 N 
ATOM     25  C   UNL     1       7.908   4.917   5.626  0.00  0.00    +0.245 C 
ATOM     26  O   UNL     1       8.344   6.023   5.376  0.00  0.00    -0.270 OA
ATOM     27  H   UNL     1       6.250   3.770   5.649  0.00  0.00    +0.150 HD
BRANCH  25  28
ATOM     28  C   UNL     1       8.813   3.860   6.125  0.00  0.00    +0.037 A 
ATOM     29  C   UNL     1       8.314   2.590   6.419  0.00  0.00    +0.013 A 
ATOM     30  C   UNL     1       9.166   1.607   6.879  0.00  0.00    +0.001 A 
ATOM     31  C   UNL     1      10.510   1.881   7.059  0.00  0.00    +0.000 A 
ATOM     32  C   UNL     1      11.010   3.139   6.776  0.00  0.00    +0.001 A 
ATOM     33  C   UNL     1      10.170   4.129   6.310  0.00  0.00    +0.013 A 
ENDBRANCH  25  28
ENDBRANCH  23  24
BRANCH  23  34
ATOM     34  C   UNL     1       5.219   6.555   6.129  0.00  0.00    +0.067 C 
BRANCH  34  35
ATOM     35  C   UNL     1       6.391   7.286   6.731  0.00  0.00    -0.045 A 
ATOM     36  C   UNL     1       7.114   6.707   7.757  0.00  0.00    +0.004 A 
ATOM     37  C   UNL     1       8.192   7.375   8.307  0.00  0.00    +0.000 A 
ATOM     38  C   UNL     1       8.541   8.628   7.838  0.00  0.00    +0.000 A 
ATOM     39  C   UNL     1       7.815   9.210   6.815  0.00  0.00    +0.000 A 
ATOM     40  C   UNL     1       6.740   8.539   6.262  0.00  0.00    +0.004 A 
ENDBRANCH  34  35
ENDBRANCH  23  34
ENDBRANCH   2  23
TORSDOF 9
