REMARK  Name = ZINC40965222
REMARK  8 active torsions:
REMARK  status: ('A' for Active; 'I' for Inactive)
REMARK    1  A    between atoms: C_1  and  C_2
REMARK    2  A    between atoms: C_2  and  C_3
REMARK    3  A    between atoms: C_3  and  S_4
REMARK    4  A    between atoms: S_4  and  C_5
REMARK    5  A    between atoms: C_9  and  C_13
REMARK    6  A    between atoms: C_18  and  O_19
REMARK    7  A    between atoms: O_19  and  C_20
REMARK    8  A    between atoms: C_20  and  C_21
REMARK                            x       y       z     vdW  Elec       q    Type
REMARK                         _______ _______ _______ _____ _____    ______ ____
ROOT
ATOM      1  C   UNL     1       1.641  -2.747   2.702  0.00  0.00    +0.159 A 
ATOM      2  N   UNL     1       2.156  -1.958   3.607  0.00  0.00    -0.151 NA
ATOM      3  N   UNL     1       2.821  -2.469   4.717  0.00  0.00    -0.212 N 
ATOM      4  C   UNL     1       3.474  -1.994   5.845  0.00  0.00    +0.143 A 
ATOM      5  C   UNL     1       3.912  -3.068   6.549  0.00  0.00    +0.095 A 
ATOM      6  N   UNL     1       3.545  -4.181   5.882  0.00  0.00    -0.220 NA
ATOM      7  C   UNL     1       2.904  -3.833   4.805  0.00  0.00    +0.197 A 
ATOM      8  S   UNL     1       2.045  -4.365   3.341  0.00  0.00    -0.022 S 
ENDROOT
BRANCH   5   9
ATOM      9  C   UNL     1       4.664  -3.025   7.827  0.00  0.00    +0.044 A 
ATOM     10  C   UNL     1       4.976  -1.801   8.414  0.00  0.00    +0.014 A 
ATOM     11  C   UNL     1       5.675  -1.767   9.604  0.00  0.00    +0.001 A 
ATOM     12  C   UNL     1       6.067  -2.944  10.216  0.00  0.00    +0.004 A 
ATOM     13  C   UNL     1       5.763  -4.164   9.641  0.00  0.00    +0.046 A 
ATOM     14  C   UNL     1       5.058  -4.213   8.450  0.00  0.00    +0.130 A 
BRANCH  14  15
ATOM     15  O   UNL     1       4.753  -5.412   7.887  0.00  0.00    -0.492 OA
BRANCH  15  16
ATOM     16  C   UNL     1       5.188  -6.583   8.580  0.00  0.00    +0.226 C 
ATOM     17  C   UNL     1       4.757  -7.827   7.800  0.00  0.00    +0.048 C 
ENDBRANCH  15  16
ENDBRANCH  14  15
ENDBRANCH   5   9
BRANCH   1  18
ATOM     18  S   UNL     1       0.767  -2.325   1.232  0.00  0.00    -0.097 S 
BRANCH  18  19
ATOM     19  C   UNL     1       0.742  -0.511   1.242  0.00  0.00    +0.076 C 
BRANCH  19  21
ATOM     20  C   UNL     1      -0.019   1.526   0.010  0.00  0.00    +0.004 C 
ATOM     21  C   UNL     1       0.002  -0.004   0.002  0.00  0.00    +0.008 C 
ENDBRANCH  19  21
ENDBRANCH  18  19
ENDBRANCH   1  18
TORSDOF 6
