REMARK  Name = ZINC36556736
REMARK  16 active torsions:
REMARK  status: ('A' for Active; 'I' for Inactive)
REMARK    1  A    between atoms: C_1  and  C_2
REMARK    2  A    between atoms: C_2  and  O_3
REMARK    3  A    between atoms: O_3  and  C_4
REMARK    4  A    between atoms: C_4  and  C_6
REMARK    5  A    between atoms: C_8  and  C_34
REMARK    6  A    between atoms: C_10  and  C_29
REMARK    7  A    between atoms: C_12  and  C_27
REMARK    8  A    between atoms: C_12  and  O_28
REMARK    9  A    between atoms: N_15  and  N_16
REMARK   10  A    between atoms: N_16  and  S_17
REMARK   11  A    between atoms: S_17  and  C_20
REMARK   12  A    between atoms: C_23  and  C_26
REMARK   13  A    between atoms: C_29  and  O_31
REMARK   14  A    between atoms: O_31  and  C_32
REMARK   15  A    between atoms: C_32  and  C_33
REMARK   16  A    between atoms: C_37  and  C_40
REMARK                            x       y       z     vdW  Elec       q    Type
REMARK                         _______ _______ _______ _____ _____    ______ ____
ROOT
ATOM      1  C   UNL     1      -2.877  -2.428   0.015  0.00  0.00    +0.152 C 
ATOM      2  C   UNL     1      -2.759  -3.956  -0.007  0.00  0.00    +0.055 C 
ATOM      3  C   UNL     1      -4.151  -4.572  -0.152  0.00  0.00    +0.138 C 
ATOM      4  C   UNL     1      -4.760  -4.167  -1.496  0.00  0.00    +0.082 C 
ATOM      5  C   UNL     1      -4.954  -2.647  -1.530  0.00  0.00    +0.088 C 
ATOM      6  C   UNL     1      -3.631  -1.982  -1.219  0.00  0.00    +0.055 C 
ATOM      7  N   UNL     1      -3.158  -1.070  -1.982  0.00  0.00    -0.174 NA
ATOM      8  C   UNL     1      -3.821  -4.587  -2.628  0.00  0.00    +0.042 C 
ENDROOT
BRANCH   2   9
ATOM      9  C   UNL     1      -2.130  -4.429   1.278  0.00  0.00    -0.042 A 
ATOM     10  C   UNL     1      -2.746  -4.165   2.487  0.00  0.00    +0.004 A 
ATOM     11  C   UNL     1      -2.170  -4.599   3.666  0.00  0.00    +0.003 A 
ATOM     12  C   UNL     1      -0.978  -5.299   3.636  0.00  0.00    -0.050 A 
ATOM     13  C   UNL     1      -0.363  -5.565   2.427  0.00  0.00    +0.003 A 
ATOM     14  C   UNL     1      -0.941  -5.134   1.248  0.00  0.00    +0.004 A 
ATOM     15  C   UNL     1      -0.349  -5.772   4.921  0.00  0.00    +0.044 C 
ENDBRANCH   2   9
BRANCH   1  16
ATOM     16  C   UNL     1      -1.502  -1.813   0.018  0.00  0.00    +0.316 C 
ATOM     17  O   UNL     1      -0.523  -2.522   0.011  0.00  0.00    -0.250 OA
BRANCH  16  18
ATOM     18  O   UNL     1      -1.363  -0.478   0.028  0.00  0.00    -0.464 OA
BRANCH  18  20
ATOM     19  C   UNL     1      -0.072   1.565   0.043  0.00  0.00    +0.048 C 
ATOM     20  C   UNL     1      -0.030   0.036   0.030  0.00  0.00    +0.229 C 
ENDBRANCH  18  20
ENDBRANCH  16  18
ENDBRANCH   1  16
BRANCH   7  21
ATOM     21  N   UNL     1      -3.822  -0.738  -3.170  0.00  0.00    -0.137 N 
ATOM     22  H   UNL     1      -4.681  -1.139  -3.375  0.00  0.00    +0.197 HD
BRANCH  21  23
ATOM     23  S   UNL     1      -3.140   0.341  -4.226  0.00  0.00    +0.086 S 
ATOM     24  O   UNL     1      -3.968   0.357  -5.381  0.00  0.00    -0.149 OA
ATOM     25  O   UNL     1      -2.853   1.514  -3.478  0.00  0.00    -0.149 OA
BRANCH  23  26
ATOM     26  C   UNL     1      -1.590  -0.330  -4.727  0.00  0.00    +0.110 A 
ATOM     27  C   UNL     1      -0.447  -0.041  -4.006  0.00  0.00    +0.029 A 
ATOM     28  C   UNL     1       0.770  -0.567  -4.399  0.00  0.00    +0.005 A 
ATOM     29  C   UNL     1       0.843  -1.382  -5.513  0.00  0.00    -0.050 A 
ATOM     30  C   UNL     1      -0.301  -1.672  -6.234  0.00  0.00    +0.005 A 
ATOM     31  C   UNL     1      -1.518  -1.149  -5.838  0.00  0.00    +0.029 A 
ATOM     32  C   UNL     1       2.169  -1.955  -5.942  0.00  0.00    +0.044 C 
ENDBRANCH  23  26
ENDBRANCH  21  23
ENDBRANCH   7  21
BRANCH   4  33
ATOM     33  O   UNL     1      -6.024  -4.813  -1.660  0.00  0.00    -0.388 OA
ATOM     34  H   UNL     1      -6.468  -4.601  -2.493  0.00  0.00    +0.210 HD
ENDBRANCH   4  33
BRANCH   3  35
ATOM     35  C   UNL     1      -4.044  -6.073  -0.084  0.00  0.00    +0.314 C 
ATOM     36  O   UNL     1      -2.965  -6.596   0.065  0.00  0.00    -0.250 OA
BRANCH  35  37
ATOM     37  O   UNL     1      -5.148  -6.830  -0.189  0.00  0.00    -0.465 OA
BRANCH  37  38
ATOM     38  C   UNL     1      -4.972  -8.246  -0.116  0.00  0.00    +0.229 C 
ATOM     39  C   UNL     1      -6.331  -8.937  -0.254  0.00  0.00    +0.048 C 
ENDBRANCH  37  38
ENDBRANCH  35  37
ENDBRANCH   3  35
TORSDOF 11
