REMARK  Name = ZINC17102474
REMARK  6 active torsions:
REMARK  status: ('A' for Active; 'I' for Inactive)
REMARK    1  A    between atoms: C_4  and  C_7
REMARK    2  A    between atoms: C_7  and  N_8
REMARK    3  A    between atoms: C_9  and  C_11
REMARK    4  A    between atoms: C_15  and  N_16
REMARK    5  A    between atoms: C_17  and  C_19
REMARK    6  A    between atoms: C_25  and  C_27
REMARK                            x       y       z     vdW  Elec       q    Type
REMARK                         _______ _______ _______ _____ _____    ______ ____
ROOT
ATOM      1  C   UNL     1       2.738  -0.321  -2.693  0.00  0.00    +0.069 A 
ATOM      2  C   UNL     1       1.804   0.173  -1.696  0.00  0.00    -0.023 A 
ATOM      3  C   UNL     1       2.182   1.306  -1.065  0.00  0.00    -0.004 A 
ATOM      4  S   UNL     1       3.751   1.718  -1.776  0.00  0.00    -0.077 S 
ATOM      5  C   UNL     1       3.903   0.405  -2.896  0.00  0.00    +0.084 A 
ATOM      6  C   UNL     1       1.428   2.042  -0.001  0.00  0.00    +0.043 C 
ATOM      7  C   UNL     1      -0.019   1.527   0.010  0.00  0.00    +0.005 C 
ATOM      8  C   UNL     1       0.002  -0.004   0.002  0.00  0.00    +0.005 C 
ATOM      9  C   UNL     1       0.485  -0.510  -1.359  0.00  0.00    +0.037 C 
ENDROOT
BRANCH   1  11
ATOM     10  N   UNL     1       2.870  -2.737  -2.991  0.00  0.00    -0.307 N 
ATOM     11  C   UNL     1       2.460  -1.541  -3.458  0.00  0.00    +0.247 C 
ATOM     12  O   UNL     1       1.858  -1.474  -4.513  0.00  0.00    -0.270 OA
ATOM     13  H   UNL     1       3.349  -2.790  -2.149  0.00  0.00    +0.149 HD
BRANCH  10  14
ATOM     14  C   UNL     1       2.592  -3.956  -3.754  0.00  0.00    +0.139 C 
BRANCH  14  18
ATOM     15  C   UNL     1       4.178  -7.333  -1.674  0.00  0.00    +0.000 A 
ATOM     16  C   UNL     1       2.884  -6.914  -1.427  0.00  0.00    +0.000 A 
ATOM     17  C   UNL     1       2.371  -5.822  -2.100  0.00  0.00    +0.005 A 
ATOM     18  C   UNL     1       3.152  -5.147  -3.020  0.00  0.00    -0.030 A 
ATOM     19  C   UNL     1       4.444  -5.568  -3.271  0.00  0.00    +0.005 A 
ATOM     20  C   UNL     1       4.959  -6.658  -2.594  0.00  0.00    +0.000 A 
ENDBRANCH  14  18
ENDBRANCH  10  14
ENDBRANCH   1  11
BRANCH   5  21
ATOM     21  N   UNL     1       4.939   0.143  -3.780  0.00  0.00    -0.279 N 
ATOM     22  C   UNL     1       6.002   0.969  -3.837  0.00  0.00    +0.222 C 
ATOM     23  O   UNL     1       6.053   1.942  -3.115  0.00  0.00    -0.275 OA
ATOM     24  H   UNL     1       4.899  -0.636  -4.357  0.00  0.00    +0.155 HD
BRANCH  22  25
ATOM     25  C   UNL     1       7.128   0.684  -4.797  0.00  0.00    +0.093 C 
ATOM     26  C   UNL     1       7.758  -0.669  -4.464  0.00  0.00    +0.040 C 
ATOM     27  C   UNL     1       9.036  -0.847  -5.231  0.00  0.00    -0.030 C 
ATOM     28  C   UNL     1       9.684   0.121  -5.794  0.00  0.00    -0.030 C 
ATOM     29  C   UNL     1       9.244   1.555  -5.769  0.00  0.00    +0.042 C 
ATOM     30  C   UNL     1       8.205   1.768  -4.665  0.00  0.00    +0.118 C 
BRANCH  30  31
ATOM     31  C   UNL     1       7.576   3.129  -4.811  0.00  0.00    +0.360 C 
ATOM     32  O   UNL     1       6.387   3.228  -5.002  0.00  0.00    -0.246 OA
ATOM     33  O   UNL     1       8.336   4.232  -4.729  0.00  0.00    -0.246 OA
ENDBRANCH  30  31
ENDBRANCH  22  25
ENDBRANCH   5  21
TORSDOF 6
