REMARK  Name = ZINC07005498
REMARK  6 active torsions:
REMARK  status: ('A' for Active; 'I' for Inactive)
REMARK    1  A    between atoms: C_1  and  C_2
REMARK    2  A    between atoms: C_7  and  N_8
REMARK    3  A    between atoms: N_8  and  S_9
REMARK    4  A    between atoms: S_9  and  C_12
REMARK    5  A    between atoms: C_15  and  C_17
REMARK    6  A    between atoms: C_19  and  C_22
REMARK                            x       y       z     vdW  Elec       q    Type
REMARK                         _______ _______ _______ _____ _____    ______ ____
ROOT
ATOM      1  S   UNL     1      -1.462  -1.147  -0.016  0.00  0.00    +0.079 S 
ATOM      2  O   UNL     1      -2.632  -0.501  -0.498  0.00  0.00    -0.149 OA
ATOM      3  O   UNL     1      -0.969  -2.353  -0.583  0.00  0.00    -0.149 OA
ENDROOT
BRANCH   1   4
ATOM      4  C   UNL     1      -0.156   0.031  -0.124  0.00  0.00    +0.146 A 
ATOM      5  C   UNL     1       1.182  -0.185  -0.212  0.00  0.00    +0.037 A 
ATOM      6  C   UNL     1       2.035   0.891  -0.288  0.00  0.00    +0.021 A 
ATOM      7  C   UNL     1       1.492   2.163  -0.271  0.00  0.00    +0.059 A 
ATOM      8  S   UNL     1      -0.255   1.813  -0.145  0.00  0.00    -0.065 S 
BRANCH   7   9
ATOM      9  C   UNL     1       2.174   3.463  -0.338  0.00  0.00    +0.174 A 
ATOM     10  C   UNL     1       1.589   4.705  -0.317  0.00  0.00    +0.076 A 
ATOM     11  C   UNL     1       2.679   5.592  -0.406  0.00  0.00    +0.081 A 
ATOM     12  N   UNL     1       3.754   4.859  -0.468  0.00  0.00    -0.083 NA
ATOM     13  O   UNL     1       3.500   3.678  -0.427  0.00  0.00    -0.354 OA
ATOM     14  C   UNL     1       2.613   7.098  -0.425  0.00  0.00    +0.069 C 
ENDBRANCH   7   9
ENDBRANCH   1   4
BRANCH   1  15
ATOM     15  N   UNL     1      -1.717  -1.450   1.592  0.00  0.00    -0.216 N 
ATOM     16  H   UNL     1      -1.606  -2.348   1.940  0.00  0.00    +0.174 HD
BRANCH  15  23
ATOM     17  C   UNL     1      -0.729  -1.486   4.259  0.00  0.00    +0.046 C 
ATOM     18  C   UNL     1      -1.632  -0.388   3.758  0.00  0.00    -0.027 A 
ATOM     19  C   UNL     1      -1.999   0.643   4.600  0.00  0.00    +0.025 A 
ATOM     20  C   UNL     1      -2.833   1.648   4.143  0.00  0.00    +0.041 A 
ATOM     21  C   UNL     1      -3.297   1.626   2.839  0.00  0.00    +0.022 A 
ATOM     22  C   UNL     1      -2.929   0.600   1.991  0.00  0.00    +0.026 A 
ATOM     23  C   UNL     1      -2.091  -0.410   2.448  0.00  0.00    +0.051 A 
ATOM     24 CL   UNL     1      -3.298   2.939   5.206  0.00  0.00    -0.084 Cl
ENDBRANCH  15  23
ENDBRANCH   1  15
TORSDOF 4
