REMARK  Name = ZINC14651184
REMARK  11 active torsions:
REMARK  status: ('A' for Active; 'I' for Inactive)
REMARK    1  A    between atoms: C_1  and  C_2
REMARK    2  A    between atoms: C_2  and  N_3
REMARK    3  A    between atoms: N_3  and  C_4
REMARK    4  A    between atoms: N_3  and  C_6
REMARK    5  A    between atoms: C_4  and  C_5
REMARK    6  A    between atoms: C_6  and  C_7
REMARK    7  A    between atoms: C_7  and  N_8
REMARK    8  A    between atoms: N_17  and  C_18
REMARK    9  A    between atoms: C_18  and  C_20
REMARK   10  A    between atoms: C_20  and  C_21
REMARK   11  A    between atoms: C_24  and  C_26
REMARK                            x       y       z     vdW  Elec       q    Type
REMARK                         _______ _______ _______ _____ _____    ______ ____
ROOT
ATOM      1  N   UNL     1       0.741  -3.948  -2.373  0.00  0.00    -0.314 N 
ATOM      2  C   UNL     1       1.588  -4.872  -1.769  0.00  0.00    +0.068 A 
ATOM      3  C   UNL     1       2.800  -4.753  -1.103  0.00  0.00    +0.028 A 
ATOM      4  C   UNL     1       3.421  -5.878  -0.599  0.00  0.00    +0.002 A 
ATOM      5  C   UNL     1       2.839  -7.126  -0.755  0.00  0.00    +0.002 A 
ATOM      6  C   UNL     1       1.634  -7.255  -1.415  0.00  0.00    +0.028 A 
ATOM      7  C   UNL     1       1.001  -6.130  -1.926  0.00  0.00    +0.066 A 
ATOM      8  N   UNL     1      -0.189  -5.943  -2.621  0.00  0.00    -0.326 N 
ATOM      9  C   UNL     1      -0.329  -4.616  -2.877  0.00  0.00    +0.201 A 
ATOM     10  N   UNL     1      -1.352  -4.059  -3.521  0.00  0.00    -0.146 NA
ATOM     11  H   UNL     1      -0.813  -6.640  -2.877  0.00  0.00    +0.169 HD
ENDROOT
BRANCH  10  12
ATOM     12  C   UNL     1      -2.403  -4.797  -3.862  0.00  0.00    +0.245 C 
ATOM     13  O   UNL     1      -2.473  -5.958  -3.507  0.00  0.00    -0.273 OA
BRANCH  12  14
ATOM     14  C   UNL     1      -3.510  -4.195  -4.690  0.00  0.00    +0.154 C 
BRANCH  14  15
ATOM     15  C   UNL     1      -4.574  -5.233  -4.937  0.00  0.00    +0.058 A 
ATOM     16  C   UNL     1      -5.866  -4.976  -4.601  0.00  0.00    +0.071 A 
ATOM     17  S   UNL     1      -6.648  -6.504  -5.104  0.00  0.00    -0.075 S 
ATOM     18  C   UNL     1      -5.172  -7.316  -5.704  0.00  0.00    +0.109 A 
ATOM     19  N   UNL     1      -4.256  -6.384  -5.481  0.00  0.00    -0.243 NA
BRANCH  18  20
ATOM     20  C   UNL     1      -5.016  -8.662  -6.295  0.00  0.00    +0.007 A 
ATOM     21  C   UNL     1      -3.756  -9.110  -6.697  0.00  0.00    +0.010 A 
ATOM     22  C   UNL     1      -3.618 -10.367  -7.247  0.00  0.00    +0.001 A 
ATOM     23  C   UNL     1      -4.723 -11.184  -7.401  0.00  0.00    +0.000 A 
ATOM     24  C   UNL     1      -5.975 -10.746  -7.005  0.00  0.00    +0.001 A 
ATOM     25  C   UNL     1      -6.126  -9.494  -6.447  0.00  0.00    +0.010 A 
ENDBRANCH  18  20
ENDBRANCH  14  15
ENDBRANCH  12  14
ENDBRANCH  10  12
BRANCH   1  26
ATOM     26  C   UNL     1       0.963  -2.502  -2.447  0.00  0.00    +0.106 C 
BRANCH  26  27
ATOM     27  C   UNL     1       0.344  -1.827  -1.221  0.00  0.00    -0.057 C 
BRANCH  27  28
ATOM     28  N   UNL     1       0.673  -0.395  -1.232  0.00  0.00    +0.380 N 
ATOM     29  H   UNL     1       1.675  -0.281  -1.276  0.00  0.00    -0.082 HD
BRANCH  28  31
ATOM     30  C   UNL     1       0.500   1.703  -2.483  0.00  0.00    -0.017 C 
ATOM     31  C   UNL     1       0.056   0.241  -2.403  0.00  0.00    -0.082 C 
ENDBRANCH  28  31
BRANCH  28  32
ATOM     32  C   UNL     1       0.162   0.234  -0.007  0.00  0.00    -0.082 C 
ATOM     33  C   UNL     1       0.892  -0.346   1.207  0.00  0.00    -0.017 C 
ENDBRANCH  28  32
ENDBRANCH  27  28
ENDBRANCH  26  27
ENDBRANCH   1  26
TORSDOF 9
