REMARK  Name = ZINC40383381
REMARK  6 active torsions:
REMARK  status: ('A' for Active; 'I' for Inactive)
REMARK    1  A    between atoms: C_1  and  C_2
REMARK    2  A    between atoms: C_2  and  C_3
REMARK    3  A    between atoms: C_6  and  N_9
REMARK    4  A    between atoms: C_10  and  C_12
REMARK    5  A    between atoms: C_28  and  C_35
REMARK    6  A    between atoms: C_31  and  C_34
REMARK                            x       y       z     vdW  Elec       q    Type
REMARK                         _______ _______ _______ _____ _____    ______ ____
ROOT
ATOM      1  C   UNL     1       4.540  -2.439  -6.003  0.00  0.00    +0.122 C 
ATOM      2  C   UNL     1       4.330  -1.347  -7.054  0.00  0.00    +0.114 C 
ATOM      3  C   UNL     1       5.198  -1.625  -8.253  0.00  0.00    +0.219 C 
ATOM      4  O   UNL     1       4.779  -1.385  -9.366  0.00  0.00    -0.275 OA
ATOM      5  N   UNL     1       6.432  -2.135  -8.103  0.00  0.00    -0.270 N 
ATOM      6  C   UNL     1       6.897  -2.517  -6.857  0.00  0.00    +0.138 A 
ATOM      7  C   UNL     1       6.013  -2.667  -5.802  0.00  0.00    +0.069 A 
ATOM      8  C   UNL     1       6.509  -3.033  -4.547  0.00  0.00    +0.258 A 
ATOM      9  O   UNL     1       5.757  -3.162  -3.594  0.00  0.00    -0.267 OA
ATOM     10  N   UNL     1       7.836  -3.241  -4.410  0.00  0.00    -0.295 N 
ATOM     11  H   UNL     1       8.203  -3.480  -3.545  0.00  0.00    +0.172 HD
ATOM     12  C   UNL     1       8.660  -3.115  -5.486  0.00  0.00    +0.200 A 
ATOM     13  N   UNL     1       8.197  -2.769  -6.669  0.00  0.00    -0.200 NA
ATOM     14  N   UNL     1       9.999  -3.354  -5.335  0.00  0.00    -0.301 N 
ATOM     15  C   UNL     1      10.565  -3.633  -4.008  0.00  0.00    +0.111 C 
ATOM     16  C   UNL     1      11.352  -4.946  -4.074  0.00  0.00    +0.004 C 
ATOM     17  C   UNL     1      12.390  -4.858  -5.194  0.00  0.00    +0.009 C 
ATOM     18  C   UNL     1      11.681  -4.653  -6.535  0.00  0.00    +0.004 C 
ATOM     19  C   UNL     1      10.897  -3.343  -6.498  0.00  0.00    +0.111 C 
ATOM     20  C   UNL     1      12.718  -4.600  -7.658  0.00  0.00    +0.009 C 
ATOM     21  C   UNL     1      12.059  -5.184  -2.738  0.00  0.00    +0.009 C 
ATOM     22  H   UNL     1       7.004  -2.238  -8.880  0.00  0.00    +0.156 HD
ENDROOT
BRANCH   1  24
ATOM     23  N   UNL     1       3.009  -2.801  -4.094  0.00  0.00    -0.285 N 
ATOM     24  C   UNL     1       3.916  -2.009  -4.701  0.00  0.00    +0.225 C 
ATOM     25  O   UNL     1       4.229  -0.950  -4.199  0.00  0.00    -0.275 OA
ATOM     26  H   UNL     1       2.814  -3.679  -4.455  0.00  0.00    +0.155 HD
BRANCH  23  30
ATOM     27  C   UNL     1       1.047  -1.475  -0.666  0.00  0.00    -0.048 A 
ATOM     28  C   UNL     1       1.406  -0.571  -1.649  0.00  0.00    +0.005 A 
ATOM     29  C   UNL     1       2.057  -1.007  -2.787  0.00  0.00    +0.023 A 
ATOM     30  C   UNL     1       2.351  -2.356  -2.943  0.00  0.00    +0.033 A 
ATOM     31  C   UNL     1       1.989  -3.261  -1.954  0.00  0.00    +0.023 A 
ATOM     32  C   UNL     1       1.343  -2.818  -0.816  0.00  0.00    +0.005 A 
BRANCH  27  34
ATOM     33  C   UNL     1       1.369  -0.625   1.641  0.00  0.00    +0.009 C 
ATOM     34  C   UNL     1       0.337  -0.996   0.573  0.00  0.00    +0.032 C 
ENDBRANCH  27  34
ENDBRANCH  23  30
ENDBRANCH   1  24
TORSDOF 3
