REMARK  Name = ZINC05601493
REMARK  4 active torsions:
REMARK  status: ('A' for Active; 'I' for Inactive)
REMARK    1  A    between atoms: C_1  and  C_2
REMARK    2  A    between atoms: C_5  and  N_9
REMARK    3  A    between atoms: C_7  and  C_8
REMARK    4  A    between atoms: C_13  and  C_14
REMARK                            x       y       z     vdW  Elec       q    Type
REMARK                         _______ _______ _______ _____ _____    ______ ____
ROOT
ATOM      1  N   UNL     1       2.905   3.382  -1.882  0.00  0.00    -0.215 N 
ATOM      2  C   UNL     1       2.300   3.148  -0.730  0.00  0.00    +0.263 C 
ATOM      3  O   UNL     1       2.146   4.028   0.097  0.00  0.00    -0.269 OA
ATOM      4  C   UNL     1       1.820   1.774  -0.491  0.00  0.00    +0.078 C 
ATOM      5  C   UNL     1       1.176   1.263   0.589  0.00  0.00    +0.028 C 
ATOM      6  S   UNL     1       2.321   0.961  -2.001  0.00  0.00    -0.049 S 
ATOM      7  C   UNL     1       3.069   2.368  -2.807  0.00  0.00    +0.165 C 
ATOM      8  N   UNL     1       3.636   2.423  -3.980  0.00  0.00    -0.279 NA
ATOM      9  H   UNL     1       4.061   3.372  -4.341  0.00  0.00    +0.189 HD
ENDROOT
BRANCH   5  10
ATOM     10  C   UNL     1       0.623  -0.096   0.538  0.00  0.00    -0.020 A 
ATOM     11  C   UNL     1       0.119  -0.693   1.700  0.00  0.00    +0.012 A 
ATOM     12  C   UNL     1      -0.399  -1.969   1.649  0.00  0.00    +0.050 A 
ATOM     13  C   UNL     1      -0.424  -2.666   0.448  0.00  0.00    +0.166 A 
ATOM     14  C   UNL     1       0.076  -2.078  -0.714  0.00  0.00    +0.167 A 
ATOM     15  C   UNL     1       0.592  -0.798  -0.673  0.00  0.00    +0.057 A 
ATOM     16  O   UNL     1      -0.064  -2.962  -1.745  0.00  0.00    -0.453 OA
ATOM     17  C   UNL     1      -0.276  -4.244  -1.124  0.00  0.00    +0.466 C 
ATOM     18  O   UNL     1      -0.876  -3.917   0.142  0.00  0.00    -0.453 OA
ENDBRANCH   5  10
BRANCH   1  23
ATOM     19  C   UNL     1       4.845   8.588  -3.041  0.00  0.00    +0.044 C 
ATOM     20  C   UNL     1       4.330   7.205  -2.733  0.00  0.00    -0.047 A 
ATOM     21  C   UNL     1       5.138   6.299  -2.071  0.00  0.00    +0.005 A 
ATOM     22  C   UNL     1       4.669   5.032  -1.787  0.00  0.00    +0.024 A 
ATOM     23  C   UNL     1       3.384   4.667  -2.168  0.00  0.00    +0.044 A 
ATOM     24  C   UNL     1       2.577   5.577  -2.837  0.00  0.00    +0.027 A 
ATOM     25  C   UNL     1       3.050   6.845  -3.113  0.00  0.00    -0.046 A 
ATOM     26  C   UNL     1       2.173   7.835  -3.836  0.00  0.00    +0.044 C 
ENDBRANCH   1  23
TORSDOF 2
