REMARK  Name = ZINC40033293
REMARK  9 active torsions:
REMARK  status: ('A' for Active; 'I' for Inactive)
REMARK    1  A    between atoms: C_1  and  C_2
REMARK    2  A    between atoms: C_2  and  O_3
REMARK    3  A    between atoms: O_3  and  C_4
REMARK    4  A    between atoms: C_7  and  N_10
REMARK    5  A    between atoms: N_17  and  N_18
REMARK    6  A    between atoms: C_19  and  C_20
REMARK    7  A    between atoms: C_23  and  O_26
REMARK    8  A    between atoms: C_34  and  C_35
REMARK    9  A    between atoms: C_34  and  C_36
REMARK                            x       y       z     vdW  Elec       q    Type
REMARK                         _______ _______ _______ _____ _____    ______ ____
ROOT
ATOM      1  N   UNL     1       0.476  -6.238   2.035  0.00  0.00    -0.248 N 
ATOM      2  C   UNL     1       1.435  -6.625   2.903  0.00  0.00    +0.264 A 
ATOM      3  O   UNL     1       2.085  -5.799   3.523  0.00  0.00    -0.267 OA
ATOM      4  C   UNL     1       1.669  -7.995   3.077  0.00  0.00    +0.049 A 
ATOM      5  C   UNL     1       0.907  -8.901   2.353  0.00  0.00    +0.084 A 
ATOM      6  N   UNL     1      -0.025  -8.460   1.502  0.00  0.00    -0.214 NA
ATOM      7  C   UNL     1      -0.244  -7.170   1.347  0.00  0.00    +0.223 A 
ATOM      8  N   UNL     1      -1.213  -6.756   0.470  0.00  0.00    -0.206 N 
ATOM      9  C   UNL     1       1.143 -10.350   2.547  0.00  0.00    +0.004 A 
ATOM     10  C   UNL     1       0.700 -11.278   1.610  0.00  0.00    +0.010 A 
ATOM     11  C   UNL     1       0.938 -12.623   1.814  0.00  0.00    +0.001 A 
ATOM     12  C   UNL     1       1.614 -13.044   2.945  0.00  0.00    +0.000 A 
ATOM     13  C   UNL     1       2.053 -12.125   3.881  0.00  0.00    +0.004 A 
ATOM     14  C   UNL     1       1.820 -10.778   3.690  0.00  0.00    -0.037 A 
ATOM     15  C   UNL     1       2.283  -9.773   4.710  0.00  0.00    +0.047 C 
ATOM     16  C   UNL     1       2.727  -8.482   4.027  0.00  0.00    +0.001 C 
ATOM     17  C   UNL     1       4.020  -8.741   3.251  0.00  0.00    +0.016 C 
ATOM     18  C   UNL     1       2.983  -7.411   5.089  0.00  0.00    +0.016 C 
ATOM     19  H   UNL     1      -1.411  -5.811   0.378  0.00  0.00    +0.177 HD
ENDROOT
BRANCH   1  23
ATOM     20  C   UNL     1      -0.300  -2.180   1.468  0.00  0.00    +0.121 A 
ATOM     21  C   UNL     1       0.694  -2.806   0.730  0.00  0.00    +0.047 A 
ATOM     22  C   UNL     1       0.952  -4.149   0.917  0.00  0.00    +0.030 A 
ATOM     23  C   UNL     1       0.215  -4.874   1.845  0.00  0.00    +0.053 A 
ATOM     24  C   UNL     1      -0.780  -4.248   2.583  0.00  0.00    +0.030 A 
ATOM     25  C   UNL     1      -1.033  -2.903   2.398  0.00  0.00    +0.047 A 
BRANCH  20  26
ATOM     26  O   UNL     1      -0.554  -0.858   1.283  0.00  0.00    -0.492 OA
BRANCH  26  28
ATOM     27  C   UNL     1      -0.188   1.292   0.241  0.00  0.00    +0.048 C 
ATOM     28  C   UNL     1       0.238  -0.176   0.308  0.00  0.00    +0.225 C 
ENDBRANCH  26  28
ENDBRANCH  20  26
ENDBRANCH   1  23
BRANCH   8  29
ATOM     29  N   UNL     1      -1.917  -7.697  -0.292  0.00  0.00    -0.188 NA
ATOM     30  C   UNL     1      -2.835  -7.305  -1.121  0.00  0.00    +0.138 C 
BRANCH  30  31
ATOM     31  C   UNL     1      -3.576  -8.295  -1.923  0.00  0.00    -0.005 A 
ATOM     32  C   UNL     1      -3.296  -9.657  -1.788  0.00  0.00    +0.013 A 
ATOM     33  C   UNL     1      -3.992 -10.580  -2.539  0.00  0.00    +0.046 A 
ATOM     34  C   UNL     1      -4.969 -10.157  -3.430  0.00  0.00    +0.117 A 
ATOM     35  C   UNL     1      -5.251  -8.804  -3.569  0.00  0.00    +0.046 A 
ATOM     36  C   UNL     1      -4.564  -7.875  -2.817  0.00  0.00    +0.013 A 
BRANCH  34  37
ATOM     37  O   UNL     1      -5.652 -11.070  -4.170  0.00  0.00    -0.507 OA
ATOM     38  H   UNL     1      -6.458 -11.396  -3.746  0.00  0.00    +0.292 HD
ENDBRANCH  34  37
ENDBRANCH  30  31
ENDBRANCH   8  29
TORSDOF 6
