REMARK  Name = ZINC06135280
REMARK  14 active torsions:
REMARK  status: ('A' for Active; 'I' for Inactive)
REMARK    1  A    between atoms: C_1  and  C_2
REMARK    2  A    between atoms: C_2  and  C_3
REMARK    3  A    between atoms: C_10  and  C_15
REMARK    4  A    between atoms: C_15  and  C_17
REMARK    5  A    between atoms: C_15  and  N_71
REMARK    6  A    between atoms: N_21  and  C_22
REMARK    7  A    between atoms: C_22  and  C_23
REMARK    8  A    between atoms: C_22  and  C_24
REMARK    9  A    between atoms: C_22  and  C_25
REMARK   10  A    between atoms: C_25  and  C_26
REMARK   11  A    between atoms: C_27  and  C_28
REMARK   12  A    between atoms: C_27  and  N_71
REMARK   13  A    between atoms: C_34  and  C_35
REMARK   14  A    between atoms: C_34  and  N_71
REMARK                            x       y       z     vdW  Elec       q    Type
REMARK                         _______ _______ _______ _____ _____    ______ ____
ROOT
ATOM      1  C   UNL     1       5.417  -1.180  -0.396  0.00  0.00    +0.040 C 
ENDROOT
BRANCH   1   9
ATOM      2  C   UNL     1      -0.671  -0.583  -1.324  0.00  0.00    -0.047 A 
ATOM      3  C   UNL     1      -0.682   0.803  -1.401  0.00  0.00    +0.005 A 
ATOM      4  C   UNL     1       0.485   1.524  -1.269  0.00  0.00    +0.026 A 
ATOM      5  C   UNL     1       1.688   0.857  -1.056  0.00  0.00    +0.049 A 
ATOM      6  C   UNL     1       1.694  -0.548  -0.978  0.00  0.00    -0.001 A 
ATOM      7  C   UNL     1       0.497  -1.259  -1.115  0.00  0.00    +0.013 A 
ATOM      8  C   UNL     1       2.965  -1.240  -0.753  0.00  0.00    +0.017 A 
ATOM      9  C   UNL     1       4.093  -0.499  -0.628  0.00  0.00    +0.011 A 
ATOM     10  C   UNL     1       4.032   0.909  -0.713  0.00  0.00    +0.251 A 
ATOM     11  O   UNL     1       5.058   1.556  -0.598  0.00  0.00    -0.268 OA
ATOM     12  N   UNL     1       2.870   1.553  -0.919  0.00  0.00    -0.322 N 
ATOM     13  H   UNL     1       2.863   2.552  -0.975  0.00  0.00    +0.169 HD
BRANCH   2  15
ATOM     14  C   UNL     1      -2.188  -1.687  -2.946  0.00  0.00    +0.009 C 
ATOM     15  C   UNL     1      -1.961  -1.349  -1.471  0.00  0.00    +0.032 C 
ENDBRANCH   2  15
ENDBRANCH   1   9
BRANCH   1  16
ATOM     16  C   UNL     1       5.944  -0.802   0.965  0.00  0.00    +0.143 A 
ATOM     17  N   UNL     1       6.490   0.340   1.304  0.00  0.00    -0.115 NA
ATOM     18  N   UNL     1       6.808   0.275   2.550  0.00  0.00    -0.023 NA
ATOM     19  N   UNL     1       6.487  -0.882   3.014  0.00  0.00    -0.043 NA
ATOM     20  N   UNL     1       5.952  -1.576   2.066  0.00  0.00    -0.225 N 
BRANCH  20  21
ATOM     21  C   UNL     1       5.447  -2.947   2.170  0.00  0.00    +0.061 C 
ATOM     22  C   UNL     1       3.975  -2.982   1.754  0.00  0.00    +0.036 C 
ATOM     23  C   UNL     1       6.259  -3.861   1.250  0.00  0.00    +0.036 C 
BRANCH  21  24
ATOM     24  C   UNL     1       5.580  -3.432   3.615  0.00  0.00    +0.026 C 
ATOM     25  C   UNL     1       5.053  -4.864   3.724  0.00  0.00    +0.006 C 
ENDBRANCH  21  24
ENDBRANCH  20  21
ENDBRANCH   1  16
BRANCH   1  26
ATOM     26  N   UNL     1       6.382  -0.728  -1.420  0.00  0.00    +0.397 N 
ATOM     27  H   UNL     1       6.679   0.230  -1.200  0.00  0.00    -0.079 HD
BRANCH  26  28
ATOM     28  C   UNL     1       7.568  -1.610  -1.421  0.00  0.00    -0.039 C 
BRANCH  28  29
ATOM     29  C   UNL     1       8.566  -1.073  -0.427  0.00  0.00    -0.046 A 
ATOM     30  C   UNL     1       9.420  -0.039  -0.778  0.00  0.00    +0.005 A 
ATOM     31  C   UNL     1      10.318   0.426   0.170  0.00  0.00    +0.020 A 
ATOM     32  C   UNL     1      10.339  -0.160   1.422  0.00  0.00    +0.111 A 
ATOM     33  N   UNL     1       9.515  -1.145   1.720  0.00  0.00    -0.263 NA
ATOM     34  C   UNL     1       8.644  -1.610   0.844  0.00  0.00    +0.112 A 
ENDBRANCH  28  29
ENDBRANCH  26  28
BRANCH  26  35
ATOM     35  C   UNL     1       5.744  -0.738  -2.754  0.00  0.00    -0.001 C 
BRANCH  35  36
ATOM     36  C   UNL     1       6.660  -0.052  -3.735  0.00  0.00    +0.089 A 
ATOM     37  C   UNL     1       7.520  -0.664  -4.568  0.00  0.00    +0.042 A 
ATOM     38  C   UNL     1       8.172   0.352  -5.304  0.00  0.00    +0.041 A 
ATOM     39  C   UNL     1       7.670   1.525  -4.877  0.00  0.00    +0.195 A 
ATOM     40  O   UNL     1       6.750   1.273  -3.930  0.00  0.00    -0.470 OA
ENDBRANCH  35  36
ENDBRANCH  26  35
ENDBRANCH   1  26
TORSDOF 10
