REMARK  Name = ZINC33058894
REMARK  10 active torsions:
REMARK  status: ('A' for Active; 'I' for Inactive)
REMARK    1  A    between atoms: C_1  and  C_2
REMARK    2  A    between atoms: C_2  and  C_3
REMARK    3  A    between atoms: C_7  and  C_36
REMARK    4  A    between atoms: C_8  and  N_9
REMARK    5  A    between atoms: C_10  and  C_12
REMARK    6  A    between atoms: N_15  and  S_18
REMARK    7  A    between atoms: S_18  and  C_21
REMARK    8  A    between atoms: C_22  and  C_35
REMARK    9  A    between atoms: C_25  and  C_26
REMARK   10  A    between atoms: C_27  and  C_28
REMARK                            x       y       z     vdW  Elec       q    Type
REMARK                         _______ _______ _______ _____ _____    ______ ____
ROOT
ATOM      1  C   UNL     1      -0.360  -2.916   3.591  0.00  0.00    +0.078 C 
ATOM      2  C   UNL     1       0.430  -3.546   2.442  0.00  0.00    +0.030 C 
ATOM      3  C   UNL     1       1.604  -4.347   3.014  0.00  0.00    +0.110 C 
ATOM      4  N   UNL     1       1.085  -5.314   3.992  0.00  0.00    -0.176 NA
ATOM      5  C   UNL     1       0.238  -4.824   5.088  0.00  0.00    +0.110 C 
ATOM      6  C   UNL     1      -0.921  -4.018   4.492  0.00  0.00    +0.030 C 
ENDROOT
BRANCH   1   8
ATOM      7  N   UNL     1      -1.240  -1.066   2.205  0.00  0.00    -0.285 N 
ATOM      8  C   UNL     1      -1.496  -2.099   3.031  0.00  0.00    +0.220 C 
ATOM      9  O   UNL     1      -2.641  -2.372   3.323  0.00  0.00    -0.275 OA
ATOM     10  H   UNL     1      -0.209  -0.868   1.875  0.00  0.00    +0.155 HD
BRANCH   7  16
ATOM     11  C   UNL     1      -2.235   1.124   1.991  0.00  0.00    -0.026 A 
ATOM     12  C   UNL     1      -3.270   1.931   1.561  0.00  0.00    +0.005 A 
ATOM     13  C   UNL     1      -4.350   1.379   0.898  0.00  0.00    +0.001 A 
ATOM     14  C   UNL     1      -4.403   0.015   0.673  0.00  0.00    +0.005 A 
ATOM     15  C   UNL     1      -3.373  -0.798   1.105  0.00  0.00    -0.029 A 
ATOM     16  C   UNL     1      -2.284  -0.245   1.766  0.00  0.00    +0.039 A 
ATOM     17  C   UNL     1      -3.432  -2.284   0.858  0.00  0.00    +0.045 C 
BRANCH  11  19
ATOM     18  C   UNL     1       0.067   2.001   1.704  0.00  0.00    +0.009 C 
ATOM     19  C   UNL     1      -1.055   1.728   2.708  0.00  0.00    +0.033 C 
ENDBRANCH  11  19
ENDBRANCH   7  16
ENDBRANCH   1   8
BRANCH   4  20
ATOM     20  S   UNL     1       1.449  -6.924   3.861  0.00  0.00    +0.066 S 
ATOM     21  O   UNL     1       2.659  -7.008   3.120  0.00  0.00    -0.153 OA
ATOM     22  O   UNL     1       1.313  -7.478   5.162  0.00  0.00    -0.153 OA
BRANCH  20  23
ATOM     23  C   UNL     1       0.197  -7.662   2.865  0.00  0.00    +0.174 A 
ATOM     24  C   UNL     1      -1.017  -8.240   3.284  0.00  0.00    +0.107 A 
ATOM     25  N   UNL     1      -1.625  -8.654   2.208  0.00  0.00    -0.081 NA
ATOM     26  O   UNL     1      -0.982  -8.431   1.209  0.00  0.00    -0.353 OA
ATOM     27  C   UNL     1       0.179  -7.812   1.500  0.00  0.00    +0.187 A 
ATOM     28  C   UNL     1      -1.517  -8.356   4.701  0.00  0.00    +0.071 C 
BRANCH  27  29
ATOM     29  C   UNL     1       1.212  -7.386   0.552  0.00  0.00    +0.052 C 
ATOM     30  C   UNL     1       1.048  -7.606  -0.767  0.00  0.00    +0.014 C 
BRANCH  30  31
ATOM     31  C   UNL     1       2.086  -7.177  -1.719  0.00  0.00    +0.010 A 
ATOM     32  C   UNL     1       3.243  -6.542  -1.258  0.00  0.00    +0.011 A 
ATOM     33  C   UNL     1       4.211  -6.143  -2.156  0.00  0.00    +0.001 A 
ATOM     34  C   UNL     1       4.040  -6.370  -3.511  0.00  0.00    +0.003 A 
ATOM     35  C   UNL     1       2.900  -6.998  -3.977  0.00  0.00    +0.039 A 
ATOM     36  C   UNL     1       1.923  -7.409  -3.090  0.00  0.00    +0.131 A 
ATOM     37  F   UNL     1       0.811  -8.027  -3.545  0.00  0.00    -0.205 F 
ENDBRANCH  30  31
ENDBRANCH  27  29
ENDBRANCH  20  23
ENDBRANCH   4  20
TORSDOF 7
