REMARK  Name = ZINC08859964
REMARK  10 active torsions:
REMARK  status: ('A' for Active; 'I' for Inactive)
REMARK    1  A    between atoms: C_1  and  C_2
REMARK    2  A    between atoms: C_2  and  C_3
REMARK    3  A    between atoms: C_2  and  C_4
REMARK    4  A    between atoms: C_7  and  S_10
REMARK    5  A    between atoms: S_10  and  N_13
REMARK    6  A    between atoms: N_13  and  C_14
REMARK    7  A    between atoms: C_30  and  C_34
REMARK    8  A    between atoms: C_34  and  C_35
REMARK    9  A    between atoms: C_34  and  C_36
REMARK   10  A    between atoms: C_34  and  C_37
REMARK                            x       y       z     vdW  Elec       q    Type
REMARK                         _______ _______ _______ _____ _____    ______ ____
ROOT
ATOM      1  C   UNL     1      -1.152   6.144  -2.384  0.00  0.00    +0.056 A 
ATOM      2  C   UNL     1      -2.447   6.121  -1.912  0.00  0.00    +0.032 A 
ATOM      3  C   UNL     1      -3.497   5.741  -2.737  0.00  0.00    +0.003 A 
ATOM      4  C   UNL     1      -3.294   5.374  -4.040  0.00  0.00    +0.132 A 
ATOM      5  C   UNL     1      -1.978   5.393  -4.556  0.00  0.00    +0.026 A 
ATOM      6  C   UNL     1      -0.901   5.784  -3.725  0.00  0.00    +0.008 A 
ATOM      7  C   UNL     1       0.404   5.790  -4.245  0.00  0.00    +0.010 A 
ATOM      8  C   UNL     1       0.614   5.435  -5.542  0.00  0.00    +0.001 A 
ATOM      9  C   UNL     1      -0.448   5.058  -6.363  0.00  0.00    +0.001 A 
ATOM     10  C   UNL     1      -1.724   5.033  -5.890  0.00  0.00    +0.012 A 
ATOM     11  O   UNL     1      -4.466   5.032  -4.652  0.00  0.00    -0.487 OA
ATOM     12  C   UNL     1      -5.543   5.605  -3.898  0.00  0.00    +0.181 C 
ATOM     13  C   UNL     1      -4.997   5.635  -2.476  0.00  0.00    +0.064 C 
ATOM     14  C   UNL     1      -5.251   4.370  -1.679  0.00  0.00    +0.016 C 
ATOM     15  C   UNL     1      -6.672   3.852  -1.852  0.00  0.00    -0.005 C 
ATOM     16  C   UNL     1      -6.909   3.562  -3.338  0.00  0.00    +0.007 C 
ATOM     17  C   UNL     1      -6.843   4.880  -4.101  0.00  0.00    +0.045 C 
ENDROOT
BRANCH  15  18
ATOM     18  C   UNL     1      -6.852   2.565  -1.043  0.00  0.00    -0.035 C 
ATOM     19  C   UNL     1      -6.593   2.853   0.437  0.00  0.00    +0.011 C 
ATOM     20  C   UNL     1      -8.280   2.047  -1.220  0.00  0.00    +0.011 C 
ATOM     21  C   UNL     1      -5.862   1.509  -1.538  0.00  0.00    +0.011 C 
ENDBRANCH  15  18
BRANCH   1  22
ATOM     22  N   UNL     1      -0.102   6.526  -1.546  0.00  0.00    -0.216 N 
ATOM     23  H   UNL     1       0.647   7.028  -1.905  0.00  0.00    +0.174 HD
BRANCH  22  24
ATOM     24  S   UNL     1      -0.135   6.122   0.059  0.00  0.00    +0.072 S 
ATOM     25  O   UNL     1      -1.377   6.587   0.570  0.00  0.00    -0.150 OA
ATOM     26  O   UNL     1       1.113   6.528   0.606  0.00  0.00    -0.150 OA
BRANCH  24  30
ATOM     27  C   UNL     1      -0.245   1.603   0.300  0.00  0.00    -0.045 A 
ATOM     28  C   UNL     1      -1.425   2.321   0.240  0.00  0.00    +0.006 A 
ATOM     29  C   UNL     1      -1.391   3.702   0.172  0.00  0.00    +0.029 A 
ATOM     30  C   UNL     1      -0.177   4.363   0.153  0.00  0.00    +0.109 A 
ATOM     31  C   UNL     1       1.002   3.645   0.208  0.00  0.00    +0.029 A 
ATOM     32  C   UNL     1       0.969   2.265   0.281  0.00  0.00    +0.006 A 
BRANCH  27  34
ATOM     33  C   UNL     1      -1.032  -0.327   1.643  0.00  0.00    +0.012 C 
ATOM     34  C   UNL     1      -0.282   0.099   0.380  0.00  0.00    +0.013 C 
ATOM     35  C   UNL     1      -0.999  -0.460  -0.852  0.00  0.00    +0.012 C 
ENDBRANCH  27  34
ENDBRANCH  24  30
ENDBRANCH  22  24
ENDBRANCH   1  22
TORSDOF 5
