REMARK  Name = ZINC05237583
REMARK  6 active torsions:
REMARK  status: ('A' for Active; 'I' for Inactive)
REMARK    1  A    between atoms: C_1  and  C_2
REMARK    2  A    between atoms: C_3  and  C_24
REMARK    3  A    between atoms: C_9  and  S_13
REMARK    4  A    between atoms: S_13  and  C_14
REMARK    5  A    between atoms: C_14  and  C_15
REMARK    6  A    between atoms: C_20  and  C_23
REMARK                            x       y       z     vdW  Elec       q    Type
REMARK                         _______ _______ _______ _____ _____    ______ ____
ROOT
ATOM      1  C   UNL     1       1.843  11.588  -0.205  0.00  0.00    +0.052 C 
ATOM      2  C   UNL     1       2.250  10.319   0.500  0.00  0.00    -0.003 A 
ATOM      3  C   UNL     1       3.004  10.185   1.616  0.00  0.00    +0.007 A 
ATOM      4  C   UNL     1       3.272   8.843   2.125  0.00  0.00    +0.080 A 
ATOM      5  C   UNL     1       4.030   8.447   3.270  0.00  0.00    +0.261 A 
ATOM      6  O   UNL     1       4.562   9.286   3.977  0.00  0.00    -0.267 OA
ATOM      7  N   UNL     1       4.144   7.139   3.561  0.00  0.00    -0.301 N 
ATOM      8  H   UNL     1       4.667   6.859   4.366  0.00  0.00    +0.171 HD
ATOM      9  C   UNL     1       3.560   6.186   2.777  0.00  0.00    +0.170 A 
ATOM     10  N   UNL     1       2.856   6.524   1.716  0.00  0.00    -0.216 NA
ATOM     11  C   UNL     1       2.700   7.799   1.378  0.00  0.00    +0.117 A 
ATOM     12  S   UNL     1       1.852   8.637   0.064  0.00  0.00    -0.073 S 
ENDROOT
BRANCH   3  13
ATOM     13  C   UNL     1       3.546  11.377   2.308  0.00  0.00    -0.016 A 
ATOM     14  C   UNL     1       4.924  11.583   2.373  0.00  0.00    +0.008 A 
ATOM     15  C   UNL     1       5.423  12.698   3.014  0.00  0.00    +0.001 A 
ATOM     16  C   UNL     1       4.560  13.605   3.602  0.00  0.00    +0.000 A 
ATOM     17  C   UNL     1       3.193  13.404   3.547  0.00  0.00    +0.001 A 
ATOM     18  C   UNL     1       2.682  12.295   2.903  0.00  0.00    +0.008 A 
ENDBRANCH   3  13
BRANCH   9  19
ATOM     19  S   UNL     1       3.744   4.484   3.193  0.00  0.00    -0.078 S 
BRANCH  19  20
ATOM     20  C   UNL     1       2.786   3.728   1.856  0.00  0.00    +0.173 C 
BRANCH  20  21
ATOM     21  C   UNL     1       2.803   2.229   2.011  0.00  0.00    +0.226 C 
ATOM     22  O   UNL     1       3.404   1.722   2.935  0.00  0.00    -0.275 OA
ATOM     23  N   UNL     1       2.151   1.453   1.124  0.00  0.00    -0.301 N 
ATOM     24  C   UNL     1       1.420   2.052  -0.001  0.00  0.00    +0.108 C 
ATOM     25  C   UNL     1      -0.019   1.526   0.010  0.00  0.00    +0.022 C 
ATOM     26  C   UNL     1       0.002  -0.004   0.002  0.00  0.00    -0.011 C 
ATOM     27  C   UNL     1       0.712  -0.513   1.258  0.00  0.00    +0.022 C 
ATOM     28  C   UNL     1       2.159  -0.010   1.262  0.00  0.00    +0.108 C 
ATOM     29  C   UNL     1      -1.433  -0.533  -0.022  0.00  0.00    +0.007 C 
ENDBRANCH  20  21
ENDBRANCH  19  20
ENDBRANCH   9  19
TORSDOF 4
