REMARK  Name = ZINC40399656
REMARK  10 active torsions:
REMARK  status: ('A' for Active; 'I' for Inactive)
REMARK    1  A    between atoms: C_1  and  C_2
REMARK    2  A    between atoms: C_2  and  C_3
REMARK    3  A    between atoms: C_3  and  C_5
REMARK    4  A    between atoms: C_3  and  C_6
REMARK    5  A    between atoms: N_10  and  C_29
REMARK    6  A    between atoms: N_15  and  S_18
REMARK    7  A    between atoms: S_18  and  C_21
REMARK    8  A    between atoms: C_24  and  O_27
REMARK    9  A    between atoms: O_27  and  C_28
REMARK   10  A    between atoms: C_29  and  C_30
REMARK                            x       y       z     vdW  Elec       q    Type
REMARK                         _______ _______ _______ _____ _____    ______ ____
ROOT
ATOM      1  C   UNL     1      -1.234  -3.490   0.779  0.00  0.00    +0.022 C 
ATOM      2  C   UNL     1      -2.103  -4.068  -0.317  0.00  0.00    +0.201 C 
ATOM      3  O   UNL     1      -3.112  -4.720  -0.151  0.00  0.00    -0.277 OA
ATOM      4  N   UNL     1      -1.567  -3.734  -1.509  0.00  0.00    -0.309 N 
ATOM      5  C   UNL     1      -0.349  -2.948  -1.295  0.00  0.00    +0.006 C 
ATOM      6  N   UNL     1      -0.400  -2.467   0.104  0.00  0.00    +0.401 N 
ATOM      7  C   UNL     1       0.886  -3.824  -1.492  0.00  0.00    +0.023 C 
ATOM      8  C   UNL     1       0.911  -4.352  -2.930  0.00  0.00    +0.109 C 
ATOM      9  N   UNL     1       0.815  -3.212  -3.852  0.00  0.00    -0.177 NA
ATOM     10  C   UNL     1      -0.299  -2.267  -3.696  0.00  0.00    +0.109 C 
ATOM     11  C   UNL     1      -0.313  -1.757  -2.251  0.00  0.00    +0.023 C 
ATOM     12  H   UNL     1      -0.840  -1.560   0.152  0.00  0.00    -0.082 HD
ATOM     13  H   UNL     1       0.525  -2.438   0.506  0.00  0.00    -0.082 HD
ENDROOT
BRANCH   9  14
ATOM     14  S   UNL     1       1.943  -2.996  -5.046  0.00  0.00    +0.061 S 
ATOM     15  O   UNL     1       1.929  -1.613  -5.373  0.00  0.00    -0.153 OA
ATOM     16  O   UNL     1       3.120  -3.666  -4.618  0.00  0.00    -0.153 OA
BRANCH  14  17
ATOM     17  C   UNL     1       1.363  -3.856  -6.471  0.00  0.00    +0.106 A 
ATOM     18  C   UNL     1       1.705  -5.182  -6.663  0.00  0.00    +0.032 A 
ATOM     19  C   UNL     1       1.253  -5.858  -7.780  0.00  0.00    +0.047 A 
ATOM     20  C   UNL     1       0.455  -5.206  -8.708  0.00  0.00    +0.120 A 
ATOM     21  C   UNL     1       0.113  -3.876  -8.513  0.00  0.00    +0.047 A 
ATOM     22  C   UNL     1       0.563  -3.205  -7.392  0.00  0.00    +0.032 A 
BRANCH  20  23
ATOM     23  O   UNL     1       0.009  -5.869  -9.807  0.00  0.00    -0.495 OA
ATOM     24  C   UNL     1      -0.809  -5.134 -10.721  0.00  0.00    +0.277 C 
ENDBRANCH  20  23
ENDBRANCH  14  17
ENDBRANCH   9  14
BRANCH   1  25
ATOM     25  C   UNL     1      -2.101  -2.842   1.860  0.00  0.00    -0.020 C 
ATOM     26  C   UNL     1      -1.202  -2.201   2.919  0.00  0.00    +0.006 C 
BRANCH  25  28
ATOM     27  C   UNL     1      -3.935  -3.242   3.509  0.00  0.00    +0.004 C 
ATOM     28  C   UNL     1      -2.981  -3.908   2.516  0.00  0.00    -0.001 C 
ENDBRANCH  25  28
ENDBRANCH   1  25
BRANCH   4  29
ATOM     29  C   UNL     1      -2.117  -4.101  -2.816  0.00  0.00    +0.141 C 
BRANCH  29  30
ATOM     30  C   UNL     1      -3.139  -3.077  -3.237  0.00  0.00    -0.030 A 
ATOM     31  C   UNL     1      -3.946  -2.476  -2.288  0.00  0.00    +0.008 A 
ATOM     32  C   UNL     1      -4.883  -1.536  -2.673  0.00  0.00    +0.038 A 
ATOM     33  C   UNL     1      -5.015  -1.196  -4.008  0.00  0.00    +0.123 A 
ATOM     34  C   UNL     1      -4.207  -1.799  -4.958  0.00  0.00    +0.038 A 
ATOM     35  C   UNL     1      -3.266  -2.735  -4.570  0.00  0.00    +0.008 A 
ATOM     36  F   UNL     1      -5.931  -0.278  -4.386  0.00  0.00    -0.205 F 
ENDBRANCH  29  30
ENDBRANCH   4  29
TORSDOF 7
