REMARK  Name = ZINC22137874
REMARK  18 active torsions:
REMARK  status: ('A' for Active; 'I' for Inactive)
REMARK    1  A    between atoms: C_1  and  C_2
REMARK    2  A    between atoms: C_3  and  C_33
REMARK    3  A    between atoms: C_4  and  C_32
REMARK    4  A    between atoms: C_7  and  C_8
REMARK    5  A    between atoms: C_8  and  C_10
REMARK    6  A    between atoms: C_10  and  S_11
REMARK    7  A    between atoms: S_11  and  C_12
REMARK    8  A    between atoms: N_22  and  C_23
REMARK    9  A    between atoms: C_23  and  C_24
REMARK   10  A    between atoms: C_24  and  N_25
REMARK   11  A    between atoms: N_25  and  C_26
REMARK   12  A    between atoms: N_25  and  C_29
REMARK   13  A    between atoms: C_26  and  C_27
REMARK   14  A    between atoms: C_26  and  C_28
REMARK   15  A    between atoms: C_29  and  C_30
REMARK   16  A    between atoms: C_29  and  C_31
REMARK   17  A    between atoms: C_33  and  O_35
REMARK   18  A    between atoms: O_35  and  C_36
REMARK                            x       y       z     vdW  Elec       q    Type
REMARK                         _______ _______ _______ _____ _____    ______ ____
ROOT
ATOM      1  C   UNL     1      -2.641  -4.312   0.685  0.00  0.00    +0.172 A 
ATOM      2  N   UNL     1      -1.758  -5.268   0.830  0.00  0.00    -0.223 NA
ATOM      3  C   UNL     1      -1.914  -6.470   0.240  0.00  0.00    +0.079 A 
ATOM      4  C   UNL     1      -0.974  -7.493   0.399  0.00  0.00    +0.028 A 
ATOM      5  C   UNL     1      -1.170  -8.694  -0.222  0.00  0.00    +0.002 A 
ATOM      6  C   UNL     1      -2.292  -8.918  -1.009  0.00  0.00    +0.001 A 
ATOM      7  C   UNL     1      -3.230  -7.937  -1.183  0.00  0.00    +0.015 A 
ATOM      8  C   UNL     1      -3.055  -6.701  -0.562  0.00  0.00    +0.065 A 
ATOM      9  C   UNL     1      -4.029  -5.612  -0.714  0.00  0.00    +0.262 A 
ATOM     10  O   UNL     1      -5.031  -5.750  -1.391  0.00  0.00    -0.267 OA
ATOM     11  N   UNL     1      -3.770  -4.449  -0.072  0.00  0.00    -0.289 N 
ENDROOT
BRANCH   1  12
ATOM     12  S   UNL     1      -2.356  -2.775   1.498  0.00  0.00    -0.080 S 
BRANCH  12  13
ATOM     13  C   UNL     1      -0.785  -3.140   2.320  0.00  0.00    +0.158 C 
BRANCH  13  14
ATOM     14  C   UNL     1      -0.334  -1.933   3.100  0.00  0.00    +0.190 C 
ATOM     15  O   UNL     1      -1.005  -0.921   3.096  0.00  0.00    -0.290 OA
BRANCH  14  22
ATOM     16  C   UNL     1       0.813   0.425   4.771  0.00  0.00    +0.047 C 
ATOM     17  C   UNL     1       1.407  -0.947   4.580  0.00  0.00    -0.008 A 
ATOM     18  C   UNL     1       2.614  -1.425   5.135  0.00  0.00    +0.083 A 
ATOM     19  C   UNL     1       2.777  -2.728   4.697  0.00  0.00    +0.028 A 
ATOM     20  N   UNL     1       1.735  -3.053   3.917  0.00  0.00    -0.355 N 
ATOM     21  H   UNL     1       1.677  -4.055   3.467  0.00  0.00    +0.166 HD
ATOM     22  C   UNL     1       0.877  -1.976   3.832  0.00  0.00    +0.087 A 
ATOM     23  C   UNL     1       3.934  -3.631   5.038  0.00  0.00    +0.064 C 
BRANCH  18  24
ATOM     24  C   UNL     1       3.530  -0.677   6.012  0.00  0.00    +0.341 C 
ATOM     25  O   UNL     1       4.430  -0.018   5.530  0.00  0.00    -0.245 OA
BRANCH  24  26
ATOM     26  O   UNL     1       3.370  -0.722   7.349  0.00  0.00    -0.464 OA
ATOM     27  C   UNL     1       4.310   0.040   8.152  0.00  0.00    +0.280 C 
ENDBRANCH  24  26
ENDBRANCH  18  24
ENDBRANCH  14  22
ENDBRANCH  13  14
ENDBRANCH  12  13
ENDBRANCH   1  12
BRANCH  11  28
ATOM     28  C   UNL     1      -4.708  -3.329  -0.188  0.00  0.00    +0.109 C 
BRANCH  28  29
ATOM     29  C   UNL     1      -4.384  -2.522  -1.447  0.00  0.00    -0.056 C 
BRANCH  29  30
ATOM     30  N   UNL     1      -5.410  -1.489  -1.644  0.00  0.00    +0.384 N 
ATOM     31  H   UNL     1      -6.388  -1.937  -1.415  0.00  0.00    -0.081 HD
BRANCH  30  32
ATOM     32  C   UNL     1      -5.204  -0.360  -0.727  0.00  0.00    -0.074 C 
ATOM     33  C   UNL     1      -5.936  -0.633   0.589  0.00  0.00    -0.014 C 
ATOM     34  C   UNL     1      -3.708  -0.192  -0.453  0.00  0.00    -0.014 C 
ENDBRANCH  30  32
BRANCH  30  35
ATOM     35  C   UNL     1      -5.437  -1.034  -3.041  0.00  0.00    -0.074 C 
ATOM     36  C   UNL     1      -6.690  -0.187  -3.276  0.00  0.00    -0.014 C 
ATOM     37  C   UNL     1      -4.192  -0.193  -3.327  0.00  0.00    -0.014 C 
ENDBRANCH  30  35
ENDBRANCH  29  30
ENDBRANCH  28  29
ENDBRANCH  11  28
TORSDOF 11
