REMARK  Name = ZINC04164772
REMARK  6 active torsions:
REMARK  status: ('A' for Active; 'I' for Inactive)
REMARK    1  A    between atoms: C_1  and  C_2
REMARK    2  A    between atoms: N_7  and  C_8
REMARK    3  A    between atoms: C_8  and  C_10
REMARK    4  A    between atoms: C_8  and  C_19
REMARK    5  A    between atoms: C_25  and  C_30
REMARK    6  A    between atoms: C_28  and  O_29
REMARK                            x       y       z     vdW  Elec       q    Type
REMARK                         _______ _______ _______ _____ _____    ______ ____
ROOT
ATOM      1  C   UNL     1      -3.742   2.071   0.051  0.00  0.00    +0.136 C 
ENDROOT
BRANCH   1   2
ATOM      2  C   UNL     1      -2.447   1.308   0.158  0.00  0.00    +0.021 A 
ATOM      3  C   UNL     1      -2.478  -0.077   0.297  0.00  0.00    +0.010 A 
ATOM      4  C   UNL     1      -1.325  -0.796   0.397  0.00  0.00    +0.010 A 
ATOM      5  C   UNL     1      -0.087  -0.136   0.360  0.00  0.00    +0.004 A 
ATOM      6  C   UNL     1       1.125  -0.845   0.460  0.00  0.00    +0.012 A 
ATOM      7  C   UNL     1       2.292  -0.136   0.417  0.00  0.00    +0.023 A 
ATOM      8  C   UNL     1       2.259   1.250   0.277  0.00  0.00    +0.039 A 
ATOM      9  N   UNL     1       1.128   1.906   0.183  0.00  0.00    -0.248 NA
ATOM     10  C   UNL     1      -0.048   1.273   0.219  0.00  0.00    +0.113 A 
ATOM     11  C   UNL     1      -1.262   1.986   0.123  0.00  0.00    +0.148 A 
ATOM     12  C   UNL     1       3.557   2.014   0.232  0.00  0.00    +0.065 C 
BRANCH  11  13
ATOM     13  O   UNL     1      -1.252   3.337  -0.012  0.00  0.00    -0.504 OA
ATOM     14  H   UNL     1      -1.232   3.640  -0.930  0.00  0.00    +0.292 HD
ENDBRANCH  11  13
ENDBRANCH   1   2
BRANCH   1  21
ATOM     15  C   UNL     1      -8.864   0.529  -2.920  0.00  0.00    +0.063 C 
ATOM     16  C   UNL     1      -7.835   1.468  -2.345  0.00  0.00    +0.014 A 
ATOM     17  C   UNL     1      -8.000   2.831  -2.491  0.00  0.00    +0.021 A 
ATOM     18  C   UNL     1      -7.049   3.692  -1.960  0.00  0.00    +0.005 A 
ATOM     19  C   UNL     1      -5.962   3.148  -1.298  0.00  0.00    +0.041 A 
ATOM     20  C   UNL     1      -5.860   1.766  -1.189  0.00  0.00    +0.097 A 
ATOM     21  N   UNL     1      -4.773   1.206  -0.527  0.00  0.00    -0.320 N 
ATOM     22  H   UNL     1      -4.697   0.242  -0.448  0.00  0.00    +0.148 HD
ATOM     23  N   UNL     1      -6.778   0.899  -1.707  0.00  0.00    -0.347 N 
ATOM     24  H   UNL     1      -6.677  -0.119  -1.620  0.00  0.00    +0.167 HD
ENDBRANCH   1  21
BRANCH   1  25
ATOM     25  C   UNL     1      -4.175   2.522   1.422  0.00  0.00    -0.019 A 
ATOM     26  C   UNL     1      -4.808   1.633   2.272  0.00  0.00    +0.009 A 
ATOM     27  C   UNL     1      -5.207   2.042   3.531  0.00  0.00    +0.050 A 
ATOM     28  C   UNL     1      -4.971   3.343   3.945  0.00  0.00    +0.166 A 
ATOM     29  C   UNL     1      -4.333   4.237   3.089  0.00  0.00    +0.167 A 
ATOM     30  C   UNL     1      -3.933   3.820   1.830  0.00  0.00    +0.055 A 
ATOM     31  O   UNL     1      -4.220   5.441   3.722  0.00  0.00    -0.453 OA
ATOM     32  C   UNL     1      -5.157   5.391   4.814  0.00  0.00    +0.466 C 
ATOM     33  O   UNL     1      -5.258   3.986   5.114  0.00  0.00    -0.453 OA
ENDBRANCH   1  25
TORSDOF 4
