REMARK  Name = ZINC36303736
REMARK  13 active torsions:
REMARK  status: ('A' for Active; 'I' for Inactive)
REMARK    1  A    between atoms: C_1  and  C_2
REMARK    2  A    between atoms: C_3  and  C_21
REMARK    3  A    between atoms: C_4  and  O_13
REMARK    4  A    between atoms: N_5  and  C_7
REMARK    5  A    between atoms: O_13  and  C_14
REMARK    6  A    between atoms: C_21  and  N_22
REMARK    7  A    between atoms: N_22  and  C_23
REMARK    8  A    between atoms: N_22  and  C_35
REMARK    9  A    between atoms: C_23  and  C_24
REMARK   10  A    between atoms: C_24  and  C_26
REMARK   11  A    between atoms: C_24  and  O_34
REMARK   12  A    between atoms: C_26  and  O_27
REMARK   13  A    between atoms: O_27  and  C_28
REMARK                            x       y       z     vdW  Elec       q    Type
REMARK                         _______ _______ _______ _____ _____    ______ ____
ROOT
ATOM      1  C   UNL     1      -2.096   1.173  -0.525  0.00  0.00    +0.068 C 
ATOM      2  C   UNL     1      -1.539  -0.222  -0.405  0.00  0.00    +0.065 A 
ATOM      3  C   UNL     1      -1.105  -1.023  -1.466  0.00  0.00    +0.021 A 
ATOM      4  C   UNL     1      -0.675  -2.205  -0.949  0.00  0.00    +0.225 A 
ATOM      5  N   UNL     1      -0.836  -2.143   0.401  0.00  0.00    -0.200 N 
ATOM      6  N   UNL     1      -1.375  -0.887   0.710  0.00  0.00    -0.168 NA
ENDROOT
BRANCH   5   7
ATOM      7  C   UNL     1      -0.516  -3.153   1.318  0.00  0.00    +0.069 A 
ATOM      8  C   UNL     1      -0.812  -4.478   1.025  0.00  0.00    +0.028 A 
ATOM      9  C   UNL     1      -0.496  -5.471   1.931  0.00  0.00    +0.002 A 
ATOM     10  C   UNL     1       0.115  -5.148   3.128  0.00  0.00    +0.000 A 
ATOM     11  C   UNL     1       0.410  -3.830   3.423  0.00  0.00    +0.002 A 
ATOM     12  C   UNL     1       0.102  -2.832   2.519  0.00  0.00    +0.028 A 
ENDBRANCH   5   7
BRANCH   4  13
ATOM     13  O   UNL     1      -0.176  -3.254  -1.650  0.00  0.00    -0.438 OA
BRANCH  13  14
ATOM     14  C   UNL     1      -1.057  -4.150  -2.170  0.00  0.00    +0.130 A 
ATOM     15  C   UNL     1      -2.422  -3.943  -2.031  0.00  0.00    +0.048 A 
ATOM     16  C   UNL     1      -3.314  -4.855  -2.560  0.00  0.00    +0.023 A 
ATOM     17  C   UNL     1      -2.849  -5.973  -3.229  0.00  0.00    +0.041 A 
ATOM     18  C   UNL     1      -1.488  -6.181  -3.369  0.00  0.00    +0.023 A 
ATOM     19  C   UNL     1      -0.591  -5.269  -2.846  0.00  0.00    +0.048 A 
ATOM     20 CL   UNL     1      -3.973  -7.117  -3.893  0.00  0.00    -0.084 Cl
ENDBRANCH  13  14
ENDBRANCH   4  13
BRANCH   3  21
ATOM     21  C   UNL     1      -1.113  -0.644  -2.924  0.00  0.00    -0.035 C 
BRANCH  21  22
ATOM     22  N   UNL     1       0.161   0.001  -3.270  0.00  0.00    +0.386 N 
ATOM     23  H   UNL     1       0.321   0.782  -2.652  0.00  0.00    -0.081 HD
BRANCH  22  24
ATOM     24  C   UNL     1       1.254  -0.969  -3.127  0.00  0.00    -0.068 C 
ATOM     25  C   UNL     1       2.208  -0.789  -1.944  0.00  0.00    -0.017 C 
ATOM     26  C   UNL     1       2.680  -0.466  -3.364  0.00  0.00    -0.017 C 
ENDBRANCH  22  24
BRANCH  22  27
ATOM     27  C   UNL     1       0.107   0.477  -4.659  0.00  0.00    -0.043 C 
BRANCH  27  28
ATOM     28  C   UNL     1      -0.225  -0.693  -5.587  0.00  0.00    +0.135 C 
BRANCH  28  29
ATOM     29  O   UNL     1       0.861  -1.621  -5.590  0.00  0.00    -0.390 OA
ATOM     30  H   UNL     1       1.699  -1.246  -5.893  0.00  0.00    +0.210 HD
ENDBRANCH  28  29
BRANCH  28  31
ATOM     31  C   UNL     1      -0.452  -0.169  -7.006  0.00  0.00    +0.258 C 
BRANCH  31  32
ATOM     32  O   UNL     1      -0.875  -1.243  -7.849  0.00  0.00    -0.489 OA
BRANCH  32  33
ATOM     33  C   UNL     1      -1.122  -0.945  -9.151  0.00  0.00    +0.121 A 
ATOM     34  C   UNL     1      -0.954   0.353  -9.611  0.00  0.00    +0.045 A 
ATOM     35  C   UNL     1      -1.205   0.653 -10.936  0.00  0.00    +0.004 A 
ATOM     36  C   UNL     1      -1.623  -0.339 -11.804  0.00  0.00    +0.000 A 
ATOM     37  C   UNL     1      -1.792  -1.633 -11.348  0.00  0.00    +0.004 A 
ATOM     38  C   UNL     1      -1.536  -1.940 -10.025  0.00  0.00    +0.045 A 
ENDBRANCH  32  33
ENDBRANCH  31  32
ENDBRANCH  28  31
ENDBRANCH  27  28
ENDBRANCH  22  27
ENDBRANCH  21  22
ENDBRANCH   3  21
TORSDOF 12
