REMARK  Name = ZINC63339761
REMARK  12 active torsions:
REMARK  status: ('A' for Active; 'I' for Inactive)
REMARK    1  A    between atoms: C_1  and  C_2
REMARK    2  A    between atoms: C_2  and  C_3
REMARK    3  A    between atoms: C_2  and  C_4
REMARK    4  A    between atoms: C_2  and  O_5
REMARK    5  A    between atoms: O_5  and  C_6
REMARK    6  A    between atoms: N_8  and  C_9
REMARK    7  A    between atoms: C_9  and  C_11
REMARK    8  A    between atoms: C_9  and  C_21
REMARK    9  A    between atoms: C_11  and  C_12
REMARK   10  A    between atoms: C_25  and  S_28
REMARK   11  A    between atoms: S_28  and  C_29
REMARK   12  A    between atoms: C_29  and  C_30
REMARK                            x       y       z     vdW  Elec       q    Type
REMARK                         _______ _______ _______ _____ _____    ______ ____
ROOT
ATOM      1  C   UNL     1       4.035  -0.071  -2.601  0.00  0.00    +0.125 C 
ENDROOT
BRANCH   1   2
ATOM      2  C   UNL     1       4.872  -0.581  -1.426  0.00  0.00    +0.223 C 
ATOM      3  N   UNL     1       4.844  -2.066  -1.376  0.00  0.00    -0.225 NA
ATOM      4  N   UNL     1       6.088  -2.379  -0.652  0.00  0.00    -0.218 NA
ATOM      5  C   UNL     1       7.040  -1.351  -1.133  0.00  0.00    +0.263 C 
ATOM      6  O   UNL     1       6.258  -0.246  -1.615  0.00  0.00    -0.330 OA
ATOM      7  H   UNL     1       4.037  -2.396  -0.868  0.00  0.00    +0.143 HD
ATOM      8  H   UNL     1       6.414  -3.307  -0.877  0.00  0.00    +0.144 HD
BRANCH   5   9
ATOM      9  S   UNL     1       8.106  -0.809   0.232  0.00  0.00    -0.108 S 
BRANCH   9  10
ATOM     10  C   UNL     1       6.943  -0.180   1.473  0.00  0.00    +0.111 C 
BRANCH  10  11
ATOM     11  C   UNL     1       7.708   0.309   2.676  0.00  0.00    -0.001 A 
ATOM     12  C   UNL     1       7.994  -0.559   3.714  0.00  0.00    +0.046 A 
ATOM     13  C   UNL     1       8.697  -0.110   4.818  0.00  0.00    +0.020 A 
ATOM     14  C   UNL     1       9.112   1.207   4.884  0.00  0.00    +0.003 A 
ATOM     15  C   UNL     1       8.826   2.075   3.847  0.00  0.00    +0.020 A 
ATOM     16  C   UNL     1       8.129   1.625   2.740  0.00  0.00    +0.046 A 
ATOM     17 CL   UNL     1       7.777   2.714   1.435  0.00  0.00    -0.083 Cl
ATOM     18 CL   UNL     1       7.472  -2.213   3.631  0.00  0.00    -0.083 Cl
ENDBRANCH  10  11
ENDBRANCH   9  10
ENDBRANCH   5   9
ENDBRANCH   1   2
BRANCH   1  21
ATOM     19  C   UNL     1       1.952  -0.085  -1.337  0.00  0.00    +0.401 C 
ATOM     20  O   UNL     1       2.488   0.619  -0.503  0.00  0.00    -0.226 OA
ATOM     21  N   UNL     1       2.641  -0.485  -2.424  0.00  0.00    -0.274 N 
ATOM     22  H   UNL     1       2.213  -1.047  -3.089  0.00  0.00    +0.152 HD
BRANCH  19  23
ATOM     23  O   UNL     1       0.671  -0.465  -1.174  0.00  0.00    -0.445 OA
BRANCH  23  25
ATOM     24  C   UNL     1      -0.019   1.526   0.010  0.00  0.00    +0.055 C 
ATOM     25  C   UNL     1       0.002  -0.004   0.002  0.00  0.00    +0.107 C 
ATOM     26  C   UNL     1       0.742  -0.511   1.242  0.00  0.00    +0.055 C 
ATOM     27  C   UNL     1      -1.433  -0.534   0.013  0.00  0.00    +0.055 C 
ENDBRANCH  23  25
ENDBRANCH  19  23
ENDBRANCH   1  21
BRANCH   1  28
ATOM     28  C   UNL     1       4.111   1.456  -2.657  0.00  0.00    +0.059 C 
BRANCH  28  29
ATOM     29  C   UNL     1       3.389   1.950  -3.884  0.00  0.00    -0.040 C 
ATOM     30  C   UNL     1       2.108   2.377  -3.958  0.00  0.00    -0.001 A 
ATOM     31  C   UNL     1       1.043   2.502  -2.955  0.00  0.00    +0.010 A 
ATOM     32  C   UNL     1      -0.167   2.972  -3.338  0.00  0.00    +0.001 A 
ATOM     33  C   UNL     1      -0.428   3.340  -4.665  0.00  0.00    +0.002 A 
ATOM     34  C   UNL     1       0.500   3.252  -5.642  0.00  0.00    +0.026 A 
ATOM     35  C   UNL     1       1.807   2.772  -5.352  0.00  0.00    +0.043 A 
ATOM     36  N   UNL     1       2.861   2.597  -6.111  0.00  0.00    -0.380 N 
ATOM     37  C   UNL     1       3.953   2.076  -5.282  0.00  0.00    +0.144 C 
ATOM     38  H   UNL     1       2.912   2.785  -7.061  0.00  0.00    +0.160 HD
ENDBRANCH  28  29
ENDBRANCH   1  28
TORSDOF 9
