REMARK  Name = ZINC12894046
REMARK  11 active torsions:
REMARK  status: ('A' for Active; 'I' for Inactive)
REMARK    1  A    between atoms: C_1  and  N_2
REMARK    2  A    between atoms: N_2  and  C_3
REMARK    3  A    between atoms: N_2  and  S_4
REMARK    4  A    between atoms: S_4  and  C_7
REMARK    5  A    between atoms: C_10  and  C_13
REMARK    6  A    between atoms: N_15  and  C_16
REMARK    7  A    between atoms: C_17  and  C_29
REMARK    8  A    between atoms: C_19  and  S_21
REMARK    9  A    between atoms: S_21  and  C_22
REMARK   10  A    between atoms: C_22  and  C_23
REMARK   11  A    between atoms: N_25  and  C_26
REMARK                            x       y       z     vdW  Elec       q    Type
REMARK                         _______ _______ _______ _____ _____    ______ ____
ROOT
ATOM      1  C   UNL     1      -1.436   3.300   0.706  0.00  0.00    +0.101 A 
ATOM      2  C   UNL     1      -1.307   2.117   0.020  0.00  0.00    +0.101 A 
ATOM      3  N   UNL     1      -2.360   1.635  -0.641  0.00  0.00    -0.231 NA
ATOM      4  C   UNL     1      -3.518   2.268  -0.638  0.00  0.00    +0.137 A 
ATOM      5  S   UNL     1      -3.147   3.696   0.369  0.00  0.00    -0.045 S 
ENDROOT
BRANCH   2   6
ATOM      6  C   UNL     1      -0.017   1.391   0.010  0.00  0.00    +0.003 A 
ATOM      7  C   UNL     1       1.185   2.099   0.002  0.00  0.00    +0.010 A 
ATOM      8  C   UNL     1       2.384   1.417  -0.014  0.00  0.00    +0.001 A 
ATOM      9  C   UNL     1       2.396   0.034  -0.021  0.00  0.00    +0.000 A 
ATOM     10  C   UNL     1       1.208  -0.675  -0.013  0.00  0.00    +0.001 A 
ATOM     11  C   UNL     1       0.002  -0.004   0.002  0.00  0.00    +0.010 A 
ENDBRANCH   2   6
BRANCH   1  14
ATOM     12  C   UNL     1      -0.833   5.158   2.056  0.00  0.00    +0.249 C 
ATOM     13  O   UNL     1      -1.962   5.593   1.942  0.00  0.00    -0.270 OA
ATOM     14  N   UNL     1      -0.493   3.999   1.457  0.00  0.00    -0.274 N 
ATOM     15  H   UNL     1       0.408   3.652   1.549  0.00  0.00    +0.156 HD
BRANCH  12  19
ATOM     16  C   UNL     1       2.042   7.288   4.345  0.00  0.00    +0.105 A 
ATOM     17  C   UNL     1       0.757   7.786   4.217  0.00  0.00    +0.029 A 
ATOM     18  C   UNL     1      -0.181   7.099   3.475  0.00  0.00    +0.015 A 
ATOM     19  C   UNL     1       0.168   5.899   2.853  0.00  0.00    +0.037 A 
ATOM     20  C   UNL     1       1.464   5.399   2.991  0.00  0.00    +0.015 A 
ATOM     21  C   UNL     1       2.394   6.099   3.731  0.00  0.00    +0.029 A 
BRANCH  16  22
ATOM     22  S   UNL     1       3.234   8.172   5.295  0.00  0.00    +0.060 S 
ATOM     23  O   UNL     1       4.511   7.778   4.811  0.00  0.00    -0.153 OA
ATOM     24  O   UNL     1       2.812   9.529   5.315  0.00  0.00    -0.153 OA
BRANCH  22  26
ATOM     25  C   UNL     1       3.944   6.484   7.285  0.00  0.00    +0.131 C 
ATOM     26  N   UNL     1       3.127   7.620   6.852  0.00  0.00    -0.183 NA
ATOM     27  C   UNL     1       2.214   8.267   7.798  0.00  0.00    +0.131 C 
ENDBRANCH  22  26
ENDBRANCH  16  22
ENDBRANCH  12  19
ENDBRANCH   1  14
BRANCH   4  28
ATOM     28  S   UNL     1      -5.030   1.825  -1.426  0.00  0.00    -0.089 S 
BRANCH  28  29
ATOM     29  C   UNL     1      -6.069   3.218  -0.919  0.00  0.00    +0.172 C 
BRANCH  29  30
ATOM     30  C   UNL     1      -7.451   3.049  -1.493  0.00  0.00    +0.223 C 
ATOM     31  O   UNL     1      -7.710   2.082  -2.178  0.00  0.00    -0.275 OA
ATOM     32  N   UNL     1      -8.401   3.972  -1.246  0.00  0.00    -0.312 N 
ATOM     33  H   UNL     1      -8.195   4.746  -0.698  0.00  0.00    +0.149 HD
BRANCH  32  34
ATOM     34  C   UNL     1      -9.746   3.808  -1.804  0.00  0.00    +0.073 C 
ATOM     35  C   UNL     1     -10.412   5.042  -2.417  0.00  0.00    +0.024 C 
ATOM     36  C   UNL     1     -10.902   4.494  -1.075  0.00  0.00    +0.024 C 
ENDBRANCH  32  34
ENDBRANCH  29  30
ENDBRANCH  28  29
ENDBRANCH   4  28
TORSDOF 9
