REMARK  Name = ZINC34756729
REMARK  7 active torsions:
REMARK  status: ('A' for Active; 'I' for Inactive)
REMARK    1  A    between atoms: C_1  and  C_2
REMARK    2  A    between atoms: C_2  and  C_4
REMARK    3  A    between atoms: C_4  and  N_5
REMARK    4  A    between atoms: C_18  and  S_20
REMARK    5  A    between atoms: S_20  and  C_21
REMARK    6  A    between atoms: C_21  and  C_22
REMARK    7  A    between atoms: N_24  and  C_25
REMARK                            x       y       z     vdW  Elec       q    Type
REMARK                         _______ _______ _______ _____ _____    ______ ____
ROOT
ATOM      1  N   UNL     1      -2.276  -0.210  -1.034  0.00  0.00    +0.384 N 
ATOM      2  C   UNL     1      -3.733  -0.164  -1.216  0.00  0.00    -0.059 C 
ATOM      3  C   UNL     1      -4.103  -0.851  -2.535  0.00  0.00    +0.088 C 
ATOM      4  N   UNL     1      -3.335  -0.221  -3.620  0.00  0.00    -0.318 N 
ATOM      5  C   UNL     1      -1.881  -0.076  -3.448  0.00  0.00    +0.088 C 
ATOM      6  C   UNL     1      -1.616   0.573  -2.086  0.00  0.00    -0.059 C 
ATOM      7  C   UNL     1      -3.961   0.223  -4.771  0.00  0.00    +0.134 A 
ATOM      8  C   UNL     1      -4.016  -0.606  -5.926  0.00  0.00    +0.051 A 
ATOM      9  C   UNL     1      -3.475  -1.954  -6.112  0.00  0.00    -0.025 A 
ATOM     10  C   UNL     1      -3.664  -2.529  -7.316  0.00  0.00    -0.004 A 
ATOM     11  S   UNL     1      -4.561  -1.330  -8.265  0.00  0.00    -0.073 S 
ATOM     12  C   UNL     1      -4.680  -0.053  -7.039  0.00  0.00    +0.115 A 
ATOM     13  N   UNL     1      -5.210   1.154  -6.999  0.00  0.00    -0.214 NA
ATOM     14  C   UNL     1      -5.128   1.883  -5.894  0.00  0.00    +0.191 A 
ATOM     15  N   UNL     1      -4.521   1.421  -4.807  0.00  0.00    -0.206 NA
ATOM     16  C   UNL     1      -3.210  -3.888  -7.755  0.00  0.00    +0.043 C 
ATOM     17  C   UNL     1      -2.167  -4.399  -6.750  0.00  0.00    +0.005 C 
ATOM     18  C   UNL     1      -2.707  -4.185  -5.332  0.00  0.00    +0.005 C 
ATOM     19  C   UNL     1      -2.728  -2.692  -5.004  0.00  0.00    +0.037 C 
ATOM     20  H   UNL     1      -1.964  -1.168  -1.083  0.00  0.00    -0.081 HD
ENDROOT
BRANCH   1  21
ATOM     21  C   UNL     1      -1.932   0.349   0.280  0.00  0.00    -0.048 C 
BRANCH  21  23
ATOM     22  C   UNL     1      -1.735  -1.766   1.797  0.00  0.00    +0.036 C 
ATOM     23  C   UNL     1      -2.490  -0.536   1.365  0.00  0.00    -0.096 C 
ATOM     24  C   UNL     1      -3.632  -0.235   1.932  0.00  0.00    +0.005 C 
ENDBRANCH  21  23
ENDBRANCH   1  21
BRANCH  14  25
ATOM     25  S   UNL     1      -5.843   3.494  -5.866  0.00  0.00    -0.077 S 
BRANCH  25  26
ATOM     26  C   UNL     1      -6.548   3.689  -7.526  0.00  0.00    +0.173 C 
BRANCH  26  27
ATOM     27  C   UNL     1      -7.200   5.044  -7.638  0.00  0.00    +0.227 C 
ATOM     28  O   UNL     1      -7.190   5.802  -6.691  0.00  0.00    -0.275 OA
ATOM     29  N   UNL     1      -7.795   5.412  -8.790  0.00  0.00    -0.285 N 
ATOM     30  H   UNL     1      -7.869   4.779  -9.521  0.00  0.00    +0.155 HD
BRANCH  29  31
ATOM     31  C   UNL     1      -8.304   6.708  -8.931  0.00  0.00    +0.033 A 
ATOM     32  C   UNL     1      -9.457   6.925  -9.674  0.00  0.00    +0.023 A 
ATOM     33  C   UNL     1      -9.957   8.205  -9.812  0.00  0.00    +0.002 A 
ATOM     34  C   UNL     1      -9.312   9.269  -9.210  0.00  0.00    +0.000 A 
ATOM     35  C   UNL     1      -8.163   9.057  -8.470  0.00  0.00    +0.002 A 
ATOM     36  C   UNL     1      -7.661   7.778  -8.324  0.00  0.00    +0.023 A 
ENDBRANCH  29  31
ENDBRANCH  26  27
ENDBRANCH  25  26
ENDBRANCH  14  25
TORSDOF 6
