REMARK  Name = ZINC45440212
REMARK  5 active torsions:
REMARK  status: ('A' for Active; 'I' for Inactive)
REMARK    1  A    between atoms: C_6  and  C_7
REMARK    2  A    between atoms: C_7  and  C_8
REMARK    3  A    between atoms: N_10  and  N_11
REMARK    4  A    between atoms: N_14  and  C_15
REMARK    5  A    between atoms: C_20  and  C_23
REMARK                            x       y       z     vdW  Elec       q    Type
REMARK                         _______ _______ _______ _____ _____    ______ ____
ROOT
ATOM      1  N   UNL     1      -3.294  -1.933  -2.964  0.00  0.00    -0.218 N 
ATOM      2  C   UNL     1      -4.435  -2.609  -3.203  0.00  0.00    +0.316 C 
ATOM      3  O   UNL     1      -4.794  -2.810  -4.346  0.00  0.00    -0.251 OA
ATOM      4  N   UNL     1      -5.177  -3.063  -2.173  0.00  0.00    -0.295 N 
ATOM      5  H   UNL     1      -2.760  -1.606  -3.705  0.00  0.00    +0.174 HD
ATOM      6  H   UNL     1      -4.890  -2.902  -1.260  0.00  0.00    +0.151 HD
ENDROOT
BRANCH   4   7
ATOM      7  C   UNL     1      -6.417  -3.798  -2.433  0.00  0.00    +0.075 C 
ATOM      8  C   UNL     1      -7.566  -2.807  -2.633  0.00  0.00    +0.022 C 
ATOM      9  C   UNL     1      -7.731  -1.957  -1.371  0.00  0.00    +0.002 C 
ATOM     10  C   UNL     1      -8.044  -2.865  -0.181  0.00  0.00    +0.012 C 
ATOM     11  C   UNL     1      -6.895  -3.857   0.019  0.00  0.00    +0.095 C 
ATOM     12  C   UNL     1      -6.730  -4.707  -1.242  0.00  0.00    +0.034 C 
BRANCH  11  13
ATOM     13  C   UNL     1      -7.208  -4.766   1.210  0.00  0.00    +0.393 C 
ATOM     14  F   UNL     1      -8.392  -5.468   0.962  0.00  0.00    -0.170 F 
ATOM     15  F   UNL     1      -6.158  -5.672   1.393  0.00  0.00    -0.170 F 
ATOM     16  F   UNL     1      -7.359  -3.988   2.363  0.00  0.00    -0.170 F 
ENDBRANCH  11  13
ENDBRANCH   4   7
BRANCH   1  19
ATOM     17  C   UNL     1      -1.738  -1.024  -1.407  0.00  0.00    +0.233 C 
ATOM     18  O   UNL     1      -1.070  -0.616  -2.333  0.00  0.00    -0.274 OA
ATOM     19  N   UNL     1      -2.880  -1.701  -1.646  0.00  0.00    -0.233 N 
ATOM     20  H   UNL     1      -3.414  -2.027  -0.905  0.00  0.00    +0.173 HD
BRANCH  17  21
ATOM     21  C   UNL     1      -1.293  -0.775   0.011  0.00  0.00    +0.132 C 
BRANCH  21  27
ATOM     22  C   UNL     1      -0.017   1.378   0.010  0.00  0.00    +0.005 A 
ATOM     23  C   UNL     1       1.171   2.086   0.002  0.00  0.00    +0.020 A 
ATOM     24  C   UNL     1       2.378   1.410  -0.013  0.00  0.00    +0.041 A 
ATOM     25  C   UNL     1       2.396   0.027  -0.021  0.00  0.00    +0.020 A 
ATOM     26  C   UNL     1       1.208  -0.679  -0.013  0.00  0.00    +0.005 A 
ATOM     27  C   UNL     1       0.002  -0.004   0.002  0.00  0.00    -0.038 A 
ATOM     28 CL   UNL     1       3.870   2.298  -0.023  0.00  0.00    -0.084 Cl
ENDBRANCH  21  27
ENDBRANCH  17  21
ENDBRANCH   1  19
TORSDOF 5
