REMARK  Name = ZINC40167979
REMARK  11 active torsions:
REMARK  status: ('A' for Active; 'I' for Inactive)
REMARK    1  A    between atoms: C_1  and  C_2
REMARK    2  A    between atoms: C_5  and  C_8
REMARK    3  A    between atoms: C_9  and  O_19
REMARK    4  A    between atoms: O_19  and  C_20
REMARK    5  A    between atoms: C_20  and  C_22
REMARK    6  A    between atoms: C_20  and  C_23
REMARK    7  A    between atoms: N_25  and  C_26
REMARK    8  A    between atoms: C_29  and  O_34
REMARK    9  A    between atoms: C_31  and  O_32
REMARK   10  A    between atoms: O_32  and  C_33
REMARK   11  A    between atoms: O_34  and  C_35
REMARK                            x       y       z     vdW  Elec       q    Type
REMARK                         _______ _______ _______ _____ _____    ______ ____
ROOT
ATOM      1  C   UNL     1      -1.180  -5.820   1.192  0.00  0.00    +0.181 A 
ATOM      2  C   UNL     1      -0.203  -4.893   1.398  0.00  0.00    +0.212 A 
ATOM      3  C   UNL     1       0.860  -4.782   0.464  0.00  0.00    +0.235 A 
ATOM      4  O   UNL     1       1.753  -3.964   0.614  0.00  0.00    -0.283 OA
ATOM      5  C   UNL     1       0.842  -5.695  -0.695  0.00  0.00    +0.068 A 
ATOM      6  C   UNL     1       1.846  -5.657  -1.662  0.00  0.00    +0.015 A 
ATOM      7  C   UNL     1       1.794  -6.527  -2.729  0.00  0.00    +0.001 A 
ATOM      8  C   UNL     1       0.751  -7.434  -2.843  0.00  0.00    +0.004 A 
ATOM      9  C   UNL     1      -0.247  -7.481  -1.893  0.00  0.00    +0.047 A 
ATOM     10  C   UNL     1      -0.214  -6.613  -0.808  0.00  0.00    +0.140 A 
ATOM     11  O   UNL     1      -1.179  -6.648   0.134  0.00  0.00    -0.451 OA
ENDROOT
BRANCH   1  16
ATOM     12  C   UNL     1      -5.462  -6.220   5.013  0.00  0.00    +0.044 C 
ATOM     13  C   UNL     1      -4.340  -6.115   4.012  0.00  0.00    -0.050 A 
ATOM     14  C   UNL     1      -3.029  -6.061   4.450  0.00  0.00    +0.004 A 
ATOM     15  C   UNL     1      -1.997  -5.966   3.540  0.00  0.00    +0.012 A 
ATOM     16  C   UNL     1      -2.279  -5.923   2.172  0.00  0.00    +0.021 A 
ATOM     17  C   UNL     1      -3.605  -5.977   1.737  0.00  0.00    +0.012 A 
ATOM     18  C   UNL     1      -4.626  -6.078   2.659  0.00  0.00    +0.004 A 
ENDBRANCH   1  16
BRANCH   2  19
ATOM     19  O   UNL     1      -0.246  -4.080   2.488  0.00  0.00    -0.473 OA
BRANCH  19  20
ATOM     20  C   UNL     1      -0.435  -2.684   2.249  0.00  0.00    +0.256 C 
ATOM     21  C   UNL     1      -1.927  -2.353   2.318  0.00  0.00    +0.062 C 
BRANCH  20  22
ATOM     22  C   UNL     1       0.304  -1.891   3.296  0.00  0.00    +0.258 C 
ATOM     23  O   UNL     1       0.843  -2.461   4.221  0.00  0.00    -0.271 OA
ATOM     24  N   UNL     1       0.367  -0.547   3.204  0.00  0.00    -0.280 N 
ATOM     25  H   UNL     1      -0.121  -0.086   2.503  0.00  0.00    +0.155 HD
BRANCH  24  26
ATOM     26  C   UNL     1       1.137   0.183   4.121  0.00  0.00    +0.076 A 
ATOM     27  C   UNL     1       2.121  -0.453   4.863  0.00  0.00    +0.030 A 
ATOM     28  C   UNL     1       2.880   0.267   5.766  0.00  0.00    +0.047 A 
ATOM     29  C   UNL     1       2.659   1.627   5.933  0.00  0.00    +0.124 A 
ATOM     30  C   UNL     1       1.676   2.267   5.193  0.00  0.00    +0.093 A 
ATOM     31  C   UNL     1       0.918   1.549   4.282  0.00  0.00    +0.145 A 
BRANCH  31  32
ATOM     32  O   UNL     1      -0.042   2.176   3.552  0.00  0.00    -0.493 OA
ATOM     33  C   UNL     1      -0.211   3.579   3.770  0.00  0.00    +0.277 C 
ENDBRANCH  31  32
BRANCH  29  34
ATOM     34  O   UNL     1       3.408   2.332   6.822  0.00  0.00    -0.495 OA
ATOM     35  C   UNL     1       4.402   1.609   7.550  0.00  0.00    +0.277 C 
ENDBRANCH  29  34
ENDBRANCH  24  26
ENDBRANCH  20  22
ENDBRANCH  19  20
ENDBRANCH   2  19
TORSDOF 7
