REMARK  Name = ZINC37281466
REMARK  5 active torsions:
REMARK  status: ('A' for Active; 'I' for Inactive)
REMARK    1  A    between atoms: C_1  and  C_2
REMARK    2  A    between atoms: C_9  and  N_14
REMARK    3  A    between atoms: N_14  and  C_15
REMARK    4  A    between atoms: C_21  and  O_23
REMARK    5  A    between atoms: O_23  and  C_24
REMARK                            x       y       z     vdW  Elec       q    Type
REMARK                         _______ _______ _______ _____ _____    ______ ____
ROOT
ATOM      1  C   UNL     1      -0.019   1.526   0.010  0.00  0.00    +0.062 C 
ATOM      2  C   UNL     1       0.002  -0.004   0.002  0.00  0.00    +0.256 C 
ATOM      3  C   UNL     1       0.706  -0.490  -1.239  0.00  0.00    +0.258 C 
ATOM      4  O   UNL     1       0.074  -0.718  -2.249  0.00  0.00    -0.271 OA
ATOM      5  N   UNL     1       2.045  -0.669  -1.223  0.00  0.00    -0.279 N 
ATOM      6  C   UNL     1       2.748  -0.432  -0.033  0.00  0.00    +0.077 A 
ATOM      7  C   UNL     1       4.126  -0.290  -0.044  0.00  0.00    +0.050 A 
ATOM      8  C   UNL     1       4.804  -0.056   1.145  0.00  0.00    +0.029 A 
ATOM      9  C   UNL     1       4.101   0.034   2.340  0.00  0.00    +0.026 A 
ATOM     10  C   UNL     1       2.726  -0.107   2.350  0.00  0.00    +0.049 A 
ATOM     11  C   UNL     1       2.046  -0.339   1.167  0.00  0.00    +0.143 A 
ATOM     12  O   UNL     1       0.693  -0.477   1.161  0.00  0.00    -0.478 OA
ATOM     13  H   UNL     1       2.513  -0.958  -2.022  0.00  0.00    +0.155 HD
ENDROOT
BRANCH   8  14
ATOM     14  N   UNL     1       6.196   0.088   1.140  0.00  0.00    -0.338 N 
ATOM     15  H   UNL     1       6.687   0.024   0.306  0.00  0.00    +0.146 HD
BRANCH  14  16
ATOM     16  C   UNL     1       6.911   0.334   2.395  0.00  0.00    +0.099 C 
ATOM     17  C   UNL     1       6.904   1.833   2.700  0.00  0.00    +0.025 C 
ATOM     18  C   UNL     1       7.594   2.588   1.562  0.00  0.00    +0.002 C 
ATOM     19  C   UNL     1       9.039   2.102   1.429  0.00  0.00    +0.003 C 
ATOM     20  C   UNL     1       9.046   0.602   1.124  0.00  0.00    +0.033 C 
ATOM     21  C   UNL     1       8.355  -0.153   2.262  0.00  0.00    +0.138 C 
BRANCH  21  22
ATOM     22  O   UNL     1       8.362  -1.553   1.977  0.00  0.00    -0.378 OA
ATOM     23  C   UNL     1       9.510  -2.243   2.476  0.00  0.00    +0.194 C 
ENDBRANCH  21  22
ENDBRANCH  14  16
ENDBRANCH   8  14
TORSDOF 3
