REMARK  Name = ZINC39671406
REMARK  4 active torsions:
REMARK  status: ('A' for Active; 'I' for Inactive)
REMARK    1  A    between atoms: C_6  and  C_11
REMARK    2  A    between atoms: C_11  and  N_12
REMARK    3  A    between atoms: C_13  and  C_15
REMARK    4  A    between atoms: C_26  and  C_28
REMARK                            x       y       z     vdW  Elec       q    Type
REMARK                         _______ _______ _______ _____ _____    ______ ____
ROOT
ATOM      1  C   UNL     1      -8.272  -0.067   2.932  0.00  0.00    +0.100 C 
ATOM      2  C   UNL     1      -7.913  -1.420   3.586  0.00  0.00    +0.121 C 
ATOM      3  N   UNL     1      -9.066  -1.729   4.464  0.00  0.00    -0.296 N 
ATOM      4  C   UNL     1     -10.250  -1.299   3.683  0.00  0.00    +0.115 C 
ATOM      5  C   UNL     1      -9.807   0.008   2.997  0.00  0.00    -0.004 C 
ATOM      6  C   UNL     1     -10.242   1.213   3.826  0.00  0.00    -0.010 C 
ATOM      7  C   UNL     1     -11.771   1.298   3.829  0.00  0.00    -0.082 C 
ATOM      8  N   UNL     1     -12.258   1.426   2.451  0.00  0.00    +0.379 N 
ATOM      9  C   UNL     1     -11.915   0.222   1.685  0.00  0.00    -0.082 C 
ATOM     10  C   UNL     1     -10.393   0.091   1.591  0.00  0.00    -0.010 C 
ATOM     11  C   UNL     1      -9.043  -2.278   5.695  0.00  0.00    +0.247 C 
ATOM     12  O   UNL     1     -10.085  -2.553   6.258  0.00  0.00    -0.270 OA
ATOM     13  H   UNL     1     -13.261   1.544   2.459  0.00  0.00    -0.086 HD
ATOM     14  H   UNL     1     -11.832   2.232   2.018  0.00  0.00    -0.086 HD
ENDROOT
BRANCH  11  15
ATOM     15  C   UNL     1      -7.751  -2.544   6.361  0.00  0.00    +0.045 A 
ATOM     16  C   UNL     1      -6.741  -3.236   5.683  0.00  0.00    +0.014 A 
ATOM     17  C   UNL     1      -5.535  -3.485   6.301  0.00  0.00    +0.001 A 
ATOM     18  C   UNL     1      -5.309  -3.056   7.600  0.00  0.00    +0.012 A 
ATOM     19  C   UNL     1      -6.300  -2.368   8.291  0.00  0.00    +0.031 A 
ATOM     20  C   UNL     1      -7.531  -2.101   7.671  0.00  0.00    +0.006 A 
ATOM     21  C   UNL     1      -8.391  -1.355   8.623  0.00  0.00    -0.006 A 
ATOM     22  C   UNL     1      -9.685  -0.862   8.512  0.00  0.00    +0.009 A 
ATOM     23  C   UNL     1     -10.263  -0.187   9.576  0.00  0.00    +0.001 A 
ATOM     24  C   UNL     1      -9.561   0.001  10.750  0.00  0.00    +0.001 A 
ATOM     25  C   UNL     1      -8.269  -0.485  10.877  0.00  0.00    +0.012 A 
ATOM     26  C   UNL     1      -7.678  -1.164   9.819  0.00  0.00    +0.030 A 
ATOM     27  C   UNL     1      -6.348  -1.798   9.659  0.00  0.00    +0.194 C 
ATOM     28  O   UNL     1      -5.460  -1.833  10.486  0.00  0.00    -0.287 OA
ENDBRANCH  11  15
BRANCH   1  30
ATOM     29  N   UNL     1      -7.604   1.145   0.882  0.00  0.00    -0.309 N 
ATOM     30  C   UNL     1      -7.806  -0.036   1.500  0.00  0.00    +0.219 C 
ATOM     31  O   UNL     1      -7.612  -1.074   0.902  0.00  0.00    -0.275 OA
ATOM     32  H   UNL     1      -7.759   1.975   1.360  0.00  0.00    +0.149 HD
BRANCH  29  33
ATOM     33  C   UNL     1      -7.150   1.175  -0.511  0.00  0.00    +0.157 C 
BRANCH  33  39
ATOM     34  C   UNL     1      -7.082   6.912  -2.540  0.00  0.00    +0.001 A 
ATOM     35  C   UNL     1      -5.808   6.908  -1.990  0.00  0.00    +0.002 A 
ATOM     36  C   UNL     1      -5.312   5.781  -1.372  0.00  0.00    +0.026 A 
ATOM     37  C   UNL     1      -6.095   4.634  -1.297  0.00  0.00    +0.047 A 
ATOM     38  N   UNL     1      -5.893   3.381  -0.761  0.00  0.00    -0.357 N 
ATOM     39  C   UNL     1      -7.003   2.606  -0.960  0.00  0.00    +0.034 A 
ATOM     40  H   UNL     1      -5.085   3.092  -0.310  0.00  0.00    +0.166 HD
ATOM     41  C   UNL     1      -7.941   3.308  -1.616  0.00  0.00    +0.032 A 
ATOM     42  C   UNL     1      -7.386   4.643  -1.856  0.00  0.00    -0.000 A 
ATOM     43  C   UNL     1      -7.870   5.798  -2.473  0.00  0.00    +0.010 A 
ENDBRANCH  33  39
ENDBRANCH  29  33
ENDBRANCH   1  30
TORSDOF 4
