REMARK  Name = ZINC01913284
REMARK  9 active torsions:
REMARK  status: ('A' for Active; 'I' for Inactive)
REMARK    1  A    between atoms: C_1  and  C_2
REMARK    2  A    between atoms: C_2  and  N_3
REMARK    3  A    between atoms: N_3  and  C_4
REMARK    4  A    between atoms: N_3  and  C_11
REMARK    5  A    between atoms: C_4  and  C_5
REMARK    6  A    between atoms: C_11  and  C_12
REMARK    7  A    between atoms: C_13  and  O_34
REMARK    8  A    between atoms: C_19  and  C_30
REMARK    9  A    between atoms: C_20  and  C_23
REMARK                            x       y       z     vdW  Elec       q    Type
REMARK                         _______ _______ _______ _____ _____    ______ ____
ROOT
ATOM      1  C   UNL     1      -0.889  -1.783   1.546  0.00  0.00    +0.020 A 
ATOM      2  C   UNL     1       0.469  -2.053   1.571  0.00  0.00    +0.122 A 
ATOM      3  C   UNL     1       1.093  -2.448   2.752  0.00  0.00    +0.046 A 
ATOM      4  C   UNL     1       0.371  -2.569   3.906  0.00  0.00    +0.019 A 
ATOM      5  C   UNL     1      -0.996  -2.297   3.896  0.00  0.00    +0.065 A 
ATOM      6  C   UNL     1      -1.638  -1.899   2.709  0.00  0.00    +0.144 A 
ATOM      7  O   UNL     1      -2.961  -1.647   2.702  0.00  0.00    -0.450 OA
ATOM      8  C   UNL     1      -3.647  -1.461   3.831  0.00  0.00    +0.219 A 
ATOM      9  C   UNL     1      -3.161  -1.806   5.052  0.00  0.00    +0.076 A 
ATOM     10  C   UNL     1      -1.812  -2.406   5.120  0.00  0.00    +0.201 A 
ATOM     11  O   UNL     1      -1.394  -2.947   6.130  0.00  0.00    -0.286 OA
ENDROOT
BRANCH   9  12
ATOM     12  C   UNL     1      -3.966  -1.597   6.280  0.00  0.00    -0.011 A 
ATOM     13  C   UNL     1      -5.052  -2.427   6.554  0.00  0.00    +0.010 A 
ATOM     14  C   UNL     1      -5.798  -2.228   7.698  0.00  0.00    +0.020 A 
ATOM     15  C   UNL     1      -5.469  -1.208   8.573  0.00  0.00    +0.041 A 
ATOM     16  C   UNL     1      -4.391  -0.381   8.306  0.00  0.00    +0.020 A 
ATOM     17  C   UNL     1      -3.636  -0.574   7.168  0.00  0.00    +0.010 A 
ATOM     18 CL   UNL     1      -6.411  -0.963  10.011  0.00  0.00    -0.084 Cl
ENDBRANCH   9  12
BRANCH   8  19
ATOM     19  C   UNL     1      -5.018  -0.841   3.749  0.00  0.00    +0.451 C 
ATOM     20  F   UNL     1      -5.483  -0.565   5.039  0.00  0.00    -0.163 F 
ATOM     21  F   UNL     1      -4.950   0.347   3.014  0.00  0.00    -0.163 F 
ATOM     22  F   UNL     1      -5.895  -1.731   3.118  0.00  0.00    -0.163 F 
ENDBRANCH   8  19
BRANCH   2  23
ATOM     23  O   UNL     1       1.199  -1.934   0.433  0.00  0.00    -0.506 OA
ATOM     24  H   UNL     1       1.576  -1.054   0.298  0.00  0.00    +0.292 HD
ENDBRANCH   2  23
BRANCH   1  25
ATOM     25  C   UNL     1      -1.551  -1.358   0.260  0.00  0.00    -0.035 C 
BRANCH  25  26
ATOM     26  N   UNL     1      -1.501   0.106   0.145  0.00  0.00    +0.385 N 
ATOM     27  H   UNL     1      -1.913   0.522   0.966  0.00  0.00    -0.081 HD
BRANCH  26  29
ATOM     28  C   UNL     1      -0.045   2.070   0.001  0.00  0.00    -0.017 C 
ATOM     29  C   UNL     1      -0.103   0.541   0.024  0.00  0.00    -0.081 C 
ENDBRANCH  26  29
BRANCH  26  30
ATOM     30  C   UNL     1      -2.250   0.529  -1.046  0.00  0.00    -0.043 C 
BRANCH  30  31
ATOM     31  C   UNL     1      -3.711   0.209  -0.861  0.00  0.00    -0.064 A 
ATOM     32  C   UNL     1      -4.232  -0.966  -1.371  0.00  0.00    +0.002 A 
ATOM     33  C   UNL     1      -5.572  -1.259  -1.201  0.00  0.00    +0.000 A 
ATOM     34  C   UNL     1      -6.391  -0.378  -0.520  0.00  0.00    +0.000 A 
ATOM     35  C   UNL     1      -5.870   0.796  -0.009  0.00  0.00    +0.000 A 
ATOM     36  C   UNL     1      -4.529   1.087  -0.176  0.00  0.00    +0.002 A 
ENDBRANCH  30  31
ENDBRANCH  26  30
ENDBRANCH  25  26
ENDBRANCH   1  25
TORSDOF 8
