REMARK  Name = ZINC14105972
REMARK  7 active torsions:
REMARK  status: ('A' for Active; 'I' for Inactive)
REMARK    1  A    between atoms: C_1  and  C_2
REMARK    2  A    between atoms: C_2  and  C_3
REMARK    3  A    between atoms: C_2  and  C_4
REMARK    4  A    between atoms: C_9  and  N_10
REMARK    5  A    between atoms: C_11  and  C_13
REMARK    6  A    between atoms: N_18  and  S_20
REMARK    7  A    between atoms: S_20  and  C_23
REMARK                            x       y       z     vdW  Elec       q    Type
REMARK                         _______ _______ _______ _____ _____    ______ ____
ROOT
ATOM      1  C   UNL     1      -1.181  -2.152   2.915  0.00  0.00    +0.091 C 
ATOM      2  C   UNL     1       0.072  -2.305   3.779  0.00  0.00    +0.015 C 
ATOM      3  C   UNL     1       1.318  -2.112   2.912  0.00  0.00    +0.018 C 
ATOM      4  C   UNL     1       1.309  -0.705   2.317  0.00  0.00    +0.109 C 
ATOM      5  N   UNL     1       0.041  -0.494   1.606  0.00  0.00    -0.176 NA
ATOM      6  C   UNL     1      -1.219  -0.740   2.322  0.00  0.00    +0.122 C 
ENDROOT
BRANCH   1   8
ATOM      7  N   UNL     1      -2.589  -3.553   4.389  0.00  0.00    -0.285 N 
ATOM      8  C   UNL     1      -2.407  -2.374   3.763  0.00  0.00    +0.222 C 
ATOM      9  O   UNL     1      -3.230  -1.491   3.882  0.00  0.00    -0.275 OA
ATOM     10  H   UNL     1      -1.974  -4.286   4.231  0.00  0.00    +0.155 HD
BRANCH   7  16
ATOM     11  C   UNL     1      -4.178  -4.989   5.506  0.00  0.00    -0.024 A 
ATOM     12  C   UNL     1      -5.237  -5.151   6.378  0.00  0.00    +0.006 A 
ATOM     13  C   UNL     1      -5.793  -4.052   7.005  0.00  0.00    +0.000 A 
ATOM     14  C   UNL     1      -5.288  -2.787   6.765  0.00  0.00    +0.002 A 
ATOM     15  C   UNL     1      -4.226  -2.618   5.899  0.00  0.00    +0.023 A 
ATOM     16  C   UNL     1      -3.665  -3.721   5.268  0.00  0.00    +0.037 A 
BRANCH  11  18
ATOM     17  C   UNL     1      -3.160  -7.221   5.867  0.00  0.00    +0.012 C 
ATOM     18  C   UNL     1      -3.576  -6.187   4.818  0.00  0.00    +0.015 C 
ATOM     19  C   UNL     1      -4.609  -6.805   3.874  0.00  0.00    +0.012 C 
ENDBRANCH  11  18
ENDBRANCH   7  16
ENDBRANCH   1   8
BRANCH   5  20
ATOM     20  S   UNL     1       0.031   0.005   0.027  0.00  0.00    +0.061 S 
ATOM     21  O   UNL     1      -1.209  -0.418  -0.524  0.00  0.00    -0.153 OA
ATOM     22  O   UNL     1       1.282  -0.378  -0.527  0.00  0.00    -0.153 OA
BRANCH  20  23
ATOM     23  C   UNL     1       0.002   1.767   0.038  0.00  0.00    +0.106 A 
ATOM     24  C   UNL     1      -1.206   2.438   0.038  0.00  0.00    +0.029 A 
ATOM     25  C   UNL     1      -1.229   3.820   0.051  0.00  0.00    +0.017 A 
ATOM     26  C   UNL     1      -0.043   4.531   0.053  0.00  0.00    +0.018 A 
ATOM     27  C   UNL     1       1.166   3.859   0.048  0.00  0.00    +0.017 A 
ATOM     28  C   UNL     1       1.188   2.477   0.041  0.00  0.00    +0.029 A 
ATOM     29 BR   UNL     1      -0.073   6.422   0.063  0.00  0.00    -0.050 Br
ENDBRANCH  20  23
ENDBRANCH   5  20
TORSDOF 5
