REMARK  Name = ZINC14119229
REMARK  5 active torsions:
REMARK  status: ('A' for Active; 'I' for Inactive)
REMARK    1  A    between atoms: C_8  and  C_10
REMARK    2  A    between atoms: C_15  and  C_16
REMARK    3  A    between atoms: C_15  and  N_51
REMARK    4  A    between atoms: N_18  and  C_19
REMARK    5  A    between atoms: C_20  and  C_28
REMARK                            x       y       z     vdW  Elec       q    Type
REMARK                         _______ _______ _______ _____ _____    ______ ____
ROOT
ATOM      1  C   UNL     1       1.346  -3.848   1.694  0.00  0.00    +0.020 C 
ENDROOT
BRANCH   1   6
ATOM      2  C   UNL     1       3.028  -4.013  -0.046  0.00  0.00    -0.011 C 
ATOM      3  C   UNL     1       2.736  -4.624  -1.433  0.00  0.00    -0.010 C 
ATOM      4  C   UNL     1       2.216  -6.044  -1.086  0.00  0.00    -0.020 C 
ATOM      5  C   UNL     1       1.428  -5.778   0.221  0.00  0.00    -0.077 C 
ATOM      6  N   UNL     1       2.234  -4.768   0.936  0.00  0.00    +0.391 N 
ATOM      7  H   UNL     1       2.866  -5.241   1.592  0.00  0.00    -0.080 HD
BRANCH   2  15
ATOM      8  C   UNL     1      -0.016   1.356   0.009  0.00  0.00    +0.002 A 
ATOM      9  C   UNL     1       1.155   2.100   0.002  0.00  0.00    +0.001 A 
ATOM     10  C   UNL     1       2.374   1.448  -0.013  0.00  0.00    +0.017 A 
ATOM     11  C   UNL     1       2.403   0.075  -0.021  0.00  0.00    +0.039 A 
ATOM     12  C   UNL     1       1.226  -0.709  -0.013  0.00  0.00    +0.078 A 
ATOM     13  C   UNL     1       0.002  -0.004   0.002  0.00  0.00    +0.029 A 
ATOM     14  N   UNL     1       1.441  -2.041  -0.022  0.00  0.00    -0.246 NA
ATOM     15  C   UNL     1       2.638  -2.557  -0.036  0.00  0.00    +0.066 A 
ATOM     16  S   UNL     1       3.674  -1.164  -0.039  0.00  0.00    -0.074 S 
ENDBRANCH   2  15
ENDBRANCH   1   6
BRANCH   1  17
ATOM     17  C   UNL     1       0.723  -4.595   2.845  0.00  0.00    +0.201 C 
ATOM     18  O   UNL     1       0.980  -5.767   3.018  0.00  0.00    -0.278 OA
ATOM     19  N   UNL     1      -0.121  -3.959   3.682  0.00  0.00    -0.281 N 
ATOM     20  H   UNL     1      -0.327  -3.022   3.544  0.00  0.00    +0.155 HD
BRANCH  19  21
ATOM     21  C   UNL     1      -0.695  -4.646   4.741  0.00  0.00    +0.086 A 
ATOM     22  C   UNL     1      -1.579  -4.170   5.701  0.00  0.00    +0.095 A 
ATOM     23  C   UNL     1      -2.036  -5.106   6.715  0.00  0.00    -0.021 A 
ATOM     24  C   UNL     1      -1.540  -6.357   6.608  0.00  0.00    -0.004 A 
ATOM     25  S   UNL     1      -0.489  -6.308   5.184  0.00  0.00    -0.077 S 
ATOM     26  C   UNL     1      -1.830  -7.523   7.503  0.00  0.00    +0.043 C 
ATOM     27  C   UNL     1      -2.486  -6.995   8.787  0.00  0.00    +0.005 C 
ATOM     28  C   UNL     1      -3.606  -6.022   8.405  0.00  0.00    +0.005 C 
ATOM     29  C   UNL     1      -3.005  -4.738   7.832  0.00  0.00    +0.037 C 
BRANCH  22  30
ATOM     30  C   UNL     1      -2.033  -2.778   5.691  0.00  0.00    +0.389 C 
ATOM     31  O   UNL     1      -3.034  -2.469   5.073  0.00  0.00    -0.240 OA
ATOM     32  O   UNL     1      -1.341  -1.838   6.368  0.00  0.00    -0.240 OA
ENDBRANCH  22  30
ENDBRANCH  19  21
ENDBRANCH   1  17
TORSDOF 5
