REMARK  Name = ZINC65025199
REMARK  10 active torsions:
REMARK  status: ('A' for Active; 'I' for Inactive)
REMARK    1  A    between atoms: C_1  and  C_2
REMARK    2  A    between atoms: C_2  and  C_3
REMARK    3  A    between atoms: C_3  and  C_5
REMARK    4  A    between atoms: C_3  and  N_6
REMARK    5  A    between atoms: C_7  and  C_9
REMARK    6  A    between atoms: C_11  and  N_21
REMARK    7  A    between atoms: C_14  and  N_15
REMARK    8  A    between atoms: N_21  and  S_22
REMARK    9  A    between atoms: S_22  and  C_25
REMARK   10  A    between atoms: C_28  and  C_31
REMARK                            x       y       z     vdW  Elec       q    Type
REMARK                         _______ _______ _______ _____ _____    ______ ____
ROOT
ATOM      1  C   UNL     1      -3.694   0.467   2.513  0.00  0.00    +0.078 A 
ATOM      2  C   UNL     1      -3.069   0.573   3.761  0.00  0.00    +0.042 A 
ATOM      3  C   UNL     1      -3.854   0.870   4.868  0.00  0.00    +0.067 A 
ATOM      4  C   UNL     1      -5.222   1.051   4.704  0.00  0.00    +0.137 A 
ATOM      5  N   UNL     1      -5.786   0.946   3.517  0.00  0.00    -0.238 NA
ATOM      6  C   UNL     1      -5.081   0.670   2.431  0.00  0.00    +0.133 A 
ENDROOT
BRANCH   6   7
ATOM      7  N   UNL     1      -5.718   0.575   1.204  0.00  0.00    -0.318 N 
ATOM      8  C   UNL     1      -6.343  -0.684   0.772  0.00  0.00    +0.087 C 
ATOM      9  C   UNL     1      -7.774  -0.384   0.313  0.00  0.00    -0.063 C 
ATOM     10  N   UNL     1      -7.747   0.664  -0.716  0.00  0.00    +0.381 N 
ATOM     11  C   UNL     1      -7.245   1.918  -0.140  0.00  0.00    -0.063 C 
ATOM     12  C   UNL     1      -5.793   1.733   0.300  0.00  0.00    +0.087 C 
ATOM     13  H   UNL     1      -7.143   0.377  -1.471  0.00  0.00    -0.086 HD
ATOM     14  H   UNL     1      -8.680   0.808  -1.072  0.00  0.00    -0.086 HD
ENDBRANCH   6   7
BRANCH   1  16
ATOM     15  N   UNL     1      -1.565   0.081   1.376  0.00  0.00    -0.309 N 
ATOM     16  C   UNL     1      -2.909   0.155   1.305  0.00  0.00    +0.248 C 
ATOM     17  O   UNL     1      -3.473  -0.036   0.245  0.00  0.00    -0.270 OA
ATOM     18  H   UNL     1      -1.114   0.233   2.221  0.00  0.00    +0.149 HD
BRANCH  15  19
ATOM     19  C   UNL     1      -0.784  -0.230   0.175  0.00  0.00    +0.070 C 
ATOM     20  C   UNL     1      -0.712  -1.747  -0.008  0.00  0.00    +0.028 C 
BRANCH  19  22
ATOM     21  C   UNL     1       0.567   1.861   0.384  0.00  0.00    +0.005 C 
ATOM     22  C   UNL     1       0.630   0.334   0.327  0.00  0.00    +0.018 C 
ENDBRANCH  19  22
ENDBRANCH  15  19
ENDBRANCH   1  16
BRANCH   3  23
ATOM     23  N   UNL     1      -3.272   0.985   6.137  0.00  0.00    -0.215 N 
ATOM     24  H   UNL     1      -2.629   0.324   6.438  0.00  0.00    +0.174 HD
BRANCH  23  25
ATOM     25  S   UNL     1      -3.683   2.249   7.125  0.00  0.00    +0.072 S 
ATOM     26  O   UNL     1      -5.103   2.281   7.174  0.00  0.00    -0.150 OA
ATOM     27  O   UNL     1      -2.882   2.129   8.292  0.00  0.00    -0.150 OA
BRANCH  25  28
ATOM     28  C   UNL     1      -3.174   3.729   6.315  0.00  0.00    +0.109 A 
ATOM     29  C   UNL     1      -1.873   4.176   6.446  0.00  0.00    +0.029 A 
ATOM     30  C   UNL     1      -1.474   5.337   5.810  0.00  0.00    +0.006 A 
ATOM     31  C   UNL     1      -2.376   6.051   5.044  0.00  0.00    -0.044 A 
ATOM     32  C   UNL     1      -3.677   5.604   4.913  0.00  0.00    +0.006 A 
ATOM     33  C   UNL     1      -4.075   4.440   5.545  0.00  0.00    +0.029 A 
BRANCH  31  34
ATOM     34  C   UNL     1      -1.941   7.317   4.353  0.00  0.00    +0.019 C 
ATOM     35  C   UNL     1      -2.788   8.489   4.855  0.00  0.00    +0.008 C 
ATOM     36  C   UNL     1      -2.346   9.775   4.152  0.00  0.00    +0.001 C 
ATOM     37  C   UNL     1      -2.533   9.621   2.642  0.00  0.00    +0.000 C 
ATOM     38  C   UNL     1      -1.687   8.449   2.140  0.00  0.00    +0.001 C 
ATOM     39  C   UNL     1      -2.128   7.163   2.842  0.00  0.00    +0.008 C 
ENDBRANCH  31  34
ENDBRANCH  25  28
ENDBRANCH  23  25
ENDBRANCH   3  23
TORSDOF 8
