REMARK  Name = ZINC35495940
REMARK  4 active torsions:
REMARK  status: ('A' for Active; 'I' for Inactive)
REMARK    1  A    between atoms: C_1  and  N_2
REMARK    2  A    between atoms: N_2  and  C_3
REMARK    3  A    between atoms: C_3  and  C_5
REMARK    4  A    between atoms: C_3  and  C_15
REMARK                            x       y       z     vdW  Elec       q    Type
REMARK                         _______ _______ _______ _____ _____    ______ ____
ROOT
ATOM      1  C   UNL     1      -1.376  -0.512   0.012  0.00  0.00    -0.010 C 
ENDROOT
BRANCH   1   2
ATOM      2  C   UNL     1      -1.356  -2.015   0.128  0.00  0.00    -0.057 A 
ATOM      3  C   UNL     1      -0.411  -2.751  -0.563  0.00  0.00    +0.004 A 
ATOM      4  C   UNL     1      -0.388  -4.127  -0.462  0.00  0.00    +0.024 A 
ATOM      5  C   UNL     1      -1.318  -4.785   0.340  0.00  0.00    +0.037 A 
ATOM      6  C   UNL     1      -2.262  -4.034   1.030  0.00  0.00    -0.017 A 
ATOM      7  C   UNL     1      -2.280  -2.661   0.931  0.00  0.00    +0.008 A 
ATOM      8  C   UNL     1      -3.112  -5.021   1.796  0.00  0.00    +0.133 C 
ATOM      9  C   UNL     1      -2.522  -6.369   1.442  0.00  0.00    +0.222 C 
ATOM     10  O   UNL     1      -2.902  -7.449   1.841  0.00  0.00    -0.275 OA
ATOM     11  N   UNL     1      -1.497  -6.144   0.603  0.00  0.00    -0.285 N 
ATOM     12  H   UNL     1      -0.945  -6.845   0.222  0.00  0.00    +0.155 HD
ENDBRANCH   1   2
BRANCH   1  13
ATOM     13  C   UNL     1      -2.067  -0.116  -1.267  0.00  0.00    -0.054 A 
ATOM     14  C   UNL     1      -1.384  -0.170  -2.467  0.00  0.00    +0.022 A 
ATOM     15  C   UNL     1      -2.018   0.194  -3.641  0.00  0.00    +0.043 A 
ATOM     16  C   UNL     1      -3.336   0.612  -3.614  0.00  0.00    +0.040 A 
ATOM     17  C   UNL     1      -4.020   0.666  -2.413  0.00  0.00    +0.043 A 
ATOM     18  C   UNL     1      -3.386   0.296  -1.240  0.00  0.00    +0.022 A 
ATOM     19 CL   UNL     1      -5.674   1.191  -2.378  0.00  0.00    -0.083 Cl
ATOM     20 CL   UNL     1      -1.159   0.127  -5.149  0.00  0.00    -0.083 Cl
ENDBRANCH   1  13
BRANCH   1  22
ATOM     21  C   UNL     1      -0.018   1.465   0.010  0.00  0.00    -0.099 C 
ATOM     22  N   UNL     1       0.002  -0.004   0.002  0.00  0.00    +0.384 N 
ATOM     23  H   UNL     1       0.474  -0.330  -0.828  0.00  0.00    -0.085 HD
ATOM     24  H   UNL     1       0.490  -0.338   0.820  0.00  0.00    -0.085 HD
ENDBRANCH   1  22
TORSDOF 3
