REMARK  Name = ZINC36026757
REMARK  10 active torsions:
REMARK  status: ('A' for Active; 'I' for Inactive)
REMARK    1  A    between atoms: C_1  and  C_2
REMARK    2  A    between atoms: C_2  and  C_3
REMARK    3  A    between atoms: C_3  and  C_5
REMARK    4  A    between atoms: C_3  and  N_6
REMARK    5  A    between atoms: C_9  and  C_25
REMARK    6  A    between atoms: N_20  and  C_21
REMARK    7  A    between atoms: C_21  and  C_22
REMARK    8  A    between atoms: C_21  and  C_23
REMARK    9  A    between atoms: C_21  and  C_24
REMARK   10  A    between atoms: C_25  and  C_26
REMARK                            x       y       z     vdW  Elec       q    Type
REMARK                         _______ _______ _______ _____ _____    ______ ____
ROOT
ATOM      1  N   UNL     1      -2.018  -0.059   1.407  0.00  0.00    -0.311 N 
ATOM      2  C   UNL     1      -1.470  -0.230   2.628  0.00  0.00    +0.201 C 
ATOM      3  O   UNL     1      -0.428  -0.806   2.863  0.00  0.00    -0.277 OA
ATOM      4  C   UNL     1      -2.373   0.418   3.655  0.00  0.00    +0.023 C 
ATOM      5  N   UNL     1      -3.667   0.607   2.956  0.00  0.00    +0.401 N 
ATOM      6  C   UNL     1      -3.267   0.697   1.534  0.00  0.00    +0.006 C 
ATOM      7  C   UNL     1      -4.351   0.077   0.654  0.00  0.00    +0.025 C 
ATOM      8  C   UNL     1      -3.911   0.136  -0.813  0.00  0.00    +0.109 C 
ATOM      9  N   UNL     1      -3.570   1.525  -1.148  0.00  0.00    -0.286 N 
ATOM     10  C   UNL     1      -2.590   2.234  -0.314  0.00  0.00    +0.109 C 
ATOM     11  C   UNL     1      -3.042   2.158   1.149  0.00  0.00    +0.025 C 
ATOM     12  C   UNL     1      -4.146   2.138  -2.201  0.00  0.00    +0.303 C 
ATOM     13  O   UNL     1      -3.935   3.317  -2.409  0.00  0.00    -0.253 OA
ATOM     14  N   UNL     1      -4.956   1.444  -3.025  0.00  0.00    -0.294 N 
ATOM     15  H   UNL     1      -4.273  -0.184   3.110  0.00  0.00    -0.082 HD
ATOM     16  H   UNL     1      -5.180   0.522  -2.821  0.00  0.00    +0.151 HD
ATOM     17  H   UNL     1      -4.111   1.462   3.253  0.00  0.00    -0.082 HD
ENDROOT
BRANCH  14  18
ATOM     18  C   UNL     1      -5.498   2.081  -4.228  0.00  0.00    +0.028 C 
ATOM     19  C   UNL     1      -4.347   2.527  -5.131  0.00  0.00    +0.031 C 
ATOM     20  C   UNL     1      -6.380   1.082  -4.980  0.00  0.00    +0.031 C 
ATOM     21  C   UNL     1      -6.334   3.298  -3.828  0.00  0.00    +0.031 C 
ENDBRANCH  14  18
BRANCH   1  22
ATOM     22  C   UNL     1      -1.449  -0.548   0.149  0.00  0.00    +0.071 C 
ATOM     23  C   UNL     1      -1.908  -1.987  -0.093  0.00  0.00    +0.028 C 
BRANCH  22  25
ATOM     24  C   UNL     1       0.541   0.941   0.407  0.00  0.00    +0.005 C 
ATOM     25  C   UNL     1       0.079  -0.507   0.230  0.00  0.00    +0.019 C 
ENDBRANCH  22  25
ENDBRANCH   1  22
BRANCH   4  26
ATOM     26  C   UNL     1      -2.548  -0.500   4.866  0.00  0.00    +0.028 C 
BRANCH  26  27
ATOM     27  C   UNL     1      -3.377   0.200   5.911  0.00  0.00    -0.048 A 
ATOM     28  C   UNL     1      -2.763   0.979   6.875  0.00  0.00    +0.003 A 
ATOM     29  C   UNL     1      -3.524   1.621   7.833  0.00  0.00    +0.000 A 
ATOM     30  C   UNL     1      -4.900   1.484   7.829  0.00  0.00    +0.000 A 
ATOM     31  C   UNL     1      -5.514   0.707   6.865  0.00  0.00    +0.000 A 
ATOM     32  C   UNL     1      -4.753   0.068   5.904  0.00  0.00    +0.003 A 
ENDBRANCH  26  27
ENDBRANCH   4  26
TORSDOF 5
