REMARK  Name = ZINC36594220
REMARK  20 active torsions:
REMARK  status: ('A' for Active; 'I' for Inactive)
REMARK    1  A    between atoms: C_1  and  C_2
REMARK    2  A    between atoms: C_2  and  C_3
REMARK    3  A    between atoms: N_5  and  C_6
REMARK    4  A    between atoms: N_5  and  C_28
REMARK    5  A    between atoms: C_6  and  C_8
REMARK    6  A    between atoms: C_6  and  C_17
REMARK    7  A    between atoms: C_9  and  O_16
REMARK    8  A    between atoms: C_11  and  O_15
REMARK    9  A    between atoms: C_13  and  O_14
REMARK   10  A    between atoms: N_19  and  C_20
REMARK   11  A    between atoms: C_20  and  C_21
REMARK   12  A    between atoms: C_20  and  C_22
REMARK   13  A    between atoms: C_20  and  C_23
REMARK   14  A    between atoms: C_23  and  C_24
REMARK   15  A    between atoms: C_24  and  C_25
REMARK   16  A    between atoms: C_24  and  C_26
REMARK   17  A    between atoms: C_24  and  C_27
REMARK   18  A    between atoms: C_28  and  C_29
REMARK   19  A    between atoms: C_28  and  C_30
REMARK   20  A    between atoms: C_28  and  C_31
REMARK                            x       y       z     vdW  Elec       q    Type
REMARK                         _______ _______ _______ _____ _____    ______ ____
ROOT
ATOM      1  C   UNL     1      -0.598  -1.786  -0.558  0.00  0.00    +0.200 C 
ENDROOT
BRANCH   1   2
ATOM      2  C   UNL     1       0.263  -0.590  -0.873  0.00  0.00    +0.065 A 
ATOM      3  C   UNL     1       0.141   0.569  -0.120  0.00  0.00    +0.129 A 
ATOM      4  C   UNL     1       0.933   1.670  -0.409  0.00  0.00    +0.091 A 
ATOM      5  C   UNL     1       1.847   1.612  -1.451  0.00  0.00    +0.124 A 
ATOM      6  C   UNL     1       1.969   0.454  -2.203  0.00  0.00    +0.091 A 
ATOM      7  C   UNL     1       1.180  -0.649  -1.911  0.00  0.00    +0.129 A 
BRANCH   7   8
ATOM      8  O   UNL     1       1.303  -1.786  -2.645  0.00  0.00    -0.506 OA
ATOM      9  H   UNL     1       0.723  -1.819  -3.418  0.00  0.00    +0.292 HD
ENDBRANCH   7   8
BRANCH   5  10
ATOM     10  O   UNL     1       2.622   2.692  -1.735  0.00  0.00    -0.507 OA
ATOM     11  H   UNL     1       3.464   2.707  -1.259  0.00  0.00    +0.292 HD
ENDBRANCH   5  10
BRANCH   3  12
ATOM     12  O   UNL     1      -0.754   0.625   0.901  0.00  0.00    -0.506 OA
ATOM     13  H   UNL     1      -0.351   0.742   1.772  0.00  0.00    +0.292 HD
ENDBRANCH   3  12
ENDBRANCH   1   2
BRANCH   1  14
ATOM     14  C   UNL     1       0.256  -2.877   0.035  0.00  0.00    +0.239 C 
ATOM     15  O   UNL     1       0.871  -2.675   1.060  0.00  0.00    -0.273 OA
ATOM     16  N   UNL     1       0.335  -4.077  -0.574  0.00  0.00    -0.308 N 
ATOM     17  H   UNL     1      -0.158  -4.238  -1.394  0.00  0.00    +0.149 HD
BRANCH  16  18
ATOM     18  C   UNL     1       1.165  -5.137   0.003  0.00  0.00    +0.030 C 
ATOM     19  C   UNL     1       2.623  -4.677   0.046  0.00  0.00    +0.031 C 
ATOM     20  C   UNL     1       0.685  -5.445   1.423  0.00  0.00    +0.031 C 
BRANCH  18  21
ATOM     21  C   UNL     1       1.053  -6.397  -0.858  0.00  0.00    +0.031 C 
BRANCH  21  22
ATOM     22  C   UNL     1      -0.422  -6.706  -1.121  0.00  0.00    -0.036 C 
ATOM     23  C   UNL     1      -1.021  -5.614  -2.010  0.00  0.00    +0.010 C 
ATOM     24  C   UNL     1      -0.542  -8.059  -1.824  0.00  0.00    +0.010 C 
ATOM     25  C   UNL     1      -1.178  -6.753   0.209  0.00  0.00    +0.010 C 
ENDBRANCH  21  22
ENDBRANCH  18  21
ENDBRANCH  16  18
ENDBRANCH   1  14
BRANCH   1  28
ATOM     26  C   UNL     1      -1.469  -1.657   1.714  0.00  0.00    +0.217 C 
ATOM     27  O   UNL     1      -2.427  -1.666   2.457  0.00  0.00    -0.276 OA
ATOM     28  N   UNL     1      -1.637  -1.402   0.401  0.00  0.00    -0.281 N 
BRANCH  28  29
ATOM     29  C   UNL     1      -2.857  -0.740  -0.066  0.00  0.00    +0.030 C 
ATOM     30  C   UNL     1      -2.978   0.633   0.596  0.00  0.00    +0.031 C 
ATOM     31  C   UNL     1      -2.796  -0.571  -1.585  0.00  0.00    +0.031 C 
ATOM     32  C   UNL     1      -4.073  -1.593   0.303  0.00  0.00    +0.031 C 
ENDBRANCH  28  29
BRANCH  26  34
ATOM     33  C   UNL     1      -0.076  -1.671   3.765  0.00  0.00    +0.013 C 
ATOM     34  C   UNL     1      -0.090  -1.932   2.258  0.00  0.00    +0.092 C 
ENDBRANCH  26  34
ENDBRANCH   1  28
TORSDOF 11
