REMARK  Name = ZINC25038480
REMARK  9 active torsions:
REMARK  status: ('A' for Active; 'I' for Inactive)
REMARK    1  A    between atoms: C_1  and  O_2
REMARK    2  A    between atoms: O_2  and  C_3
REMARK    3  A    between atoms: C_6  and  C_9
REMARK    4  A    between atoms: C_9  and  N_10
REMARK    5  A    between atoms: C_20  and  S_21
REMARK    6  A    between atoms: S_21  and  C_22
REMARK    7  A    between atoms: C_22  and  C_23
REMARK    8  A    between atoms: N_28  and  C_29
REMARK    9  A    between atoms: C_29  and  C_30
REMARK                            x       y       z     vdW  Elec       q    Type
REMARK                         _______ _______ _______ _____ _____    ______ ____
ROOT
ATOM      1  N   UNL     1      -1.190  -0.671   0.010  0.00  0.00    -0.283 N 
ATOM      2  C   UNL     1      -1.218  -2.024   0.002  0.00  0.00    +0.263 A 
ATOM      3  O   UNL     1      -2.272  -2.634   0.009  0.00  0.00    -0.267 OA
ATOM      4  C   UNL     1       0.070  -2.730  -0.014  0.00  0.00    +0.065 A 
ATOM      5  C   UNL     1       0.148  -4.122  -0.024  0.00  0.00    +0.015 A 
ATOM      6  C   UNL     1       1.374  -4.728  -0.039  0.00  0.00    +0.001 A 
ATOM      7  C   UNL     1       2.539  -3.973  -0.046  0.00  0.00    +0.002 A 
ATOM      8  C   UNL     1       2.492  -2.607  -0.037  0.00  0.00    +0.028 A 
ATOM      9  C   UNL     1       1.254  -1.958  -0.021  0.00  0.00    +0.079 A 
ATOM     10  N   UNL     1       1.162  -0.613  -0.018  0.00  0.00    -0.223 NA
ATOM     11  C   UNL     1       0.002  -0.004   0.002  0.00  0.00    +0.173 A 
ENDROOT
BRANCH   1  12
ATOM     12  C   UNL     1      -2.446   0.083   0.027  0.00  0.00    +0.162 C 
BRANCH  12  16
ATOM     13  C   UNL     1      -3.707   0.841  -3.985  0.00  0.00    +0.120 A 
ATOM     14  C   UNL     1      -4.120  -0.312  -3.333  0.00  0.00    +0.046 A 
ATOM     15  C   UNL     1      -3.711  -0.555  -2.036  0.00  0.00    +0.009 A 
ATOM     16  C   UNL     1      -2.890   0.350  -1.388  0.00  0.00    -0.027 A 
ATOM     17  C   UNL     1      -2.482   1.502  -2.034  0.00  0.00    +0.009 A 
ATOM     18  C   UNL     1      -2.884   1.747  -3.333  0.00  0.00    +0.046 A 
BRANCH  13  20
ATOM     19  C   UNL     1      -3.643   2.288  -5.870  0.00  0.00    +0.277 C 
ATOM     20  O   UNL     1      -4.107   1.081  -5.261  0.00  0.00    -0.495 OA
ENDBRANCH  13  20
ENDBRANCH  12  16
ENDBRANCH   1  12
BRANCH  11  21
ATOM     21  S   UNL     1      -0.022   1.758   0.012  0.00  0.00    -0.078 S 
BRANCH  21  22
ATOM     22  C   UNL     1       1.756   2.096  -0.004  0.00  0.00    +0.173 C 
BRANCH  22  23
ATOM     23  C   UNL     1       1.984   3.586   0.002  0.00  0.00    +0.231 C 
ATOM     24  O   UNL     1       1.038   4.344   0.015  0.00  0.00    -0.274 OA
ATOM     25  N   UNL     1       3.240   4.076  -0.007  0.00  0.00    -0.239 N 
ATOM     26  C   UNL     1       3.443   5.408  -0.002  0.00  0.00    +0.306 C 
ATOM     27  O   UNL     1       2.495   6.168   0.011  0.00  0.00    -0.252 OA
ATOM     28  N   UNL     1       4.699   5.898  -0.011  0.00  0.00    -0.292 N 
ATOM     29  H   UNL     1       4.098   3.388  -0.019  0.00  0.00    +0.159 HD
ATOM     30  H   UNL     1       5.557   5.210  -0.023  0.00  0.00    +0.151 HD
BRANCH  28  31
ATOM     31  C   UNL     1       4.920   7.346  -0.005  0.00  0.00    +0.180 C 
BRANCH  31  32
ATOM     32  C   UNL     1       6.401   7.628  -0.018  0.00  0.00    +0.122 A 
ATOM     33  C   UNL     1       7.163   7.781  -1.116  0.00  0.00    +0.046 A 
ATOM     34  C   UNL     1       8.481   8.028  -0.668  0.00  0.00    +0.041 A 
ATOM     35  C   UNL     1       8.445   8.012   0.677  0.00  0.00    +0.195 A 
ATOM     36  O   UNL     1       7.181   7.774   1.065  0.00  0.00    -0.466 OA
ENDBRANCH  31  32
ENDBRANCH  28  31
ENDBRANCH  22  23
ENDBRANCH  21  22
ENDBRANCH  11  21
TORSDOF 8
