REMARK  Name = ZINC58289350
REMARK  6 active torsions:
REMARK  status: ('A' for Active; 'I' for Inactive)
REMARK    1  A    between atoms: C_1  and  C_2
REMARK    2  A    between atoms: C_3  and  C_8
REMARK    3  A    between atoms: C_4  and  C_7
REMARK    4  A    between atoms: N_10  and  C_11
REMARK    5  A    between atoms: C_11  and  C_12
REMARK    6  A    between atoms: N_16  and  C_18
REMARK                            x       y       z     vdW  Elec       q    Type
REMARK                         _______ _______ _______ _____ _____    ______ ____
ROOT
ATOM      1  C   UNL     1      -1.191   0.190  -4.624  0.00  0.00    +0.109 C 
ENDROOT
BRANCH   1   2
ATOM      2  C   UNL     1      -2.638   0.320  -5.104  0.00  0.00    +0.025 C 
ATOM      3  C   UNL     1      -3.344   1.510  -4.401  0.00  0.00    +0.025 C 
ATOM      4  C   UNL     1      -4.429   1.886  -5.441  0.00  0.00    +0.105 C 
ATOM      5  N   UNL     1      -3.782   1.688  -6.751  0.00  0.00    -0.330 N 
ATOM      6  C   UNL     1      -2.686   0.716  -6.595  0.00  0.00    +0.110 C 
BRANCH   5   7
ATOM      7  C   UNL     1      -4.149   2.316  -7.944  0.00  0.00    +0.030 A 
ATOM      8  C   UNL     1      -3.460   2.038  -9.117  0.00  0.00    +0.024 A 
ATOM      9  C   UNL     1      -3.825   2.659 -10.295  0.00  0.00    +0.022 A 
ATOM     10  C   UNL     1      -4.878   3.558 -10.307  0.00  0.00    +0.041 A 
ATOM     11  C   UNL     1      -5.566   3.836  -9.140  0.00  0.00    +0.022 A 
ATOM     12  C   UNL     1      -5.209   3.214  -7.960  0.00  0.00    +0.024 A 
ATOM     13 CL   UNL     1      -5.334   4.337 -11.790  0.00  0.00    -0.084 Cl
ENDBRANCH   5   7
ENDBRANCH   1   2
BRANCH   1  16
ATOM     14  C   UNL     1      -0.005  -0.429  -2.588  0.00  0.00    +0.249 C 
ATOM     15  O   UNL     1       1.043  -0.233  -3.174  0.00  0.00    -0.270 OA
ATOM     16  N   UNL     1      -1.178  -0.246  -3.225  0.00  0.00    -0.311 N 
ATOM     17  H   UNL     1      -2.014  -0.402  -2.758  0.00  0.00    +0.149 HD
BRANCH  14  20
ATOM     18  C   UNL     1      -0.018   1.503   0.010  0.00  0.00    +0.070 C 
ATOM     19  C   UNL     1       0.002  -0.004   0.002  0.00  0.00    +0.093 A 
ATOM     20  C   UNL     1       0.009  -0.867  -1.180  0.00  0.00    +0.101 A 
ATOM     21  C   UNL     1       0.029  -2.155  -0.729  0.00  0.00    +0.147 A 
ATOM     22  O   UNL     1       0.035  -2.126   0.606  0.00  0.00    -0.359 OA
ATOM     23  N   UNL     1       0.023  -0.782   1.044  0.00  0.00    -0.083 NA
ATOM     24  C   UNL     1       0.042  -3.394  -1.587  0.00  0.00    +0.090 C 
ENDBRANCH  14  20
ENDBRANCH   1  16
TORSDOF 4
