REMARK  Name = ZINC12010303
REMARK  3 active torsions:
REMARK  status: ('A' for Active; 'I' for Inactive)
REMARK    1  A    between atoms: C_4  and  C_8
REMARK    2  A    between atoms: N_10  and  C_11
REMARK    3  A    between atoms: C_13  and  C_28
REMARK                            x       y       z     vdW  Elec       q    Type
REMARK                         _______ _______ _______ _____ _____    ______ ____
ROOT
ATOM      1  C   UNL     1      -1.092  -0.822   0.014  0.00  0.00    +0.133 A 
ATOM      2  C   UNL     1      -0.648  -2.104  -0.002  0.00  0.00    +0.077 A 
ATOM      3  C   UNL     1       0.763  -2.073  -0.015  0.00  0.00    +0.130 A 
ATOM      4  N   UNL     1       1.146  -0.812  -0.013  0.00  0.00    -0.159 NA
ATOM      5  N   UNL     1       0.002  -0.004   0.002  0.00  0.00    -0.184 N 
ATOM      6  C   UNL     1      -0.017   1.377   0.010  0.00  0.00    +0.234 A 
ATOM      7  N   UNL     1       1.158   2.062   0.002  0.00  0.00    -0.291 N 
ATOM      8  H   UNL     1       2.002   1.585  -0.012  0.00  0.00    +0.172 HD
ATOM      9  C   UNL     1       1.140   3.410   0.014  0.00  0.00    +0.256 A 
ATOM     10  O   UNL     1       2.183   4.043   0.005  0.00  0.00    -0.267 OA
ATOM     11  C   UNL     1      -0.104   4.080   0.036  0.00  0.00    +0.038 A 
ATOM     12  C   UNL     1      -1.244   3.345   0.034  0.00  0.00    +0.053 A 
ATOM     13  N   UNL     1      -1.168   2.007   0.018  0.00  0.00    -0.217 NA
ATOM     14  C   UNL     1      -2.614   3.970   0.034  0.00  0.00    +0.056 C 
ATOM     15  C   UNL     1      -2.540   5.427   0.486  0.00  0.00    +0.006 C 
ATOM     16  C   UNL     1      -1.462   6.136  -0.343  0.00  0.00    +0.005 C 
ATOM     17  C   UNL     1      -0.098   5.584   0.069  0.00  0.00    +0.042 C 
ENDROOT
BRANCH   3  18
ATOM     18  C   UNL     1       1.656  -3.250  -0.029  0.00  0.00    +0.155 A 
ATOM     19  C   UNL     1       3.015  -3.220  -0.047  0.00  0.00    +0.051 A 
ATOM     20  C   UNL     1       3.451  -4.560  -0.054  0.00  0.00    +0.042 A 
ATOM     21  C   UNL     1       2.347  -5.334  -0.048  0.00  0.00    +0.196 A 
ATOM     22  O   UNL     1       1.265  -4.539  -0.033  0.00  0.00    -0.461 OA
ENDBRANCH   3  18
BRANCH   1  25
ATOM     23  C   UNL     1      -3.409  -1.332   0.044  0.00  0.00    +0.255 C 
ATOM     24  O   UNL     1      -3.137  -2.517   0.034  0.00  0.00    -0.270 OA
ATOM     25  N   UNL     1      -2.423  -0.414   0.034  0.00  0.00    -0.266 N 
ATOM     26  H   UNL     1      -2.640   0.531   0.042  0.00  0.00    +0.157 HD
BRANCH  23  30
ATOM     27  C   UNL     1      -7.471  -0.087   0.107  0.00  0.00    +0.006 A 
ATOM     28  C   UNL     1      -6.796  -0.294   1.297  0.00  0.00    +0.039 A 
ATOM     29  C   UNL     1      -5.475  -0.699   1.286  0.00  0.00    +0.138 A 
ATOM     30  C   UNL     1      -4.819  -0.900   0.066  0.00  0.00    +0.107 A 
ATOM     31  C   UNL     1      -5.507  -0.682  -1.133  0.00  0.00    +0.138 A 
ATOM     32  C   UNL     1      -6.830  -0.282  -1.103  0.00  0.00    +0.039 A 
ATOM     33  F   UNL     1      -4.882  -0.867  -2.316  0.00  0.00    -0.205 F 
ATOM     34  F   UNL     1      -4.818  -0.901   2.449  0.00  0.00    -0.205 F 
ENDBRANCH  23  30
ENDBRANCH   1  25
TORSDOF 3
