REMARK  Name = ZINC00913544
REMARK  10 active torsions:
REMARK  status: ('A' for Active; 'I' for Inactive)
REMARK    1  A    between atoms: C_1  and  C_2
REMARK    2  A    between atoms: C_12  and  C_14
REMARK    3  A    between atoms: C_14  and  N_15
REMARK    4  A    between atoms: N_15  and  C_16
REMARK    5  A    between atoms: N_15  and  S_24
REMARK    6  A    between atoms: C_16  and  C_17
REMARK    7  A    between atoms: S_24  and  C_27
REMARK    8  A    between atoms: C_30  and  C_33
REMARK    9  A    between atoms: C_33  and  O_35
REMARK   10  A    between atoms: O_35  and  C_36
REMARK                            x       y       z     vdW  Elec       q    Type
REMARK                         _______ _______ _______ _____ _____    ______ ____
ROOT
ATOM      1  N   UNL     1      -3.108   3.827  -1.323  0.00  0.00    -0.168 NA
ENDROOT
BRANCH   1   2
ATOM      2  S   UNL     1      -2.851   5.221  -2.179  0.00  0.00    +0.061 S 
ATOM      3  O   UNL     1      -3.868   5.282  -3.170  0.00  0.00    -0.153 OA
ATOM      4  O   UNL     1      -2.656   6.254  -1.223  0.00  0.00    -0.153 OA
BRANCH   2   5
ATOM      5  C   UNL     1      -1.323   5.033  -3.035  0.00  0.00    +0.106 A 
ATOM      6  C   UNL     1      -0.143   5.433  -2.434  0.00  0.00    +0.029 A 
ATOM      7  C   UNL     1       1.058   5.284  -3.097  0.00  0.00    +0.017 A 
ATOM      8  C   UNL     1       1.079   4.737  -4.382  0.00  0.00    +0.059 A 
ATOM      9  C   UNL     1      -0.117   4.341  -4.985  0.00  0.00    +0.017 A 
ATOM     10  C   UNL     1      -1.310   4.491  -4.309  0.00  0.00    +0.029 A 
BRANCH   8  11
ATOM     11  C   UNL     1       2.360   4.580  -5.100  0.00  0.00    +0.339 C 
ATOM     12  O   UNL     1       2.375   4.104  -6.218  0.00  0.00    -0.245 OA
BRANCH  11  13
ATOM     13  O   UNL     1       3.511   4.963  -4.516  0.00  0.00    -0.464 OA
ATOM     14  C   UNL     1       4.732   4.779  -5.280  0.00  0.00    +0.280 C 
ENDBRANCH  11  13
ENDBRANCH   8  11
ENDBRANCH   2   5
ENDBRANCH   1   2
BRANCH   1  15
ATOM     15  C   UNL     1      -2.604   3.705   0.047  0.00  0.00    +0.150 C 
BRANCH  15  27
ATOM     16  C   UNL     1       2.436  -0.513  -0.024  0.00  0.00    +0.046 C 
ATOM     17  C   UNL     1       2.399   0.993  -0.015  0.00  0.00    -0.026 A 
ATOM     18  C   UNL     1       3.574   1.714  -0.023  0.00  0.00    +0.005 A 
ATOM     19  C   UNL     1       3.553   3.102  -0.016  0.00  0.00    +0.001 A 
ATOM     20  C   UNL     1       2.367   3.780  -0.001  0.00  0.00    +0.010 A 
ATOM     21  C   UNL     1       1.163   3.069   0.007  0.00  0.00    -0.001 A 
ATOM     22  C   UNL     1       1.179   1.661  -0.000  0.00  0.00    +0.052 A 
ATOM     23  N   UNL     1      -0.011   0.966   0.007  0.00  0.00    -0.322 N 
ATOM     24  H   UNL     1       0.003  -0.034   0.006  0.00  0.00    +0.169 HD
ATOM     25  C   UNL     1      -1.190   1.613   0.017  0.00  0.00    +0.254 A 
ATOM     26  O   UNL     1      -2.223   0.965   0.018  0.00  0.00    -0.268 OA
ATOM     27  C   UNL     1      -1.261   3.022   0.030  0.00  0.00    +0.033 A 
ATOM     28  C   UNL     1      -0.126   3.764   0.023  0.00  0.00    +0.020 A 
ENDBRANCH  15  27
ENDBRANCH   1  15
BRANCH   1  29
ATOM     29  C   UNL     1      -3.838   2.715  -1.936  0.00  0.00    +0.145 C 
BRANCH  29  30
ATOM     30  C   UNL     1      -5.293   2.795  -1.549  0.00  0.00    -0.031 A 
ATOM     31  C   UNL     1      -5.740   2.151  -0.411  0.00  0.00    +0.008 A 
ATOM     32  C   UNL     1      -7.073   2.227  -0.052  0.00  0.00    +0.038 A 
ATOM     33  C   UNL     1      -7.961   2.941  -0.838  0.00  0.00    +0.123 A 
ATOM     34  C   UNL     1      -7.513   3.581  -1.981  0.00  0.00    +0.038 A 
ATOM     35  C   UNL     1      -6.179   3.507  -2.335  0.00  0.00    +0.008 A 
ATOM     36  F   UNL     1      -9.265   3.012  -0.491  0.00  0.00    -0.205 F 
ENDBRANCH  29  30
ENDBRANCH   1  29
TORSDOF 8
