REMARK  Name = ZINC12703038
REMARK  8 active torsions:
REMARK  status: ('A' for Active; 'I' for Inactive)
REMARK    1  A    between atoms: C_1  and  C_2
REMARK    2  A    between atoms: C_3  and  C_30
REMARK    3  A    between atoms: C_5  and  C_7
REMARK    4  A    between atoms: C_7  and  N_8
REMARK    5  A    between atoms: C_9  and  C_11
REMARK    6  A    between atoms: C_11  and  C_12
REMARK    7  A    between atoms: C_19  and  C_20
REMARK    8  A    between atoms: C_19  and  N_56
REMARK                            x       y       z     vdW  Elec       q    Type
REMARK                         _______ _______ _______ _____ _____    ______ ____
ROOT
ATOM      1  C   UNL     1       5.357   2.900  -2.117  0.00  0.00    +0.028 C 
ATOM      2  C   UNL     1       5.721   3.114  -3.559  0.00  0.00    +0.200 C 
ATOM      3  O   UNL     1       6.137   2.172  -4.199  0.00  0.00    -0.278 OA
ATOM      4  N   UNL     1       5.604   4.299  -4.166  0.00  0.00    -0.318 N 
ATOM      5  C   UNL     1       5.147   5.503  -3.477  0.00  0.00    +0.085 C 
ATOM      6  C   UNL     1       4.426   5.123  -2.182  0.00  0.00    -0.058 C 
ATOM      7  H   UNL     1       5.833   4.363  -5.107  0.00  0.00    +0.149 HD
ATOM      8  N   UNL     1       5.298   4.202  -1.426  0.00  0.00    +0.391 N 
ATOM      9  H   UNL     1       6.243   4.599  -1.376  0.00  0.00    -0.080 HD
ENDROOT
BRANCH   1  10
ATOM     10  C   UNL     1       6.424   2.030  -1.448  0.00  0.00    +0.089 C 
BRANCH  10  12
ATOM     11  N   UNL     1       8.813   2.222  -0.835  0.00  0.00    -0.309 N 
ATOM     12  C   UNL     1       7.741   2.763  -1.448  0.00  0.00    +0.212 C 
ATOM     13  O   UNL     1       7.837   3.839  -1.999  0.00  0.00    -0.276 OA
ATOM     14  H   UNL     1       8.736   1.362  -0.394  0.00  0.00    +0.149 HD
BRANCH  11  15
ATOM     15  C   UNL     1      10.093   2.934  -0.834  0.00  0.00    +0.167 C 
BRANCH  15  20
ATOM     16  C   UNL     1      13.726  -0.464  -0.301  0.00  0.00    +0.066 C 
ATOM     17  C   UNL     1      12.788   0.583   0.243  0.00  0.00    +0.049 A 
ATOM     18  C   UNL     1      12.794   0.903   1.562  0.00  0.00    +0.009 A 
ATOM     19  S   UNL     1      11.518   2.153   1.602  0.00  0.00    -0.076 S 
ATOM     20  C   UNL     1      11.120   2.122  -0.088  0.00  0.00    +0.096 A 
ATOM     21  N   UNL     1      11.938   1.204  -0.548  0.00  0.00    -0.247 NA
ATOM     22  C   UNL     1      13.642   0.357   2.682  0.00  0.00    +0.053 C 
ENDBRANCH  15  20
ENDBRANCH  11  15
ENDBRANCH  10  12
ENDBRANCH   1  10
BRANCH   8  23
ATOM     23  C   UNL     1       4.777   4.022  -0.052  0.00  0.00    -0.042 C 
BRANCH  23  24
ATOM     24  C   UNL     1       3.421   3.366  -0.088  0.00  0.00    -0.063 A 
ATOM     25  C   UNL     1       3.322   1.984   0.061  0.00  0.00    +0.002 A 
ATOM     26  C   UNL     1       2.113   1.360   0.033  0.00  0.00    +0.009 A 
ATOM     27  C   UNL     1       0.944   2.118  -0.149  0.00  0.00    -0.018 A 
ATOM     28  C   UNL     1      -0.323   1.510  -0.184  0.00  0.00    +0.008 A 
ATOM     29  C   UNL     1      -1.433   2.276  -0.368  0.00  0.00    +0.001 A 
ATOM     30  C   UNL     1      -1.335   3.659  -0.511  0.00  0.00    +0.001 A 
ATOM     31  C   UNL     1      -0.126   4.282  -0.483  0.00  0.00    +0.008 A 
ATOM     32  C   UNL     1       1.044   3.524  -0.301  0.00  0.00    -0.018 A 
ATOM     33  C   UNL     1       2.310   4.133  -0.266  0.00  0.00    +0.010 A 
ENDBRANCH  23  24
ENDBRANCH   8  23
TORSDOF 6
