REMARK  Name = ZINC09156634
REMARK  8 active torsions:
REMARK  status: ('A' for Active; 'I' for Inactive)
REMARK    1  A    between atoms: C_1  and  C_2
REMARK    2  A    between atoms: C_2  and  C_3
REMARK    3  A    between atoms: C_2  and  C_4
REMARK    4  A    between atoms: C_9  and  N_10
REMARK    5  A    between atoms: C_14  and  S_15
REMARK    6  A    between atoms: S_15  and  C_16
REMARK    7  A    between atoms: C_16  and  C_17
REMARK    8  A    between atoms: N_19  and  N_20
REMARK                            x       y       z     vdW  Elec       q    Type
REMARK                         _______ _______ _______ _____ _____    ______ ____
ROOT
ATOM      1  C   UNL     1      -4.098   1.692   0.032  0.00  0.00    +0.240 C 
ATOM      2  O   UNL     1      -4.192   2.901   0.039  0.00  0.00    -0.273 OA
ATOM      3  N   UNL     1      -5.210   0.930   0.034  0.00  0.00    -0.223 N 
ATOM      4  H   UNL     1      -5.135  -0.037   0.029  0.00  0.00    +0.174 HD
ENDROOT
BRANCH   3   5
ATOM      5  N   UNL     1      -6.474   1.534   0.044  0.00  0.00    -0.137 N 
ATOM      6  C   UNL     1      -7.288   1.607  -1.029  0.00  0.00    +0.263 C 
ATOM      7  O   UNL     1      -7.074   1.177  -2.143  0.00  0.00    -0.271 OA
ATOM      8  C   UNL     1      -8.523   2.336  -0.551  0.00  0.00    +0.114 C 
ATOM      9  C   UNL     1      -9.752   1.443  -0.686  0.00  0.00    +0.035 C 
ATOM     10  C   UNL     1     -10.986   2.188  -0.171  0.00  0.00    +0.003 C 
ATOM     11  C   UNL     1     -11.178   3.474  -0.977  0.00  0.00    +0.000 C 
ATOM     12  C   UNL     1      -9.947   4.369  -0.812  0.00  0.00    +0.003 C 
ATOM     13  C   UNL     1      -8.709   3.633  -1.330  0.00  0.00    +0.035 C 
ATOM     14  N   UNL     1      -8.245   2.619   0.863  0.00  0.00    -0.284 N 
ATOM     15  C   UNL     1      -7.026   2.107   1.121  0.00  0.00    +0.326 C 
ATOM     16  O   UNL     1      -6.486   2.163   2.208  0.00  0.00    -0.251 OA
ATOM     17  H   UNL     1      -8.826   3.079   1.488  0.00  0.00    +0.151 HD
ENDBRANCH   3   5
BRANCH   1  18
ATOM     18  C   UNL     1      -2.739   1.041   0.022  0.00  0.00    +0.174 C 
BRANCH  18  19
ATOM     19  S   UNL     1      -1.458   2.320   0.022  0.00  0.00    -0.078 S 
BRANCH  19  24
ATOM     20  N   UNL     1       1.273   1.756  -0.001  0.00  0.00    -0.294 N 
ATOM     21  C   UNL     1       2.084   0.641  -0.014  0.00  0.00    +0.113 A 
ATOM     22  C   UNL     1       1.276  -0.432  -0.012  0.00  0.00    +0.131 A 
ATOM     23  N   UNL     1       0.002  -0.004   0.002  0.00  0.00    -0.230 NA
ATOM     24  C   UNL     1      -0.016   1.309   0.009  0.00  0.00    +0.174 A 
BRANCH  20  30
ATOM     25  C   UNL     1       1.426   3.904   1.097  0.00  0.00    -0.021 A 
ATOM     26  C   UNL     1       1.840   5.222   1.097  0.00  0.00    +0.006 A 
ATOM     27  C   UNL     1       2.519   5.734   0.007  0.00  0.00    +0.000 A 
ATOM     28  C   UNL     1       2.786   4.929  -1.086  0.00  0.00    +0.002 A 
ATOM     29  C   UNL     1       2.379   3.609  -1.089  0.00  0.00    +0.026 A 
ATOM     30  C   UNL     1       1.692   3.094   0.002  0.00  0.00    +0.052 A 
BRANCH  25  32
ATOM     31  C   UNL     1       1.566   3.457   3.532  0.00  0.00    +0.012 C 
ATOM     32  C   UNL     1       0.686   3.346   2.285  0.00  0.00    +0.015 C 
ATOM     33  C   UNL     1      -0.605   4.138   2.500  0.00  0.00    +0.012 C 
ENDBRANCH  25  32
ENDBRANCH  20  30
ENDBRANCH  19  24
ENDBRANCH  18  19
ENDBRANCH   1  18
TORSDOF 6
