REMARK  Name = ZINC37299736
REMARK  3 active torsions:
REMARK  status: ('A' for Active; 'I' for Inactive)
REMARK    1  A    between atoms: C_10  and  N_12
REMARK    2  A    between atoms: N_12  and  C_13
REMARK    3  A    between atoms: C_16  and  N_19
REMARK                            x       y       z     vdW  Elec       q    Type
REMARK                         _______ _______ _______ _____ _____    ______ ____
ROOT
ATOM      1  N   UNL     1       4.651   0.203  -0.814  0.00  0.00    -0.336 N 
ATOM      2  H   UNL     1       4.277   0.742  -1.529  0.00  0.00    +0.147 HD
ENDROOT
BRANCH   1  12
ATOM      3  C   UNL     1      -0.017   1.371   0.010  0.00  0.00    +0.000 A 
ATOM      4  C   UNL     1       1.181   2.063   0.002  0.00  0.00    +0.000 A 
ATOM      5  C   UNL     1       2.365   1.366  -0.003  0.00  0.00    +0.006 A 
ATOM      6  C   UNL     1       2.392  -0.034  -0.007  0.00  0.00    -0.023 A 
ATOM      7  C   UNL     1       1.204  -0.714  -0.017  0.00  0.00    -0.033 A 
ATOM      8  C   UNL     1       0.002  -0.004   0.002  0.00  0.00    +0.005 A 
ATOM      9  C   UNL     1       1.049  -2.215  -0.072  0.00  0.00    +0.104 C 
ATOM     10  S   UNL     1       2.594  -3.025   0.426  0.00  0.00    -0.154 S 
ATOM     11  C   UNL     1       3.831  -2.058  -0.497  0.00  0.00    +0.096 C 
ATOM     12  C   UNL     1       3.772  -0.626   0.014  0.00  0.00    +0.111 C 
ENDBRANCH   1  12
BRANCH   1  13
ATOM     13  C   UNL     1       6.027   0.217  -0.575  0.00  0.00    +0.028 A 
ATOM     14  C   UNL     1       6.564  -0.559   0.444  0.00  0.00    +0.025 A 
ATOM     15  C   UNL     1       7.926  -0.542   0.677  0.00  0.00    +0.034 A 
ATOM     16  C   UNL     1       8.753   0.245  -0.102  0.00  0.00    +0.126 A 
ATOM     17  C   UNL     1       8.221   1.019  -1.117  0.00  0.00    +0.034 A 
ATOM     18  C   UNL     1       6.861   1.003  -1.360  0.00  0.00    +0.025 A 
BRANCH  16  19
ATOM     19  N   UNL     1      10.211   0.260   0.151  0.00  0.00    +0.056 N 
ATOM     20  O   UNL     1      10.678  -0.415   1.038  0.00  0.00    -0.126 OA
ATOM     21  O   UNL     1      10.936   0.948  -0.530  0.00  0.00    -0.126 OA
ENDBRANCH  16  19
ENDBRANCH   1  13
TORSDOF 3
