REMARK  Name = ZINC12620128
REMARK  6 active torsions:
REMARK  status: ('A' for Active; 'I' for Inactive)
REMARK    1  A    between atoms: C_1  and  C_2
REMARK    2  A    between atoms: C_5  and  C_7
REMARK    3  A    between atoms: C_18  and  O_33
REMARK    4  A    between atoms: C_22  and  C_32
REMARK    5  A    between atoms: C_27  and  C_31
REMARK    6  A    between atoms: C_28  and  O_30
REMARK                            x       y       z     vdW  Elec       q    Type
REMARK                         _______ _______ _______ _____ _____    ______ ____
ROOT
ATOM      1  C   UNL     1       3.126   1.316  -1.885  0.00  0.00    +0.048 C 
ATOM      2  C   UNL     1       1.874   1.424  -1.449  0.00  0.00    -0.037 C 
ATOM      3  C   UNL     1       1.436   1.608  -0.003  0.00  0.00    +0.038 C 
ATOM      4  C   UNL     1      -0.013   1.086   0.008  0.00  0.00    +0.005 C 
ATOM      5  C   UNL     1      -0.794   1.563   1.208  0.00  0.00    +0.001 C 
ATOM      6  C   UNL     1      -0.020   1.182   2.493  0.00  0.00    +0.031 C 
ATOM      7  C   UNL     1      -0.773   1.686   3.689  0.00  0.00    -0.027 C 
ATOM      8  C   UNL     1      -1.582   2.703   3.642  0.00  0.00    -0.065 C 
ATOM      9  C   UNL     1      -2.276   3.131   4.924  0.00  0.00    +0.062 C 
ATOM     10  C   UNL     1      -2.043   4.632   5.120  0.00  0.00    +0.119 C 
ATOM     11  C   UNL     1      -2.517   5.388   3.877  0.00  0.00    +0.032 C 
ATOM     12  C   UNL     1      -1.670   4.977   2.671  0.00  0.00    +0.014 C 
ATOM     13  C   UNL     1      -1.870   3.484   2.394  0.00  0.00    -0.008 C 
ATOM     14  C   UNL     1      -1.022   3.056   1.207  0.00  0.00    +0.003 C 
ATOM     15  C   UNL     1      -1.746   3.433  -0.091  0.00  0.00    +0.005 C 
ATOM     16  C   UNL     1      -0.843   3.095  -1.273  0.00  0.00    +0.010 C 
ATOM     17  C   UNL     1      -0.577   1.588  -1.332  0.00  0.00    +0.001 C 
ATOM     18  C   UNL     1       0.620   1.387  -2.299  0.00  0.00    +0.147 C 
ATOM     19  C   UNL     1      -1.811   0.796  -1.768  0.00  0.00    +0.014 C 
ATOM     20  C   UNL     1      -3.341   3.275   2.030  0.00  0.00    +0.016 C 
ENDROOT
BRANCH   1  25
ATOM     21  C   UNL     1       5.673   1.685   2.417  0.00  0.00    +0.086 C 
ATOM     22  C   UNL     1       5.366   1.533   0.949  0.00  0.00    +0.103 A 
ATOM     23  C   UNL     1       6.277   1.379  -0.032  0.00  0.00    +0.045 A 
ATOM     24  C   UNL     1       5.567   1.274  -1.243  0.00  0.00    +0.049 A 
ATOM     25  C   UNL     1       4.244   1.372  -0.932  0.00  0.00    +0.128 A 
ATOM     26  O   UNL     1       4.140   1.534   0.402  0.00  0.00    -0.461 OA
ENDBRANCH   1  25
BRANCH  18  27
ATOM     27  O   UNL     1       0.511   0.122  -2.956  0.00  0.00    -0.387 OA
ATOM     28  H   UNL     1       1.242  -0.072  -3.559  0.00  0.00    +0.210 HD
ENDBRANCH  18  27
BRANCH  10  29
ATOM     29  O   UNL     1      -0.650   4.876   5.324  0.00  0.00    -0.391 OA
ATOM     30  H   UNL     1      -0.281   4.427   6.097  0.00  0.00    +0.210 HD
ENDBRANCH  10  29
TORSDOF 3
