REMARK  Name = ZINC06667771
REMARK  2 active torsions:
REMARK  status: ('A' for Active; 'I' for Inactive)
REMARK    1  A    between atoms: C_6  and  C_7
REMARK    2  A    between atoms: C_20  and  C_22
REMARK                            x       y       z     vdW  Elec       q    Type
REMARK                         _______ _______ _______ _____ _____    ______ ____
ROOT
ATOM      1  C   UNL     1      -1.293  -0.775   0.010  0.00  0.00    +0.083 C 
ATOM      2  C   UNL     1      -1.349  -1.653   1.233  0.00  0.00    +0.065 C 
ATOM      3  C   UNL     1      -0.774  -2.935   1.200  0.00  0.00    +0.157 C 
ATOM      4  N   UNL     1      -0.798  -3.696   2.304  0.00  0.00    -0.201 NA
ATOM      5  C   UNL     1      -1.378  -3.268   3.406  0.00  0.00    +0.186 C 
ATOM      6  N   UNL     1      -1.968  -2.044   3.466  0.00  0.00    -0.254 N 
ATOM      7  C   UNL     1      -1.952  -1.218   2.375  0.00  0.00    +0.250 C 
ATOM      8  O   UNL     1      -2.523   0.005   2.429  0.00  0.00    -0.270 OA
ATOM      9  N   UNL     1      -1.387  -4.072   4.515  0.00  0.00    -0.331 N 
ATOM     10  N   UNL     1      -0.219  -3.397   0.068  0.00  0.00    -0.160 NA
ATOM     11  C   UNL     1      -0.440  -2.827  -1.098  0.00  0.00    +0.256 C 
ATOM     12  O   UNL     1       0.126  -3.259  -2.086  0.00  0.00    -0.272 OA
ATOM     13  C   UNL     1      -1.374  -1.653  -1.241  0.00  0.00    +0.191 C 
ATOM     14  H   UNL     1      -0.969  -4.946   4.483  0.00  0.00    +0.145 HD
ATOM     15  H   UNL     1      -2.402  -1.755   4.285  0.00  0.00    +0.158 HD
ATOM     16  H   UNL     1      -1.812  -3.766   5.332  0.00  0.00    +0.145 HD
ENDROOT
BRANCH   1  22
ATOM     17  C   UNL     1      -0.017   1.378   0.010  0.00  0.00    +0.007 A 
ATOM     18  C   UNL     1       1.170   2.086   0.002  0.00  0.00    +0.038 A 
ATOM     19  C   UNL     1       2.379   1.410  -0.013  0.00  0.00    +0.123 A 
ATOM     20  C   UNL     1       2.396   0.026  -0.021  0.00  0.00    +0.038 A 
ATOM     21  C   UNL     1       1.208  -0.680  -0.013  0.00  0.00    +0.007 A 
ATOM     22  C   UNL     1       0.002  -0.004   0.002  0.00  0.00    -0.038 A 
ATOM     23  F   UNL     1       3.540   2.101  -0.021  0.00  0.00    -0.205 F 
ENDBRANCH   1  22
BRANCH  13  24
ATOM     24  C   UNL     1      -2.752  -2.143  -1.406  0.00  0.00    +0.076 C 
ATOM     25  N   UNL     1      -3.816  -2.521  -1.534  0.00  0.00    -0.196 NA
ENDBRANCH  13  24
TORSDOF 2
