REMARK  Name = ZINC12820856
REMARK  12 active torsions:
REMARK  status: ('A' for Active; 'I' for Inactive)
REMARK    1  A    between atoms: C_1  and  C_2
REMARK    2  A    between atoms: C_7  and  C_9
REMARK    3  A    between atoms: C_7  and  C_28
REMARK    4  A    between atoms: C_7  and  N_66
REMARK    5  A    between atoms: C_9  and  N_10
REMARK    6  A    between atoms: C_11  and  C_13
REMARK    7  A    between atoms: C_13  and  C_15
REMARK    8  A    between atoms: C_13  and  N_18
REMARK    9  A    between atoms: C_15  and  C_16
REMARK   10  A    between atoms: C_15  and  C_17
REMARK   11  A    between atoms: C_19  and  C_21
REMARK   12  A    between atoms: C_21  and  C_22
REMARK                            x       y       z     vdW  Elec       q    Type
REMARK                         _______ _______ _______ _____ _____    ______ ____
ROOT
ATOM      1  N   UNL     1      -2.125  -0.460   1.634  0.00  0.00    -0.315 N 
ATOM      2  C   UNL     1      -1.914   0.871   1.658  0.00  0.00    +0.234 C 
ATOM      3  O   UNL     1      -2.853   1.636   1.588  0.00  0.00    -0.274 OA
ATOM      4  H   UNL     1      -1.374  -1.071   1.691  0.00  0.00    +0.149 HD
ENDROOT
BRANCH   1   5
ATOM      5  C   UNL     1      -3.489  -0.983   1.522  0.00  0.00    +0.094 C 
BRANCH   5   6
ATOM      6  C   UNL     1      -3.441  -2.507   1.392  0.00  0.00    -0.013 C 
BRANCH   6  13
ATOM      7  C   UNL     1      -0.956  -4.221  -3.461  0.00  0.00    +0.007 C 
ATOM      8  C   UNL     1      -1.990  -3.905  -2.379  0.00  0.00    -0.018 C 
ATOM      9  C   UNL     1      -1.966  -2.405  -2.071  0.00  0.00    -0.015 C 
ATOM     10  C   UNL     1      -2.959  -2.104  -0.946  0.00  0.00    -0.078 C 
ATOM     11  C   UNL     1      -2.656  -4.318  -0.009  0.00  0.00    -0.078 C 
ATOM     12  C   UNL     1      -1.654  -4.685  -1.105  0.00  0.00    -0.015 C 
ATOM     13  N   UNL     1      -2.565  -2.867   0.258  0.00  0.00    +0.386 N 
ATOM     14  H   UNL     1      -1.595  -2.633   0.499  0.00  0.00    -0.081 HD
ENDBRANCH   6  13
BRANCH   6  15
ATOM     15  C   UNL     1      -4.835  -3.036   1.174  0.00  0.00    -0.022 A 
ATOM     16  C   UNL     1      -5.685  -3.598   2.068  0.00  0.00    +0.009 A 
ATOM     17  C   UNL     1      -6.931  -4.016   1.638  0.00  0.00    +0.008 A 
ATOM     18  C   UNL     1      -7.266  -3.851   0.335  0.00  0.00    +0.045 A 
ATOM     19  S   UNL     1      -5.799  -3.079  -0.329  0.00  0.00    -0.103 S 
ENDBRANCH   6  15
ENDBRANCH   5   6
ENDBRANCH   1   5
BRANCH   2  20
ATOM     20  C   UNL     1      -0.512   1.410   1.773  0.00  0.00    +0.161 C 
BRANCH  20  21
ATOM     21  N   UNL     1      -0.550   2.874   1.778  0.00  0.00    -0.303 N 
ATOM     22  C   UNL     1       0.448   3.572   2.357  0.00  0.00    +0.218 C 
ATOM     23  O   UNL     1       1.377   2.988   2.873  0.00  0.00    -0.275 OA
ATOM     24  H   UNL     1      -1.293   3.342   1.366  0.00  0.00    +0.149 HD
BRANCH  22  25
ATOM     25  C   UNL     1       0.409   5.079   2.362  0.00  0.00    +0.130 C 
BRANCH  25  26
ATOM     26  C   UNL     1       1.631   5.611   3.065  0.00  0.00    -0.039 A 
ATOM     27  C   UNL     1       1.599   5.841   4.427  0.00  0.00    +0.004 A 
ATOM     28  C   UNL     1       2.723   6.324   5.073  0.00  0.00    +0.000 A 
ATOM     29  C   UNL     1       3.874   6.587   4.354  0.00  0.00    +0.000 A 
ATOM     30  C   UNL     1       3.903   6.362   2.990  0.00  0.00    +0.000 A 
ATOM     31  C   UNL     1       2.782   5.873   2.346  0.00  0.00    +0.004 A 
ENDBRANCH  25  26
ENDBRANCH  22  25
ENDBRANCH  20  21
BRANCH  20  32
ATOM     32  C   UNL     1       0.320   0.925   0.584  0.00  0.00    +0.012 C 
ATOM     33  C   UNL     1       1.773   1.367   0.764  0.00  0.00    +0.009 C 
ATOM     34  C   UNL     1      -0.240   1.526  -0.708  0.00  0.00    +0.009 C 
ENDBRANCH  20  32
ENDBRANCH   2  20
TORSDOF 9
