REMARK  Name = ZINC20465712
REMARK  9 active torsions:
REMARK  status: ('A' for Active; 'I' for Inactive)
REMARK    1  A    between atoms: C_1  and  C_2
REMARK    2  A    between atoms: C_2  and  C_3
REMARK    3  A    between atoms: C_2  and  N_4
REMARK    4  A    between atoms: N_7  and  C_8
REMARK    5  A    between atoms: C_8  and  C_9
REMARK    6  A    between atoms: C_11  and  N_21
REMARK    7  A    between atoms: C_13  and  O_20
REMARK    8  A    between atoms: C_15  and  C_18
REMARK    9  A    between atoms: C_18  and  O_19
REMARK                            x       y       z     vdW  Elec       q    Type
REMARK                         _______ _______ _______ _____ _____    ______ ____
ROOT
ATOM      1  C   UNL     1       1.581  -2.472   2.400  0.00  0.00    +0.125 C 
ATOM      2  C   UNL     1       0.340  -1.748   1.832  0.00  0.00    -0.006 C 
ATOM      3  C   UNL     1      -0.856  -2.481   2.480  0.00  0.00    +0.134 C 
ATOM      4  C   UNL     1      -0.198  -3.563   3.365  0.00  0.00    +0.171 C 
ATOM      5  O   UNL     1       1.125  -3.057   3.644  0.00  0.00    -0.369 OA
ENDROOT
BRANCH   2   6
ATOM      6  N   UNL     1       0.348  -0.332   2.223  0.00  0.00    +0.385 N 
ATOM      7  C   UNL     1       1.431   0.394   1.548  0.00  0.00    -0.078 C 
ATOM      8  C   UNL     1       1.320   1.888   1.863  0.00  0.00    -0.019 C 
ATOM      9  C   UNL     1       1.409   2.093   3.377  0.00  0.00    -0.004 C 
ATOM     10  C   UNL     1       0.300   1.288   4.060  0.00  0.00    -0.019 C 
ATOM     11  C   UNL     1       0.440  -0.188   3.681  0.00  0.00    -0.078 C 
ATOM     12  H   UNL     1      -0.605   0.114   1.902  0.00  0.00    -0.081 HD
ENDBRANCH   2   6
BRANCH   3  13
ATOM     13  O   UNL     1      -1.624  -1.579   3.279  0.00  0.00    -0.391 OA
ATOM     14  H   UNL     1      -2.515  -1.940   3.813  0.00  0.00    +0.210 HD
ENDBRANCH   3  13
BRANCH   1  15
ATOM     15  C   UNL     1       2.709  -1.472   2.660  0.00  0.00    +0.135 C 
BRANCH  15  19
ATOM     16  N   UNL     1       5.713  -1.938   4.727  0.00  0.00    -0.297 N 
ATOM     17  C   UNL     1       4.796  -1.379   3.913  0.00  0.00    +0.300 C 
ATOM     18  O   UNL     1       4.953  -0.243   3.510  0.00  0.00    -0.253 OA
ATOM     19  N   UNL     1       3.706  -2.080   3.545  0.00  0.00    -0.297 N 
ATOM     20  H   UNL     1       5.572  -2.966   5.092  0.00  0.00    +0.150 HD
ATOM     21  H   UNL     1       3.564  -3.108   3.909  0.00  0.00    +0.150 HD
BRANCH  16  23
ATOM     22  C   UNL     1       7.427  -1.716   6.458  0.00  0.00    +0.027 C 
ATOM     23  C   UNL     1       6.899  -1.176   5.127  0.00  0.00    +0.068 C 
ATOM     24  C   UNL     1       7.981  -1.316   4.055  0.00  0.00    +0.027 C 
ENDBRANCH  16  23
ENDBRANCH  15  19
ENDBRANCH   1  15
BRANCH   4  25
ATOM     25  C   UNL     1      -0.988  -3.741   4.663  0.00  0.00    +0.190 C 
BRANCH  25  26
ATOM     26  O   UNL     1      -0.433  -4.823   5.414  0.00  0.00    -0.392 OA
ATOM     27  H   UNL     1      -0.871  -5.102   6.383  0.00  0.00    +0.210 HD
ENDBRANCH  25  26
ENDBRANCH   4  25
TORSDOF 7
