REMARK  Name = ZINC06409958
REMARK  12 active torsions:
REMARK  status: ('A' for Active; 'I' for Inactive)
REMARK    1  A    between atoms: C_1  and  C_2
REMARK    2  A    between atoms: C_7  and  C_14
REMARK    3  A    between atoms: C_14  and  C_16
REMARK    4  A    between atoms: C_14  and  N_63
REMARK    5  A    between atoms: N_20  and  C_21
REMARK    6  A    between atoms: C_21  and  C_22
REMARK    7  A    between atoms: C_21  and  C_23
REMARK    8  A    between atoms: C_21  and  C_24
REMARK    9  A    between atoms: C_25  and  C_26
REMARK   10  A    between atoms: C_25  and  N_63
REMARK   11  A    between atoms: C_31  and  C_32
REMARK   12  A    between atoms: C_31  and  N_63
REMARK                            x       y       z     vdW  Elec       q    Type
REMARK                         _______ _______ _______ _____ _____    ______ ____
ROOT
ATOM      1  C   UNL     1       0.442   3.729  -0.501  0.00  0.00    +0.040 C 
ENDROOT
BRANCH   1   8
ATOM      2  C   UNL     1       4.077  -3.370  -0.552  0.00  0.00    +0.044 C 
ATOM      3  C   UNL     1       3.578  -1.954  -0.425  0.00  0.00    -0.048 A 
ATOM      4  C   UNL     1       4.354  -1.008   0.231  0.00  0.00    +0.004 A 
ATOM      5  C   UNL     1       3.921   0.281   0.357  0.00  0.00    +0.010 A 
ATOM      6  C   UNL     1       2.683   0.652  -0.180  0.00  0.00    -0.001 A 
ATOM      7  C   UNL     1       2.188   2.025  -0.064  0.00  0.00    +0.017 A 
ATOM      8  C   UNL     1       0.981   2.326  -0.604  0.00  0.00    +0.011 A 
ATOM      9  C   UNL     1       0.228   1.329  -1.261  0.00  0.00    +0.251 A 
ATOM     10  O   UNL     1      -0.852   1.623  -1.743  0.00  0.00    -0.268 OA
ATOM     11  N   UNL     1       0.674   0.066  -1.373  0.00  0.00    -0.322 N 
ATOM     12  H   UNL     1       0.131  -0.594  -1.831  0.00  0.00    +0.169 HD
ATOM     13  C   UNL     1       1.893  -0.304  -0.845  0.00  0.00    +0.049 A 
ATOM     14  C   UNL     1       2.356  -1.611  -0.961  0.00  0.00    +0.029 A 
ENDBRANCH   1   8
BRANCH   1  15
ATOM     15  C   UNL     1      -0.733   3.749   0.442  0.00  0.00    +0.143 A 
ATOM     16  N   UNL     1      -1.875   3.125   0.282  0.00  0.00    -0.115 NA
ATOM     17  N   UNL     1      -2.618   3.389   1.302  0.00  0.00    -0.023 NA
ATOM     18  N   UNL     1      -1.980   4.165   2.107  0.00  0.00    -0.043 NA
ATOM     19  N   UNL     1      -0.812   4.405   1.614  0.00  0.00    -0.225 N 
BRANCH  19  20
ATOM     20  C   UNL     1       0.232   5.238   2.217  0.00  0.00    +0.059 C 
ATOM     21  C   UNL     1       0.568   6.396   1.274  0.00  0.00    +0.036 C 
ATOM     22  C   UNL     1      -0.268   5.796   3.551  0.00  0.00    +0.036 C 
ATOM     23  C   UNL     1       1.485   4.394   2.454  0.00  0.00    +0.036 C 
ENDBRANCH  19  20
ENDBRANCH   1  15
BRANCH   1  24
ATOM     24  N   UNL     1      -0.004   4.165  -1.841  0.00  0.00    +0.397 N 
ATOM     25  H   UNL     1      -0.552   3.411  -2.272  0.00  0.00    -0.079 HD
BRANCH  24  26
ATOM     26  C   UNL     1      -0.854   5.369  -1.724  0.00  0.00    -0.001 C 
BRANCH  26  27
ATOM     27  C   UNL     1      -1.471   5.661  -3.068  0.00  0.00    +0.089 A 
ATOM     28  C   UNL     1      -2.640   5.172  -3.520  0.00  0.00    +0.042 A 
ATOM     29  C   UNL     1      -2.831   5.701  -4.817  0.00  0.00    +0.041 A 
ATOM     30  C   UNL     1      -1.768   6.482  -5.080  0.00  0.00    +0.195 A 
ATOM     31  O   UNL     1      -0.950   6.459  -4.015  0.00  0.00    -0.470 OA
ENDBRANCH  26  27
ENDBRANCH  24  26
BRANCH  24  32
ATOM     32  C   UNL     1       1.168   4.456  -2.694  0.00  0.00    -0.034 C 
BRANCH  32  33
ATOM     33  C   UNL     1       1.712   3.154  -3.224  0.00  0.00    -0.027 A 
ATOM     34  C   UNL     1       1.211   2.350  -4.193  0.00  0.00    +0.009 A 
ATOM     35  C   UNL     1       1.888   1.191  -4.520  0.00  0.00    +0.008 A 
ATOM     36  C   UNL     1       3.034   0.891  -3.860  0.00  0.00    +0.045 A 
ATOM     37  S   UNL     1       3.190   2.275  -2.743  0.00  0.00    -0.103 S 
ENDBRANCH  32  33
ENDBRANCH  24  32
ENDBRANCH   1  24
TORSDOF 8
