REMARK  Name = ZINC08713623
REMARK  9 active torsions:
REMARK  status: ('A' for Active; 'I' for Inactive)
REMARK    1  A    between atoms: C_1  and  C_2
REMARK    2  A    between atoms: C_9  and  C_14
REMARK    3  A    between atoms: C_14  and  O_16
REMARK    4  A    between atoms: O_16  and  C_17
REMARK    5  A    between atoms: C_17  and  C_18
REMARK    6  A    between atoms: N_20  and  C_21
REMARK    7  A    between atoms: C_22  and  C_29
REMARK    8  A    between atoms: C_29  and  O_31
REMARK    9  A    between atoms: O_31  and  C_32
REMARK                            x       y       z     vdW  Elec       q    Type
REMARK                         _______ _______ _______ _____ _____    ______ ____
ROOT
ATOM      1  C   UNL     1      -2.627   4.098   0.037  0.00  0.00    +0.328 C 
ENDROOT
BRANCH   1   2
ATOM      2  C   UNL     1      -2.451   5.595   0.044  0.00  0.00    +0.255 C 
ATOM      3  O   UNL     1      -1.337   6.075   0.041  0.00  0.00    -0.272 OA
ATOM      4  N   UNL     1      -3.532   6.400   0.053  0.00  0.00    -0.277 N 
ATOM      5  H   UNL     1      -4.423   6.017   0.056  0.00  0.00    +0.155 HD
BRANCH   4   6
ATOM      6  C   UNL     1      -3.370   7.777   0.060  0.00  0.00    +0.086 A 
ATOM      7  C   UNL     1      -4.348   8.759   0.065  0.00  0.00    +0.091 A 
ATOM      8  C   UNL     1      -3.906  10.153   0.075  0.00  0.00    -0.021 A 
ATOM      9  C   UNL     1      -2.573  10.330   0.070  0.00  0.00    -0.004 A 
ATOM     10  S   UNL     1      -1.898   8.688   0.058  0.00  0.00    -0.077 S 
ATOM     11  C   UNL     1      -2.198  11.787   0.079  0.00  0.00    +0.043 C 
ATOM     12  C   UNL     1      -3.483  12.518   0.528  0.00  0.00    +0.010 C 
ATOM     13  C   UNL     1      -4.578  11.527   0.084  0.00  0.00    +0.037 C 
BRANCH   7  14
ATOM     14  C   UNL     1      -5.771   8.413   0.062  0.00  0.00    +0.342 C 
ATOM     15  O   UNL     1      -6.362   8.265   1.115  0.00  0.00    -0.245 OA
BRANCH  14  16
ATOM     16  O   UNL     1      -6.426   8.259  -1.107  0.00  0.00    -0.464 OA
ATOM     17  C   UNL     1      -7.835   7.916  -1.033  0.00  0.00    +0.280 C 
ENDBRANCH  14  16
ENDBRANCH   7  14
ENDBRANCH   4   6
ENDBRANCH   1   2
BRANCH   1  18
ATOM     18  O   UNL     1      -1.323   3.458   0.027  0.00  0.00    -0.452 OA
BRANCH  18  19
ATOM     19  C   UNL     1      -1.304   2.111   0.020  0.00  0.00    +0.340 C 
ATOM     20  O   UNL     1      -2.347   1.488   0.021  0.00  0.00    -0.245 OA
BRANCH  19  28
ATOM     21  C   UNL     1       4.619  -3.400   0.592  0.00  0.00    +0.029 C 
ATOM     22  C   UNL     1       3.533  -2.355   0.854  0.00  0.00    +0.134 C 
ATOM     23  C   UNL     1       2.210  -2.867   0.353  0.00  0.00    +0.230 C 
ATOM     24  O   UNL     1       2.047  -4.067   0.289  0.00  0.00    -0.274 OA
ATOM     25  N   UNL     1       1.210  -2.076  -0.025  0.00  0.00    -0.284 N 
ATOM     26  C   UNL     1       1.210  -0.683  -0.012  0.00  0.00    +0.048 A 
ATOM     27  C   UNL     1       0.002  -0.004   0.002  0.00  0.00    +0.039 A 
ATOM     28  C   UNL     1      -0.017   1.393   0.010  0.00  0.00    +0.061 A 
ATOM     29  C   UNL     1       1.183   2.111   0.002  0.00  0.00    +0.016 A 
ATOM     30  C   UNL     1       2.384   1.437  -0.011  0.00  0.00    +0.017 A 
ATOM     31  C   UNL     1       2.402   0.048  -0.017  0.00  0.00    +0.030 A 
ATOM     32  S   UNL     1       3.940  -0.819  -0.029  0.00  0.00    -0.111 S 
ATOM     33  H   UNL     1       0.402  -2.511  -0.339  0.00  0.00    +0.155 HD
ENDBRANCH  19  28
ENDBRANCH  18  19
ENDBRANCH   1  18
TORSDOF 7
