REMARK  Name = ZINC08274218
REMARK  5 active torsions:
REMARK  status: ('A' for Active; 'I' for Inactive)
REMARK    1  A    between atoms: C_5  and  C_7
REMARK    2  A    between atoms: C_10  and  C_12
REMARK    3  A    between atoms: N_14  and  N_15
REMARK    4  A    between atoms: C_16  and  C_18
REMARK    5  A    between atoms: C_22  and  N_24
REMARK                            x       y       z     vdW  Elec       q    Type
REMARK                         _______ _______ _______ _____ _____    ______ ____
ROOT
ATOM      1  C   UNL     1      -8.535   1.773   0.054  0.00  0.00    +0.295 C 
ATOM      2  O   UNL     1      -8.547   2.990   0.061  0.00  0.00    -0.265 OA
ATOM      3  N   UNL     1      -7.361   1.110   0.045  0.00  0.00    -0.228 N 
ATOM      4  H   UNL     1      -7.352   0.140   0.040  0.00  0.00    +0.173 HD
ENDROOT
BRANCH   1   8
ATOM      5  C   UNL     1     -11.227  -0.640   0.056  0.00  0.00    +0.139 A 
ATOM      6  C   UNL     1     -11.963   0.510   0.065  0.00  0.00    +0.051 A 
ATOM      7  C   UNL     1     -11.060   1.577   0.072  0.00  0.00    +0.055 A 
ATOM      8  C   UNL     1      -9.796   1.028   0.057  0.00  0.00    +0.191 A 
ATOM      9  O   UNL     1      -9.923  -0.316   0.051  0.00  0.00    -0.450 OA
BRANCH   5  14
ATOM     10  C   UNL     1     -11.829  -4.226  -0.880  0.00  0.00    +0.001 A 
ATOM     11  C   UNL     1     -12.796  -4.587   0.042  0.00  0.00    +0.003 A 
ATOM     12  C   UNL     1     -13.255  -3.669   0.969  0.00  0.00    +0.039 A 
ATOM     13  C   UNL     1     -12.746  -2.384   0.983  0.00  0.00    +0.134 A 
ATOM     14  C   UNL     1     -11.773  -2.012   0.051  0.00  0.00    +0.052 A 
ATOM     15  C   UNL     1     -11.315  -2.946  -0.881  0.00  0.00    +0.014 A 
ATOM     16  F   UNL     1     -13.191  -1.489   1.892  0.00  0.00    -0.205 F 
ENDBRANCH   5  14
ENDBRANCH   1   8
BRANCH   3  17
ATOM     17  N   UNL     1      -6.155   1.822   0.043  0.00  0.00    -0.230 N 
ATOM     18  C   UNL     1      -4.981   1.160   0.033  0.00  0.00    +0.260 C 
ATOM     19  O   UNL     1      -4.969  -0.055   0.026  0.00  0.00    -0.269 OA
ATOM     20  H   UNL     1      -6.164   2.792   0.048  0.00  0.00    +0.173 HD
BRANCH  18  21
ATOM     21  C   UNL     1      -3.708   1.912   0.030  0.00  0.00    +0.040 A 
ATOM     22  C   UNL     1      -3.718   3.308   0.039  0.00  0.00    +0.013 A 
ATOM     23  C   UNL     1      -2.527   4.003   0.037  0.00  0.00    +0.003 A 
ATOM     24  C   UNL     1      -1.323   3.320   0.032  0.00  0.00    +0.033 A 
ATOM     25  C   UNL     1      -1.306   1.936   0.019  0.00  0.00    +0.127 A 
ATOM     26  C   UNL     1      -2.491   1.229   0.021  0.00  0.00    +0.045 A 
BRANCH  25  27
ATOM     27  N   UNL     1      -0.014   1.214   0.009  0.00  0.00    +0.056 N 
ATOM     28  O   UNL     1       0.002  -0.004   0.002  0.00  0.00    -0.126 OA
ATOM     29  O   UNL     1       1.032   1.837   0.002  0.00  0.00    -0.126 OA
ENDBRANCH  25  27
ENDBRANCH  18  21
ENDBRANCH   3  17
TORSDOF 5
