REMARK  Name = ZINC59778037
REMARK  9 active torsions:
REMARK  status: ('A' for Active; 'I' for Inactive)
REMARK    1  A    between atoms: C_1  and  C_2
REMARK    2  A    between atoms: C_2  and  O_3
REMARK    3  A    between atoms: O_3  and  C_4
REMARK    4  A    between atoms: C_4  and  S_5
REMARK    5  A    between atoms: S_5  and  C_6
REMARK    6  A    between atoms: C_12  and  C_14
REMARK    7  A    between atoms: C_14  and  S_15
REMARK    8  A    between atoms: S_15  and  C_16
REMARK    9  A    between atoms: C_19  and  C_22
REMARK                            x       y       z     vdW  Elec       q    Type
REMARK                         _______ _______ _______ _____ _____    ______ ____
ROOT
ATOM      1  C   UNL     1      -1.734  -0.811  -9.680  0.00  0.00    +0.173 C 
ENDROOT
BRANCH   1   8
ATOM      2  C   UNL     1      -1.016  -2.149  -3.464  0.00  0.00    +0.162 A 
ATOM      3  N   UNL     1      -0.164  -1.526  -4.266  0.00  0.00    -0.133 NA
ATOM      4  N   UNL     1      -0.422  -1.321  -5.483  0.00  0.00    -0.125 NA
ATOM      5  C   UNL     1      -1.559  -1.713  -6.035  0.00  0.00    +0.189 A 
ATOM      6  S   UNL     1      -2.344  -2.479  -4.619  0.00  0.00    -0.024 S 
ATOM      7  N   UNL     1      -2.013  -1.575  -7.344  0.00  0.00    -0.263 N 
ATOM      8  C   UNL     1      -1.243  -0.960  -8.263  0.00  0.00    +0.229 C 
ATOM      9  O   UNL     1      -0.154  -0.526  -7.950  0.00  0.00    -0.275 OA
ATOM     10  H   UNL     1      -2.883  -1.922  -7.595  0.00  0.00    +0.157 HD
BRANCH   2  11
ATOM     11  S   UNL     1      -0.877  -2.545  -1.753  0.00  0.00    -0.069 S 
BRANCH  11  12
ATOM     12  C   UNL     1       0.746  -1.888  -1.280  0.00  0.00    +0.236 C 
BRANCH  12  13
ATOM     13  O   UNL     1       0.671  -0.465  -1.174  0.00  0.00    -0.369 OA
BRANCH  13  15
ATOM     14  C   UNL     1      -0.019   1.526   0.010  0.00  0.00    +0.034 C 
ATOM     15  C   UNL     1       0.002  -0.004   0.002  0.00  0.00    +0.157 C 
ENDBRANCH  13  15
ENDBRANCH  12  13
ENDBRANCH  11  12
ENDBRANCH   2  11
ENDBRANCH   1   8
BRANCH   1  16
ATOM     16  S   UNL     1      -0.481   0.053 -10.667  0.00  0.00    -0.077 S 
BRANCH  16  17
ATOM     17  C   UNL     1      -1.195   0.147 -12.275  0.00  0.00    +0.185 A 
ATOM     18  N   UNL     1      -2.374  -0.319 -12.625  0.00  0.00    -0.201 NA
ATOM     19  H   UNL     1       0.238   1.147 -13.407  0.00  0.00    +0.191 HD
ATOM     20  C   UNL     1      -2.589  -0.070 -13.925  0.00  0.00    +0.182 A 
ATOM     21  N   UNL     1      -1.545   0.559 -14.416  0.00  0.00    -0.152 NA
ATOM     22  N   UNL     1      -0.630   0.717 -13.363  0.00  0.00    -0.253 N 
BRANCH  20  23
ATOM     23  C   UNL     1      -3.807  -0.445 -14.686  0.00  0.00    +0.021 A 
ATOM     24  C   UNL     1      -4.852  -1.109 -14.048  0.00  0.00    +0.013 A 
ATOM     25  C   UNL     1      -5.983  -1.455 -14.759  0.00  0.00    +0.016 A 
ATOM     26  C   UNL     1      -6.079  -1.144 -16.105  0.00  0.00    +0.018 A 
ATOM     27  C   UNL     1      -5.043  -0.484 -16.743  0.00  0.00    +0.016 A 
ATOM     28  C   UNL     1      -3.911  -0.128 -16.039  0.00  0.00    +0.013 A 
ATOM     29 BR   UNL     1      -7.631  -1.622 -17.074  0.00  0.00    -0.050 Br
ENDBRANCH  20  23
ENDBRANCH  16  17
ENDBRANCH   1  16
TORSDOF 8
