REMARK  Name = ZINC34836828
REMARK  13 active torsions:
REMARK  status: ('A' for Active; 'I' for Inactive)
REMARK    1  A    between atoms: C_1  and  C_2
REMARK    2  A    between atoms: C_2  and  C_3
REMARK    3  A    between atoms: C_4  and  C_22
REMARK    4  A    between atoms: C_5  and  N_14
REMARK    5  A    between atoms: N_6  and  C_8
REMARK    6  A    between atoms: N_17  and  C_20
REMARK    7  A    between atoms: C_20  and  C_21
REMARK    8  A    between atoms: C_22  and  N_23
REMARK    9  A    between atoms: N_23  and  C_24
REMARK   10  A    between atoms: N_23  and  C_34
REMARK   11  A    between atoms: C_24  and  C_25
REMARK   12  A    between atoms: C_34  and  C_35
REMARK   13  A    between atoms: C_34  and  C_36
REMARK                            x       y       z     vdW  Elec       q    Type
REMARK                         _______ _______ _______ _____ _____    ______ ____
ROOT
ATOM      1  C   UNL     1       0.625  -1.808  -1.665  0.00  0.00    +0.066 A 
ATOM      2  C   UNL     1      -0.402  -1.536  -2.573  0.00  0.00    -0.001 A 
ATOM      3  C   UNL     1      -0.102  -2.165  -3.743  0.00  0.00    +0.126 A 
ATOM      4  N   UNL     1       1.082  -2.812  -3.567  0.00  0.00    -0.218 N 
ATOM      5  N   UNL     1       1.514  -2.565  -2.257  0.00  0.00    -0.169 NA
ENDROOT
BRANCH   3   6
ATOM      6  N   UNL     1      -0.867  -2.150  -4.906  0.00  0.00    -0.318 N 
ATOM      7  C   UNL     1      -1.965  -3.109  -5.103  0.00  0.00    +0.088 C 
ATOM      8  C   UNL     1      -3.219  -2.332  -5.516  0.00  0.00    -0.060 C 
ATOM      9  N   UNL     1      -2.917  -1.507  -6.693  0.00  0.00    +0.382 N 
ATOM     10  C   UNL     1      -1.919  -0.488  -6.346  0.00  0.00    -0.060 C 
ATOM     11  C   UNL     1      -0.603  -1.170  -5.971  0.00  0.00    +0.088 C 
ATOM     12  H   UNL     1      -2.556  -2.094  -7.430  0.00  0.00    -0.082 HD
BRANCH   9  13
ATOM     13  C   UNL     1      -4.146  -0.849  -7.155  0.00  0.00    -0.082 C 
ATOM     14  C   UNL     1      -3.861  -0.089  -8.452  0.00  0.00    -0.017 C 
ENDBRANCH   9  13
ENDBRANCH   3   6
BRANCH   4  15
ATOM     15  C   UNL     1       1.753  -3.584  -4.526  0.00  0.00    +0.067 A 
ATOM     16  C   UNL     1       1.038  -4.438  -5.355  0.00  0.00    +0.028 A 
ATOM     17  C   UNL     1       1.701  -5.197  -6.299  0.00  0.00    +0.002 A 
ATOM     18  C   UNL     1       3.076  -5.107  -6.419  0.00  0.00    +0.000 A 
ATOM     19  C   UNL     1       3.791  -4.258  -5.594  0.00  0.00    +0.002 A 
ATOM     20  C   UNL     1       3.132  -3.492  -4.652  0.00  0.00    +0.028 A 
ENDBRANCH   4  15
BRANCH   1  22
ATOM     21  C   UNL     1       1.428   0.037  -0.216  0.00  0.00    +0.010 C 
ATOM     22  C   UNL     1       0.700  -1.309  -0.245  0.00  0.00    +0.054 C 
ENDBRANCH   1  22
BRANCH   2  23
ATOM     23  C   UNL     1      -1.624  -0.697  -2.305  0.00  0.00    -0.037 C 
BRANCH  23  24
ATOM     24  N   UNL     1      -2.825  -1.538  -2.393  0.00  0.00    +0.387 N 
ATOM     25  H   UNL     1      -2.796  -2.078  -3.245  0.00  0.00    -0.081 HD
BRANCH  24  26
ATOM     26  C   UNL     1      -2.872  -2.446  -1.239  0.00  0.00    -0.074 C 
ATOM     27  C   UNL     1      -1.692  -3.419  -1.307  0.00  0.00    -0.013 C 
ATOM     28  C   UNL     1      -2.788  -1.633   0.054  0.00  0.00    -0.013 C 
ENDBRANCH  24  26
BRANCH  24  29
ATOM     29  C   UNL     1      -4.021  -0.685  -2.393  0.00  0.00    -0.042 C 
BRANCH  29  30
ATOM     30  C   UNL     1      -5.246  -1.539  -2.600  0.00  0.00    -0.060 A 
ATOM     31  C   UNL     1      -5.748  -1.728  -3.874  0.00  0.00    +0.005 A 
ATOM     32  C   UNL     1      -6.871  -2.510  -4.069  0.00  0.00    +0.050 A 
ATOM     33  C   UNL     1      -7.497  -3.106  -2.986  0.00  0.00    +0.166 A 
ATOM     34  C   UNL     1      -6.991  -2.916  -1.703  0.00  0.00    +0.166 A 
ATOM     35  C   UNL     1      -5.862  -2.135  -1.516  0.00  0.00    +0.051 A 
ATOM     36  O   UNL     1      -7.776  -3.599  -0.819  0.00  0.00    -0.453 OA
ATOM     37  C   UNL     1      -9.000  -3.874  -1.525  0.00  0.00    +0.466 C 
ATOM     38  O   UNL     1      -8.598  -3.909  -2.907  0.00  0.00    -0.453 OA
ENDBRANCH  29  30
ENDBRANCH  24  29
ENDBRANCH  23  24
ENDBRANCH   2  23
TORSDOF 9
