REMARK  Name = ZINC35926424
REMARK  9 active torsions:
REMARK  status: ('A' for Active; 'I' for Inactive)
REMARK    1  A    between atoms: C_1  and  C_2
REMARK    2  A    between atoms: C_2  and  C_3
REMARK    3  A    between atoms: C_3  and  C_4
REMARK    4  A    between atoms: C_4  and  C_5
REMARK    5  A    between atoms: C_5  and  C_6
REMARK    6  A    between atoms: C_20  and  C_22
REMARK    7  A    between atoms: C_22  and  N_23
REMARK    8  A    between atoms: N_26  and  C_29
REMARK    9  A    between atoms: C_34  and  C_35
REMARK                            x       y       z     vdW  Elec       q    Type
REMARK                         _______ _______ _______ _____ _____    ______ ____
ROOT
ATOM      1  C   UNL     1      -2.840  -4.104  -2.382  0.00  0.00    +0.216 C 
ATOM      2  O   UNL     1      -2.856  -2.892  -2.383  0.00  0.00    -0.276 OA
ATOM      3  N   UNL     1      -3.998  -4.794  -2.375  0.00  0.00    -0.298 N 
ATOM      4  C   UNL     1      -3.993  -6.264  -2.367  0.00  0.00    +0.126 C 
ATOM      5  C   UNL     1      -4.816  -6.750  -1.167  0.00  0.00    +0.127 C 
ATOM      6  N   UNL     1      -6.106  -6.046  -1.167  0.00  0.00    -0.298 N 
ATOM      7  C   UNL     1      -6.111  -4.576  -1.175  0.00  0.00    +0.127 C 
ATOM      8  C   UNL     1      -5.288  -4.090  -2.368  0.00  0.00    +0.126 C 
ATOM      9  C   UNL     1      -7.282  -6.747  -1.159  0.00  0.00    +0.198 A 
ATOM     10  N   UNL     1      -7.253  -8.103  -1.259  0.00  0.00    -0.295 N 
ATOM     11  H   UNL     1      -6.405  -8.567  -1.335  0.00  0.00    +0.172 HD
ATOM     12  C   UNL     1      -8.409  -8.801  -1.252  0.00  0.00    +0.253 A 
ATOM     13  O   UNL     1      -8.401 -10.018  -1.341  0.00  0.00    -0.268 OA
ATOM     14  C   UNL     1      -9.622  -8.098  -1.141  0.00  0.00    +0.091 A 
ATOM     15  C   UNL     1      -9.589  -6.738  -1.043  0.00  0.00    +0.034 A 
ATOM     16  N   UNL     1      -8.423  -6.096  -1.050  0.00  0.00    -0.223 NA
ENDROOT
BRANCH   1  17
ATOM     17  C   UNL     1      -1.525  -4.840  -2.389  0.00  0.00    +0.096 C 
BRANCH  17  18
ATOM     18  C   UNL     1      -0.375  -3.830  -2.396  0.00  0.00    +0.009 C 
BRANCH  18  19
ATOM     19  C   UNL     1       0.960  -4.577  -2.403  0.00  0.00    +0.000 C 
BRANCH  19  21
ATOM     20  C   UNL     1       3.444  -4.314  -2.417  0.00  0.00    +0.004 C 
ATOM     21  C   UNL     1       2.109  -3.567  -2.410  0.00  0.00    -0.003 C 
ENDBRANCH  19  21
ENDBRANCH  18  19
ENDBRANCH  17  18
ENDBRANCH   1  17
BRANCH  15  22
ATOM     22  C   UNL     1     -10.875  -5.961  -0.923  0.00  0.00    -0.022 C 
BRANCH  22  23
ATOM     23  N   UNL     1     -10.927  -5.300   0.388  0.00  0.00    +0.385 N 
ATOM     24  C   UNL     1      -9.850  -4.305   0.475  0.00  0.00    -0.059 C 
ATOM     25  C   UNL     1      -9.831  -3.696   1.881  0.00  0.00    +0.086 C 
ATOM     26  N   UNL     1     -11.171  -3.168   2.179  0.00  0.00    -0.333 N 
ATOM     27  C   UNL     1     -12.328  -4.051   1.962  0.00  0.00    +0.086 C 
ATOM     28  C   UNL     1     -12.229  -4.643   0.552  0.00  0.00    -0.059 C 
ATOM     29  H   UNL     1     -10.804  -5.988   1.115  0.00  0.00    -0.081 HD
BRANCH  26  30
ATOM     30  C   UNL     1     -11.341  -1.866   2.654  0.00  0.00    +0.033 A 
ATOM     31  C   UNL     1     -11.525  -0.817   1.762  0.00  0.00    +0.023 A 
ATOM     32  C   UNL     1     -11.693   0.469   2.236  0.00  0.00    +0.002 A 
ATOM     33  C   UNL     1     -11.678   0.714   3.597  0.00  0.00    +0.000 A 
ATOM     34  C   UNL     1     -11.495  -0.328   4.488  0.00  0.00    +0.005 A 
ATOM     35  C   UNL     1     -11.332  -1.617   4.021  0.00  0.00    -0.029 A 
ATOM     36  C   UNL     1     -11.139  -2.753   4.993  0.00  0.00    +0.045 C 
ENDBRANCH  26  30
ENDBRANCH  22  23
ENDBRANCH  15  22
TORSDOF 7
