REMARK  Name = ZINC04690206
REMARK  9 active torsions:
REMARK  status: ('A' for Active; 'I' for Inactive)
REMARK    1  A    between atoms: C_1  and  C_2
REMARK    2  A    between atoms: C_4  and  O_10
REMARK    3  A    between atoms: C_6  and  C_9
REMARK    4  A    between atoms: O_10  and  C_11
REMARK    5  A    between atoms: C_11  and  C_12
REMARK    6  A    between atoms: C_12  and  O_14
REMARK    7  A    between atoms: O_14  and  N_15
REMARK    8  A    between atoms: C_16  and  C_17
REMARK    9  A    between atoms: C_20  and  N_23
REMARK                            x       y       z     vdW  Elec       q    Type
REMARK                         _______ _______ _______ _____ _____    ______ ____
ROOT
ATOM      1  O   UNL     1       0.067  -6.075  -3.894  0.00  0.00    -0.312 OA
ENDROOT
BRANCH   1   2
ATOM      2  N   UNL     1       0.065  -6.471  -5.253  0.00  0.00    -0.059 NA
ATOM      3  C   UNL     1       0.081  -7.735  -5.563  0.00  0.00    +0.163 C 
ATOM      4  N   UNL     1       0.100  -8.691  -4.565  0.00  0.00    -0.340 N 
ATOM      5  H   UNL     1       0.101  -8.421  -3.634  0.00  0.00    +0.144 HD
ATOM      6  H   UNL     1       0.112  -9.633  -4.796  0.00  0.00    +0.144 HD
BRANCH   3   7
ATOM      7  C   UNL     1       0.079  -8.148  -6.985  0.00  0.00    +0.018 A 
ATOM      8  C   UNL     1       0.067  -7.186  -7.994  0.00  0.00    +0.013 A 
ATOM      9  C   UNL     1       0.066  -7.577  -9.317  0.00  0.00    +0.033 A 
ATOM     10  C   UNL     1       0.077  -8.922  -9.643  0.00  0.00    +0.126 A 
ATOM     11  C   UNL     1       0.089  -9.881  -8.647  0.00  0.00    +0.033 A 
ATOM     12  C   UNL     1       0.097  -9.502  -7.320  0.00  0.00    +0.013 A 
BRANCH  10  13
ATOM     13  N   UNL     1       0.075  -9.335 -11.065  0.00  0.00    +0.056 N 
ATOM     14  O   UNL     1       0.064  -8.499 -11.938  0.00  0.00    -0.126 OA
ATOM     15  O   UNL     1       0.085 -10.509 -11.353  0.00  0.00    -0.126 OA
ENDBRANCH  10  13
ENDBRANCH   3   7
ENDBRANCH   1   2
BRANCH   1  16
ATOM     16  C   UNL     1       0.049  -4.746  -3.712  0.00  0.00    +0.373 C 
ATOM     17  O   UNL     1       0.034  -4.004  -4.670  0.00  0.00    -0.244 OA
BRANCH  16  18
ATOM     18  C   UNL     1       0.049  -4.176  -2.317  0.00  0.00    +0.351 C 
BRANCH  18  19
ATOM     19  O   UNL     1       0.028  -2.749  -2.386  0.00  0.00    -0.481 OA
BRANCH  19  23
ATOM     20  C   UNL     1      -0.018   1.503   0.010  0.00  0.00    +0.045 C 
ATOM     21  C   UNL     1       0.002  -0.004   0.002  0.00  0.00    -0.028 A 
ATOM     22  C   UNL     1       0.006  -0.688  -1.198  0.00  0.00    +0.050 A 
ATOM     23  C   UNL     1       0.025  -2.075  -1.206  0.00  0.00    +0.122 A 
ATOM     24  C   UNL     1       0.041  -2.773  -0.007  0.00  0.00    +0.050 A 
ATOM     25  C   UNL     1       0.037  -2.085   1.192  0.00  0.00    -0.028 A 
ATOM     26  C   UNL     1       0.023  -0.702   1.197  0.00  0.00    +0.047 A 
ATOM     27 CL   UNL     1       0.025   0.160   2.704  0.00  0.00    -0.083 Cl
ATOM     28  C   UNL     1       0.054  -2.843   2.494  0.00  0.00    +0.045 C 
ENDBRANCH  19  23
ENDBRANCH  18  19
ENDBRANCH  16  18
ENDBRANCH   1  16
TORSDOF 7
