REMARK  Name = ZINC59024591
REMARK  8 active torsions:
REMARK  status: ('A' for Active; 'I' for Inactive)
REMARK    1  A    between atoms: C_6  and  C_7
REMARK    2  A    between atoms: C_10  and  C_12
REMARK    3  A    between atoms: C_12  and  C_13
REMARK    4  A    between atoms: C_13  and  C_14
REMARK    5  A    between atoms: N_16  and  C_17
REMARK    6  A    between atoms: C_17  and  C_18
REMARK    7  A    between atoms: C_18  and  C_19
REMARK    8  A    between atoms: N_24  and  C_27
REMARK                            x       y       z     vdW  Elec       q    Type
REMARK                         _______ _______ _______ _____ _____    ______ ____
ROOT
ATOM      1  C   UNL     1      -4.087  -5.618  -1.429  0.00  0.00    +0.213 C 
ATOM      2  O   UNL     1      -4.335  -6.169  -0.377  0.00  0.00    -0.276 OA
ATOM      3  N   UNL     1      -4.362  -6.235  -2.595  0.00  0.00    -0.315 N 
ATOM      4  H   UNL     1      -4.163  -5.794  -3.436  0.00  0.00    +0.149 HD
ENDROOT
BRANCH   1   5
ATOM      5  C   UNL     1      -3.470  -4.243  -1.431  0.00  0.00    +0.105 C 
BRANCH   5   6
ATOM      6  C   UNL     1      -3.262  -3.775   0.011  0.00  0.00    +0.105 C 
BRANCH   6  10
ATOM      7  C   UNL     1      -1.180  -0.794   0.006  0.00  0.00    +0.155 A 
ATOM      8  C   UNL     1      -2.428  -0.259   0.005  0.00  0.00    +0.161 A 
ATOM      9  N   UNL     1      -3.304  -1.275   0.007  0.00  0.00    -0.221 NA
ATOM     10  C   UNL     1      -2.645  -2.400   0.009  0.00  0.00    +0.197 A 
ATOM     11  O   UNL     1      -1.331  -2.137   0.003  0.00  0.00    -0.440 OA
BRANCH   7  17
ATOM     12  C   UNL     1       0.096   1.345   0.008  0.00  0.00    +0.014 A 
ATOM     13  C   UNL     1       1.291   2.034   0.006  0.00  0.00    +0.039 A 
ATOM     14  C   UNL     1       2.492   1.342   0.000  0.00  0.00    +0.123 A 
ATOM     15  C   UNL     1       2.499  -0.043  -0.004  0.00  0.00    +0.039 A 
ATOM     16  C   UNL     1       1.310  -0.742  -0.002  0.00  0.00    +0.014 A 
ATOM     17  C   UNL     1       0.097  -0.051   0.004  0.00  0.00    +0.019 A 
ATOM     18  F   UNL     1       3.659   2.022  -0.002  0.00  0.00    -0.205 F 
ENDBRANCH   7  17
ENDBRANCH   6  10
ENDBRANCH   5   6
ENDBRANCH   1   5
BRANCH   3  19
ATOM     19  C   UNL     1      -4.962  -7.572  -2.593  0.00  0.00    +0.113 C 
BRANCH  19  20
ATOM     20  C   UNL     1      -5.170  -8.039  -4.035  0.00  0.00    +0.114 C 
BRANCH  20  21
ATOM     21  C   UNL     1      -5.787  -9.414  -4.032  0.00  0.00    +0.217 C 
ATOM     22  O   UNL     1      -6.035  -9.966  -2.981  0.00  0.00    -0.276 OA
ATOM     23  N   UNL     1      -6.062 -10.031  -5.199  0.00  0.00    -0.298 N 
ATOM     24  C   UNL     1      -5.761  -9.378  -6.480  0.00  0.00    +0.126 C 
ATOM     25  C   UNL     1      -4.870 -10.311  -7.309  0.00  0.00    +0.124 C 
ATOM     26  N   UNL     1      -5.476 -11.650  -7.322  0.00  0.00    -0.327 N 
ATOM     27  C   UNL     1      -5.778 -12.303  -6.040  0.00  0.00    +0.124 C 
ATOM     28  C   UNL     1      -6.663 -11.372  -5.212  0.00  0.00    +0.126 C 
BRANCH  26  29
ATOM     29  C   UNL     1      -5.762 -12.290  -8.532  0.00  0.00    +0.030 A 
ATOM     30  C   UNL     1      -6.228 -13.598  -8.533  0.00  0.00    +0.026 A 
ATOM     31  C   UNL     1      -6.510 -14.229  -9.729  0.00  0.00    +0.040 A 
ATOM     32  C   UNL     1      -6.328 -13.557 -10.927  0.00  0.00    +0.124 A 
ATOM     33  C   UNL     1      -5.864 -12.252 -10.927  0.00  0.00    +0.040 A 
ATOM     34  C   UNL     1      -5.586 -11.616  -9.733  0.00  0.00    +0.026 A 
ATOM     35  F   UNL     1      -6.604 -14.175 -12.096  0.00  0.00    -0.205 F 
ENDBRANCH  26  29
ENDBRANCH  20  21
ENDBRANCH  19  20
ENDBRANCH   3  19
TORSDOF 8
