REMARK  Name = ZINC09237181
REMARK  6 active torsions:
REMARK  status: ('A' for Active; 'I' for Inactive)
REMARK    1  A    between atoms: C_1  and  C_2
REMARK    2  A    between atoms: C_5  and  C_8
REMARK    3  A    between atoms: C_10  and  C_25
REMARK    4  A    between atoms: C_16  and  C_19
REMARK    5  A    between atoms: N_27  and  C_28
REMARK    6  A    between atoms: C_33  and  C_34
REMARK                            x       y       z     vdW  Elec       q    Type
REMARK                         _______ _______ _______ _____ _____    ______ ____
ROOT
ATOM      1  C   UNL     1       3.207   5.790  -0.400  0.00  0.00    +0.140 C 
ATOM      2  C   UNL     1       4.467   6.153  -1.197  0.00  0.00    +0.166 C 
ATOM      3  S   UNL     1       5.879   5.309  -0.422  0.00  0.00    -0.069 S 
ATOM      4  C   UNL     1       5.123   3.731  -0.191  0.00  0.00    +0.210 A 
ATOM      5  N   UNL     1       5.697   2.601   0.124  0.00  0.00    -0.121 NA
ATOM      6  N   UNL     1       4.808   1.674   0.222  0.00  0.00    -0.127 NA
ATOM      7  C   UNL     1       3.616   2.164  -0.041  0.00  0.00    +0.182 A 
ATOM      8  N   UNL     1       3.782   3.499  -0.317  0.00  0.00    -0.221 N 
ATOM      9  N   UNL     1       2.824   4.401  -0.654  0.00  0.00    -0.272 N 
ATOM     10  H   UNL     1       2.530   4.276  -1.611  0.00  0.00    +0.167 HD
ENDROOT
BRANCH   1  15
ATOM     11  C   UNL     1      -1.119   9.285  -1.970  0.00  0.00    +0.044 C 
ATOM     12  C   UNL     1       0.010   8.374  -1.561  0.00  0.00    -0.050 A 
ATOM     13  C   UNL     1       0.713   8.624  -0.398  0.00  0.00    +0.004 A 
ATOM     14  C   UNL     1       1.748   7.788  -0.022  0.00  0.00    +0.006 A 
ATOM     15  C   UNL     1       2.079   6.702  -0.809  0.00  0.00    -0.024 A 
ATOM     16  C   UNL     1       1.380   6.454  -1.976  0.00  0.00    +0.006 A 
ATOM     17  C   UNL     1       0.341   7.287  -2.349  0.00  0.00    +0.004 A 
ENDBRANCH   1  15
BRANCH   7  18
ATOM     18  C   UNL     1       2.339   1.420  -0.033  0.00  0.00    +0.021 A 
ATOM     19  C   UNL     1       1.126   2.110  -0.013  0.00  0.00    +0.011 A 
ATOM     20  C   UNL     1      -0.062   1.409  -0.007  0.00  0.00    +0.001 A 
ATOM     21  C   UNL     1      -0.054   0.026  -0.019  0.00  0.00    +0.000 A 
ATOM     22  C   UNL     1       1.145  -0.664  -0.038  0.00  0.00    +0.001 A 
ATOM     23  C   UNL     1       2.341   0.024  -0.045  0.00  0.00    +0.011 A 
ENDBRANCH   7  18
BRANCH   2  24
ATOM     24  C   UNL     1       4.683   7.644  -1.162  0.00  0.00    +0.233 C 
ATOM     25  O   UNL     1       4.369   8.279  -0.178  0.00  0.00    -0.274 OA
ATOM     26  N   UNL     1       5.224   8.271  -2.225  0.00  0.00    -0.284 N 
ATOM     27  H   UNL     1       5.548   7.755  -2.980  0.00  0.00    +0.155 HD
BRANCH  26  28
ATOM     28  C   UNL     1       5.318   9.667  -2.240  0.00  0.00    +0.036 A 
ATOM     29  C   UNL     1       4.445  10.432  -1.477  0.00  0.00    +0.023 A 
ATOM     30  C   UNL     1       4.544  11.809  -1.489  0.00  0.00    +0.002 A 
ATOM     31  C   UNL     1       5.503  12.428  -2.270  0.00  0.00    +0.000 A 
ATOM     32  C   UNL     1       6.370  11.670  -3.036  0.00  0.00    +0.005 A 
ATOM     33  C   UNL     1       6.280  10.291  -3.023  0.00  0.00    -0.029 A 
ATOM     34  C   UNL     1       7.224   9.466  -3.858  0.00  0.00    +0.045 C 
ENDBRANCH  26  28
ENDBRANCH   2  24
TORSDOF 4
