REMARK  Name = ZINC65099518
REMARK  9 active torsions:
REMARK  status: ('A' for Active; 'I' for Inactive)
REMARK    1  A    between atoms: C_1  and  N_2
REMARK    2  A    between atoms: C_4  and  C_13
REMARK    3  A    between atoms: C_5  and  C_7
REMARK    4  A    between atoms: C_16  and  S_19
REMARK    5  A    between atoms: N_17  and  C_18
REMARK    6  A    between atoms: S_19  and  C_20
REMARK    7  A    between atoms: C_20  and  C_21
REMARK    8  A    between atoms: N_23  and  C_24
REMARK    9  A    between atoms: C_29  and  C_30
REMARK                            x       y       z     vdW  Elec       q    Type
REMARK                         _______ _______ _______ _____ _____    ______ ____
ROOT
ATOM      1  C   UNL     1      -0.043  -3.271  -1.534  0.00  0.00    +0.168 A 
ATOM      2  N   UNL     1       0.066  -4.519  -1.142  0.00  0.00    -0.128 NA
ATOM      3  N   UNL     1       0.057  -5.301  -2.161  0.00  0.00    -0.122 NA
ATOM      4  C   UNL     1      -0.058  -4.602  -3.266  0.00  0.00    +0.192 A 
ATOM      5  N   UNL     1      -0.131  -3.285  -2.906  0.00  0.00    -0.305 N 
ATOM      6  C   UNL     1      -0.272  -2.130  -3.796  0.00  0.00    +0.153 C 
ENDROOT
BRANCH   1  10
ATOM      7  C   UNL     1       0.921   1.238   0.385  0.00  0.00    +0.172 C 
ATOM      8  N   UNL     1       0.352  -0.096   0.178  0.00  0.00    -0.273 N 
ATOM      9  C   UNL     1       0.673  -0.943  -0.821  0.00  0.00    +0.120 A 
ATOM     10  C   UNL     1      -0.072  -2.076  -0.663  0.00  0.00    +0.065 A 
ATOM     11  C   UNL     1      -0.879  -1.897   0.490  0.00  0.00    +0.103 A 
ATOM     12  N   UNL     1      -0.611  -0.709   0.987  0.00  0.00    -0.171 NA
BRANCH  11  13
ATOM     13  C   UNL     1      -1.847  -2.876   1.040  0.00  0.00    +0.003 A 
ATOM     14  C   UNL     1      -2.575  -3.698   0.181  0.00  0.00    +0.010 A 
ATOM     15  C   UNL     1      -3.475  -4.607   0.699  0.00  0.00    +0.001 A 
ATOM     16  C   UNL     1      -3.656  -4.703   2.067  0.00  0.00    +0.000 A 
ATOM     17  C   UNL     1      -2.937  -3.890   2.924  0.00  0.00    +0.001 A 
ATOM     18  C   UNL     1      -2.030  -2.981   2.418  0.00  0.00    +0.010 A 
ENDBRANCH  11  13
ENDBRANCH   1  10
BRANCH   4  19
ATOM     19  S   UNL     1      -0.115  -5.241  -4.907  0.00  0.00    -0.077 S 
BRANCH  19  20
ATOM     20  C   UNL     1       0.022  -7.036  -4.684  0.00  0.00    +0.173 C 
BRANCH  20  21
ATOM     21  C   UNL     1      -0.014  -7.714  -6.029  0.00  0.00    +0.227 C 
ATOM     22  O   UNL     1      -0.120  -7.051  -7.040  0.00  0.00    -0.275 OA
ATOM     23  N   UNL     1       0.073  -9.057  -6.110  0.00  0.00    -0.284 N 
ATOM     24  H   UNL     1       0.097  -9.591  -5.301  0.00  0.00    +0.155 HD
BRANCH  23  25
ATOM     25  C   UNL     1       0.128  -9.680  -7.361  0.00  0.00    +0.045 A 
ATOM     26  C   UNL     1      -0.575  -9.150  -8.435  0.00  0.00    +0.024 A 
ATOM     27  C   UNL     1      -0.519  -9.768  -9.669  0.00  0.00    +0.002 A 
ATOM     28  C   UNL     1       0.237 -10.914  -9.836  0.00  0.00    +0.001 A 
ATOM     29  C   UNL     1       0.939 -11.444  -8.769  0.00  0.00    +0.014 A 
ATOM     30  C   UNL     1       0.891 -10.827  -7.534  0.00  0.00    +0.076 A 
BRANCH  30  31
ATOM     31  C   UNL     1       1.662 -11.402  -6.373  0.00  0.00    +0.419 C 
ATOM     32  F   UNL     1       2.348 -12.548  -6.791  0.00  0.00    -0.166 F 
ATOM     33  F   UNL     1       2.579 -10.454  -5.907  0.00  0.00    -0.166 F 
ATOM     34  F   UNL     1       0.775 -11.739  -5.345  0.00  0.00    -0.166 F 
ENDBRANCH  30  31
ENDBRANCH  23  25
ENDBRANCH  20  21
ENDBRANCH  19  20
ENDBRANCH   4  19
TORSDOF 7
