REMARK  Name = ZINC08603803
REMARK  8 active torsions:
REMARK  status: ('A' for Active; 'I' for Inactive)
REMARK    1  A    between atoms: C_1  and  C_2
REMARK    2  A    between atoms: C_2  and  O_3
REMARK    3  A    between atoms: O_3  and  C_4
REMARK    4  A    between atoms: C_4  and  C_6
REMARK    5  A    between atoms: C_7  and  C_20
REMARK    6  A    between atoms: C_12  and  C_14
REMARK    7  A    between atoms: C_20  and  S_21
REMARK    8  A    between atoms: S_21  and  C_24
REMARK                            x       y       z     vdW  Elec       q    Type
REMARK                         _______ _______ _______ _____ _____    ______ ____
ROOT
ATOM      1  C   UNL     1       1.554  -2.361   2.379  0.00  0.00    +0.080 C 
ATOM      2  C   UNL     1       1.513  -3.685   2.645  0.00  0.00    +0.045 C 
ATOM      3  N   UNL     1       2.080  -4.194   3.778  0.00  0.00    -0.271 N 
ATOM      4  C   UNL     1       2.706  -3.446   4.696  0.00  0.00    +0.304 C 
ATOM      5  O   UNL     1       3.180  -3.990   5.674  0.00  0.00    -0.252 OA
ATOM      6  N   UNL     1       2.828  -2.110   4.569  0.00  0.00    -0.288 N 
ATOM      7  C   UNL     1       2.255  -1.463   3.377  0.00  0.00    +0.144 C 
ATOM      8  H   UNL     1       2.026  -5.151   3.927  0.00  0.00    +0.156 HD
ATOM      9  H   UNL     1       3.286  -1.587   5.247  0.00  0.00    +0.151 HD
ENDROOT
BRANCH   7  10
ATOM     10  C   UNL     1       3.365  -0.743   2.655  0.00  0.00    -0.023 A 
ATOM     11  C   UNL     1       4.562  -1.387   2.410  0.00  0.00    +0.006 A 
ATOM     12  C   UNL     1       5.580  -0.727   1.747  0.00  0.00    +0.000 A 
ATOM     13  C   UNL     1       5.400   0.579   1.330  0.00  0.00    +0.000 A 
ATOM     14  C   UNL     1       4.202   1.223   1.574  0.00  0.00    +0.000 A 
ATOM     15  C   UNL     1       3.183   0.561   2.233  0.00  0.00    +0.006 A 
ENDBRANCH   7  10
BRANCH   1  16
ATOM     16  C   UNL     1       0.968  -1.833   1.205  0.00  0.00    +0.339 C 
ATOM     17  O   UNL     1      -0.124  -1.298   1.258  0.00  0.00    -0.245 OA
BRANCH  16  18
ATOM     18  O   UNL     1       1.619  -1.923   0.026  0.00  0.00    -0.462 OA
BRANCH  18  20
ATOM     19  C   UNL     1       1.851  -1.562  -2.352  0.00  0.00    +0.048 C 
ATOM     20  C   UNL     1       0.968  -1.368  -1.118  0.00  0.00    +0.229 C 
ENDBRANCH  18  20
ENDBRANCH  16  18
ENDBRANCH   1  16
BRANCH   2  21
ATOM     21  C   UNL     1       0.830  -4.615   1.676  0.00  0.00    +0.223 C 
BRANCH  21  22
ATOM     22  S   UNL     1       2.081  -5.546   0.748  0.00  0.00    +0.002 S 
ATOM     23  O   UNL     1       2.803  -4.675  -0.110  0.00  0.00    -0.169 OA
ATOM     24  O   UNL     1       2.765  -6.442   1.613  0.00  0.00    -0.169 OA
BRANCH  22  25
ATOM     25  C   UNL     1       1.159  -6.585  -0.337  0.00  0.00    +0.089 A 
ATOM     26  C   UNL     1       0.774  -7.847   0.075  0.00  0.00    +0.028 A 
ATOM     27  C   UNL     1       0.051  -8.661  -0.776  0.00  0.00    +0.017 A 
ATOM     28  C   UNL     1      -0.287  -8.213  -2.040  0.00  0.00    +0.018 A 
ATOM     29  C   UNL     1       0.098  -6.950  -2.452  0.00  0.00    +0.017 A 
ATOM     30  C   UNL     1       0.817  -6.134  -1.599  0.00  0.00    +0.028 A 
ATOM     31 BR   UNL     1      -1.276  -9.328  -3.205  0.00  0.00    -0.050 Br
ENDBRANCH  22  25
ENDBRANCH  21  22
ENDBRANCH   2  21
TORSDOF 7
