REMARK  Name = ZINC38905885
REMARK  6 active torsions:
REMARK  status: ('A' for Active; 'I' for Inactive)
REMARK    1  A    between atoms: N_7  and  S_8
REMARK    2  A    between atoms: S_8  and  C_11
REMARK    3  A    between atoms: C_14  and  N_17
REMARK    4  A    between atoms: N_17  and  C_18
REMARK    5  A    between atoms: C_19  and  C_20
REMARK    6  A    between atoms: C_20  and  C_22
REMARK                            x       y       z     vdW  Elec       q    Type
REMARK                         _______ _______ _______ _____ _____    ______ ____
ROOT
ATOM      1  C   UNL     1       7.432  -2.935  -0.059  0.00  0.00    +0.113 A 
ATOM      2  C   UNL     1       8.223  -2.780  -1.183  0.00  0.00    +0.031 A 
ATOM      3  C   UNL     1       9.526  -3.237  -1.180  0.00  0.00    +0.025 A 
ATOM      4  C   UNL     1      10.042  -3.853  -0.047  0.00  0.00    +0.031 A 
ATOM      5  C   UNL     1       9.245  -4.008   1.080  0.00  0.00    +0.025 A 
ATOM      6  C   UNL     1       7.944  -3.544   1.073  0.00  0.00    +0.031 A 
ENDROOT
BRANCH   1   7
ATOM      7  S   UNL     1       5.770  -2.350  -0.066  0.00  0.00    +0.100 S 
ATOM      8  O   UNL     1       5.072  -3.099   0.919  0.00  0.00    -0.146 OA
ATOM      9  O   UNL     1       5.359  -2.310  -1.426  0.00  0.00    -0.146 OA
BRANCH   7  16
ATOM     10  C   UNL     1       1.254   3.433   1.326  0.00  0.00    +0.002 A 
ATOM     11  C   UNL     1       2.521   3.944   1.652  0.00  0.00    +0.002 A 
ATOM     12  C   UNL     1       3.654   3.215   1.545  0.00  0.00    +0.030 A 
ATOM     13  C   UNL     1       3.602   1.874   1.088  0.00  0.00    +0.089 A 
ATOM     14  N   UNL     1       4.708   1.168   0.986  0.00  0.00    -0.227 NA
ATOM     15  C   UNL     1       4.695  -0.104   0.557  0.00  0.00    +0.170 C 
ATOM     16  N   UNL     1       5.801  -0.782   0.465  0.00  0.00    -0.112 NA
ATOM     17  C   UNL     1       3.374  -0.738   0.182  0.00  0.00    +0.191 C 
ATOM     18  N   UNL     1       2.158   0.081   0.309  0.00  0.00    -0.376 N 
ATOM     19  C   UNL     1       2.276   1.307   0.736  0.00  0.00    +0.061 A 
ATOM     20  C   UNL     1       1.092   2.167   0.881  0.00  0.00    +0.027 A 
ATOM     21  H   UNL     1       1.289  -0.283   0.080  0.00  0.00    +0.160 HD
ENDBRANCH   7  16
ENDBRANCH   1   7
BRANCH   4  22
ATOM     22  N   UNL     1      11.360  -4.317  -0.041  0.00  0.00    -0.320 N 
ATOM     23  H   UNL     1      11.916  -4.209  -0.829  0.00  0.00    +0.152 HD
BRANCH  22  24
ATOM     24  C   UNL     1      11.867  -4.925   1.076  0.00  0.00    +0.076 C 
ATOM     25  C   UNL     1      13.096  -5.482   1.042  0.00  0.00    +0.067 C 
BRANCH  25  26
ATOM     26  C   UNL     1      13.786  -5.601  -0.189  0.00  0.00    +0.194 C 
ATOM     27  O   UNL     1      13.229  -5.302  -1.232  0.00  0.00    -0.287 OA
BRANCH  26  28
ATOM     28  C   UNL     1      15.172  -6.083  -0.210  0.00  0.00    +0.060 A 
ATOM     29  C   UNL     1      16.018  -6.265  -1.293  0.00  0.00    +0.021 A 
ATOM     30  C   UNL     1      17.275  -6.735  -0.998  0.00  0.00    +0.028 A 
ATOM     31  C   UNL     1      17.597  -6.984   0.298  0.00  0.00    +0.079 A 
ATOM     32  S   UNL     1      16.208  -6.581   1.153  0.00  0.00    -0.074 S 
ATOM     33 CL   UNL     1      19.103  -7.577   0.927  0.00  0.00    -0.076 Cl
ENDBRANCH  26  28
ENDBRANCH  25  26
ENDBRANCH  22  24
ENDBRANCH   4  22
TORSDOF 6
