REMARK  Name = ZINC66651545
REMARK  12 active torsions:
REMARK  status: ('A' for Active; 'I' for Inactive)
REMARK    1  A    between atoms: C_1  and  C_2
REMARK    2  A    between atoms: C_2  and  C_4
REMARK    3  A    between atoms: C_2  and  C_18
REMARK    4  A    between atoms: C_4  and  C_5
REMARK    5  A    between atoms: C_10  and  C_13
REMARK    6  A    between atoms: C_13  and  C_14
REMARK    7  A    between atoms: C_14  and  N_15
REMARK    8  A    between atoms: N_15  and  C_16
REMARK    9  A    between atoms: N_15  and  C_17
REMARK   10  A    between atoms: C_18  and  C_19
REMARK   11  A    between atoms: C_18  and  C_20
REMARK   12  A    between atoms: C_18  and  C_21
REMARK                            x       y       z     vdW  Elec       q    Type
REMARK                         _______ _______ _______ _____ _____    ______ ____
ROOT
ATOM      1  C   UNL     1      -2.100  -0.151   1.309  0.00  0.00    +0.216 C 
ATOM      2  O   UNL     1      -1.488   0.483   2.142  0.00  0.00    -0.276 OA
ATOM      3  N   UNL     1      -3.377  -0.513   1.542  0.00  0.00    -0.301 N 
ATOM      4  C   UNL     1      -4.130  -1.286   0.546  0.00  0.00    +0.108 C 
ATOM      5  C   UNL     1      -5.441  -0.554   0.241  0.00  0.00    +0.022 C 
ATOM      6  C   UNL     1      -6.198  -0.307   1.547  0.00  0.00    -0.010 C 
ATOM      7  C   UNL     1      -5.354   0.577   2.469  0.00  0.00    +0.022 C 
ATOM      8  C   UNL     1      -4.041  -0.148   2.801  0.00  0.00    +0.108 C 
ENDROOT
BRANCH   1   9
ATOM      9  C   UNL     1      -1.433  -0.534   0.013  0.00  0.00    +0.099 C 
BRANCH   9  11
ATOM     10  C   UNL     1      -0.019   1.526   0.010  0.00  0.00    +0.008 C 
ATOM     11  C   UNL     1       0.002  -0.004   0.002  0.00  0.00    +0.000 C 
BRANCH  11  12
ATOM     12  C   UNL     1       0.718  -0.497  -1.257  0.00  0.00    -0.035 C 
ATOM     13  C   UNL     1       2.154   0.032  -1.268  0.00  0.00    +0.011 C 
ATOM     14  C   UNL     1       0.739  -2.027  -1.265  0.00  0.00    +0.011 C 
ATOM     15  C   UNL     1      -0.022   0.009  -2.496  0.00  0.00    +0.011 C 
ENDBRANCH  11  12
ENDBRANCH   9  11
ENDBRANCH   1   9
BRANCH   6  16
ATOM     16  C   UNL     1      -7.524   0.394   1.243  0.00  0.00    -0.015 C 
BRANCH  16  17
ATOM     17  C   UNL     1      -8.336   0.529   2.533  0.00  0.00    -0.079 C 
BRANCH  17  18
ATOM     18  N   UNL     1      -9.609   1.202   2.241  0.00  0.00    +0.376 N 
ATOM     19  C   UNL     1     -10.420   0.354   1.357  0.00  0.00    -0.097 C 
ATOM     20  C   UNL     1     -10.336   1.440   3.495  0.00  0.00    -0.097 C 
ATOM     21  H   UNL     1      -9.427   2.084   1.786  0.00  0.00    -0.083 HD
ENDBRANCH  17  18
ENDBRANCH  16  17
ENDBRANCH   6  16
TORSDOF 6
