REMARK  Name = ZINC58152947
REMARK  8 active torsions:
REMARK  status: ('A' for Active; 'I' for Inactive)
REMARK    1  A    between atoms: C_1  and  C_2
REMARK    2  A    between atoms: C_2  and  C_4
REMARK    3  A    between atoms: C_2  and  O_18
REMARK    4  A    between atoms: N_6  and  C_7
REMARK    5  A    between atoms: C_8  and  C_15
REMARK    6  A    between atoms: O_18  and  C_19
REMARK    7  A    between atoms: C_19  and  C_21
REMARK    8  A    between atoms: C_24  and  C_27
REMARK                            x       y       z     vdW  Elec       q    Type
REMARK                         _______ _______ _______ _____ _____    ______ ____
ROOT
ATOM      1  C   UNL     1      -0.019   1.526   0.010  0.00  0.00    +0.062 C 
ATOM      2  C   UNL     1       0.002  -0.004   0.002  0.00  0.00    +0.259 C 
ENDROOT
BRANCH   2   3
ATOM      3  C   UNL     1       0.731  -0.503   1.223  0.00  0.00    +0.258 C 
ATOM      4  O   UNL     1       0.135  -1.137   2.068  0.00  0.00    -0.271 OA
ATOM      5  N   UNL     1       2.045  -0.246   1.375  0.00  0.00    -0.276 N 
ATOM      6  H   UNL     1       2.522   0.261   0.699  0.00  0.00    +0.155 HD
BRANCH   5   7
ATOM      7  C   UNL     1       2.716  -0.705   2.499  0.00  0.00    +0.084 A 
ATOM      8  C   UNL     1       4.049  -0.533   2.823  0.00  0.00    +0.068 A 
ATOM      9  C   UNL     1       4.514  -1.121   4.078  0.00  0.00    -0.023 A 
ATOM     10  C   UNL     1       3.559  -1.770   4.768  0.00  0.00    -0.004 A 
ATOM     11  S   UNL     1       2.095  -1.591   3.780  0.00  0.00    -0.077 S 
ATOM     12  C   UNL     1       4.092  -2.358   6.046  0.00  0.00    +0.043 C 
ATOM     13  C   UNL     1       5.626  -2.358   5.866  0.00  0.00    +0.010 C 
ATOM     14  C   UNL     1       5.825  -1.209   4.857  0.00  0.00    +0.037 C 
BRANCH   8  15
ATOM     15  C   UNL     1       4.958   0.208   1.944  0.00  0.00    +0.244 C 
ATOM     16  O   UNL     1       5.097   1.409   2.086  0.00  0.00    -0.270 OA
ATOM     17  N   UNL     1       5.640  -0.440   0.978  0.00  0.00    -0.325 N 
ATOM     18  H   UNL     1       5.529  -1.397   0.865  0.00  0.00    +0.145 HD
ATOM     19  H   UNL     1       6.241   0.051   0.397  0.00  0.00    +0.145 HD
ENDBRANCH   8  15
ENDBRANCH   5   7
ENDBRANCH   2   3
BRANCH   2  20
ATOM     20  O   UNL     1      -1.339  -0.499   0.012  0.00  0.00    -0.449 OA
BRANCH  20  21
ATOM     21  C   UNL     1      -1.924  -0.704  -1.184  0.00  0.00    +0.340 C 
ATOM     22  O   UNL     1      -1.313  -0.469  -2.208  0.00  0.00    -0.245 OA
BRANCH  21  23
ATOM     23  C   UNL     1      -3.307  -1.214  -1.251  0.00  0.00    +0.059 A 
ATOM     24  C   UNL     1      -4.013  -1.478  -0.074  0.00  0.00    +0.015 A 
ATOM     25  C   UNL     1      -5.303  -1.954  -0.137  0.00  0.00    +0.009 A 
ATOM     26  C   UNL     1      -5.907  -2.171  -1.376  0.00  0.00    -0.018 A 
ATOM     27  C   UNL     1      -5.203  -1.908  -2.552  0.00  0.00    +0.009 A 
ATOM     28  C   UNL     1      -3.915  -1.427  -2.491  0.00  0.00    +0.015 A 
BRANCH  26  29
ATOM     29  C   UNL     1      -7.296  -2.684  -1.443  0.00  0.00    -0.018 A 
ATOM     30  C   UNL     1      -8.004  -2.943  -0.270  0.00  0.00    +0.008 A 
ATOM     31  C   UNL     1      -9.297  -3.419  -0.339  0.00  0.00    +0.001 A 
ATOM     32  C   UNL     1      -9.892  -3.640  -1.569  0.00  0.00    +0.000 A 
ATOM     33  C   UNL     1      -9.194  -3.385  -2.736  0.00  0.00    +0.001 A 
ATOM     34  C   UNL     1      -7.902  -2.902  -2.679  0.00  0.00    +0.008 A 
ENDBRANCH  26  29
ENDBRANCH  21  23
ENDBRANCH  20  21
ENDBRANCH   2  20
TORSDOF 7
