REMARK  Name = ZINC19892421
REMARK  17 active torsions:
REMARK  status: ('A' for Active; 'I' for Inactive)
REMARK    1  A    between atoms: C_1  and  C_2
REMARK    2  A    between atoms: C_2  and  C_3
REMARK    3  A    between atoms: C_3  and  C_4
REMARK    4  A    between atoms: C_4  and  O_5
REMARK    5  A    between atoms: O_5  and  C_6
REMARK    6  A    between atoms: C_6  and  C_8
REMARK    7  A    between atoms: C_9  and  C_41
REMARK    8  A    between atoms: C_13  and  C_15
REMARK    9  A    between atoms: C_18  and  O_23
REMARK   10  A    between atoms: C_20  and  O_21
REMARK   11  A    between atoms: O_21  and  C_22
REMARK   12  A    between atoms: O_23  and  C_24
REMARK   13  A    between atoms: C_28  and  C_31
REMARK   14  A    between atoms: C_34  and  O_39
REMARK   15  A    between atoms: C_35  and  O_37
REMARK   16  A    between atoms: O_37  and  C_38
REMARK   17  A    between atoms: O_39  and  C_40
REMARK                            x       y       z     vdW  Elec       q    Type
REMARK                         _______ _______ _______ _____ _____    ______ ____
ROOT
ATOM      1  C   UNL     1      -1.272   2.910   0.418  0.00  0.00    +0.065 C 
ATOM      2  C   UNL     1      -1.208   1.627   0.017  0.00  0.00    +0.016 C 
ATOM      3  N   UNL     1      -0.011   0.966   0.007  0.00  0.00    -0.321 N 
ATOM      4  C   UNL     1       1.169   1.660  -0.000  0.00  0.00    +0.016 C 
ATOM      5  C   UNL     1       1.208   2.949   0.399  0.00  0.00    +0.024 C 
ATOM      6  C   UNL     1      -0.044   3.650   0.862  0.00  0.00    +0.096 C 
ATOM      7  C   UNL     1       2.413   3.672   0.400  0.00  0.00    +0.162 C 
ATOM      8  O   UNL     1       2.411   4.836   0.750  0.00  0.00    -0.292 OA
ATOM      9  C   UNL     1       3.707   3.032  -0.025  0.00  0.00    +0.088 C 
ATOM     10  C   UNL     1       3.635   1.528   0.260  0.00  0.00    +0.032 C 
ATOM     11  C   UNL     1       2.417   0.953  -0.468  0.00  0.00    +0.059 C 
ATOM     12  C   UNL     1      -2.461   0.913  -0.420  0.00  0.00    +0.061 C 
ATOM     13  H   UNL     1       0.010  -0.134   0.006  0.00  0.00    +0.152 HD
ENDROOT
BRANCH   6  14
ATOM     14  C   UNL     1      -0.036   3.737   2.366  0.00  0.00    +0.007 A 
ATOM     15  C   UNL     1      -0.000   2.582   3.124  0.00  0.00    +0.012 A 
ATOM     16  C   UNL     1       0.013   2.658   4.504  0.00  0.00    +0.046 A 
ATOM     17  C   UNL     1      -0.021   3.895   5.132  0.00  0.00    +0.124 A 
ATOM     18  C   UNL     1      -0.062   5.055   4.374  0.00  0.00    +0.091 A 
ATOM     19  C   UNL     1      -0.069   4.976   2.990  0.00  0.00    +0.128 A 
BRANCH  19  20
ATOM     20  O   UNL     1      -0.110   6.111   2.244  0.00  0.00    -0.495 OA
ATOM     21  C   UNL     1      -0.143   7.352   2.952  0.00  0.00    +0.277 C 
ENDBRANCH  19  20
BRANCH  17  22
ATOM     22  O   UNL     1      -0.013   3.970   6.489  0.00  0.00    -0.495 OA
ATOM     23  C   UNL     1       0.030   2.734   7.206  0.00  0.00    +0.277 C 
ENDBRANCH  17  22
ENDBRANCH   6  14
BRANCH  10  24
ATOM     24  C   UNL     1       4.888   0.857  -0.243  0.00  0.00    -0.040 A 
ATOM     25  C   UNL     1       5.216   0.926  -1.584  0.00  0.00    +0.008 A 
ATOM     26  C   UNL     1       6.364   0.313  -2.050  0.00  0.00    +0.049 A 
ATOM     27  C   UNL     1       7.188  -0.373  -1.173  0.00  0.00    +0.161 A 
ATOM     28  C   UNL     1       6.857  -0.443   0.177  0.00  0.00    +0.162 A 
ATOM     29  C   UNL     1       5.708   0.179   0.639  0.00  0.00    +0.053 A 
BRANCH  28  30
ATOM     30  O   UNL     1       7.662  -1.116   1.042  0.00  0.00    -0.491 OA
ATOM     31  C   UNL     1       7.260  -1.145   2.413  0.00  0.00    +0.277 C 
ENDBRANCH  28  30
BRANCH  27  32
ATOM     32  O   UNL     1       8.318  -0.978  -1.629  0.00  0.00    -0.491 OA
ATOM     33  C   UNL     1       8.594  -0.865  -3.027  0.00  0.00    +0.277 C 
ENDBRANCH  27  32
ENDBRANCH  10  24
BRANCH   1  34
ATOM     34  C   UNL     1      -2.520   3.574   0.417  0.00  0.00    +0.338 C 
ATOM     35  O   UNL     1      -3.523   2.985   0.060  0.00  0.00    -0.245 OA
BRANCH  34  36
ATOM     36  O   UNL     1      -2.600   4.862   0.812  0.00  0.00    -0.461 OA
BRANCH  36  37
ATOM     37  C   UNL     1      -3.892   5.471   0.786  0.00  0.00    +0.232 C 
BRANCH  37  38
ATOM     38  C   UNL     1      -3.784   6.920   1.264  0.00  0.00    +0.041 C 
BRANCH  38  40
ATOM     39  C   UNL     1      -5.059   9.021   1.714  0.00  0.00    +0.004 C 
ATOM     40  C   UNL     1      -5.168   7.572   1.235  0.00  0.00    -0.000 C 
ENDBRANCH  38  40
ENDBRANCH  37  38
ENDBRANCH  36  37
ENDBRANCH  34  36
ENDBRANCH   1  34
TORSDOF 11
