REMARK  Name = ZINC39024553
REMARK  13 active torsions:
REMARK  status: ('A' for Active; 'I' for Inactive)
REMARK    1  A    between atoms: C_1  and  C_2
REMARK    2  A    between atoms: C_2  and  O_3
REMARK    3  A    between atoms: O_3  and  C_4
REMARK    4  A    between atoms: C_9  and  C_10
REMARK    5  A    between atoms: C_12  and  C_24
REMARK    6  A    between atoms: N_26  and  C_27
REMARK    7  A    between atoms: C_27  and  C_29
REMARK    8  A    between atoms: C_27  and  C_33
REMARK    9  A    between atoms: C_29  and  C_30
REMARK   10  A    between atoms: C_30  and  S_31
REMARK   11  A    between atoms: S_31  and  C_32
REMARK   12  A    between atoms: C_33  and  O_35
REMARK   13  A    between atoms: O_35  and  C_36
REMARK                            x       y       z     vdW  Elec       q    Type
REMARK                         _______ _______ _______ _____ _____    ______ ____
ROOT
ATOM      1  C   UNL     1      -3.915  -1.481  -0.533  0.00  0.00    +0.079 C 
ATOM      2  N   UNL     1      -3.839  -0.182  -0.344  0.00  0.00    -0.244 NA
ATOM      3  C   UNL     1      -4.870   0.589   0.029  0.00  0.00    +0.126 C 
ATOM      4  C   UNL     1      -6.049   0.032   0.530  0.00  0.00    +0.039 C 
ATOM      5  C   UNL     1      -6.163  -1.346   0.426  0.00  0.00    -0.008 C 
ATOM      6  C   UNL     1      -6.941  -2.293   1.039  0.00  0.00    +0.004 A 
ATOM      7  C   UNL     1      -8.108  -2.193   1.830  0.00  0.00    +0.010 A 
ATOM      8  C   UNL     1      -8.611  -3.355   2.337  0.00  0.00    +0.001 A 
ATOM      9  C   UNL     1      -8.034  -4.604   2.110  0.00  0.00    +0.002 A 
ATOM     10  C   UNL     1      -6.925  -4.791   1.343  0.00  0.00    +0.026 A 
ATOM     11  C   UNL     1      -6.346  -3.630   0.757  0.00  0.00    +0.044 A 
ATOM     12  N   UNL     1      -5.329  -3.521  -0.062  0.00  0.00    -0.372 N 
ATOM     13  C   UNL     1      -5.247  -2.142  -0.495  0.00  0.00    +0.160 C 
ATOM     14  H   UNL     1      -4.736  -4.239  -0.334  0.00  0.00    +0.161 HD
ENDROOT
BRANCH   1  20
ATOM     15  C   UNL     1      -2.524  -2.918  -2.017  0.00  0.00    +0.129 A 
ATOM     16  C   UNL     1      -1.371  -3.653  -2.243  0.00  0.00    +0.046 A 
ATOM     17  C   UNL     1      -0.407  -3.750  -1.259  0.00  0.00    +0.004 A 
ATOM     18  C   UNL     1      -0.581  -3.115  -0.039  0.00  0.00    +0.001 A 
ATOM     19  C   UNL     1      -1.718  -2.380   0.207  0.00  0.00    +0.013 A 
ATOM     20  C   UNL     1      -2.703  -2.267  -0.783  0.00  0.00    +0.040 A 
BRANCH  15  21
ATOM     21  O   UNL     1      -3.472  -2.823  -2.982  0.00  0.00    -0.492 OA
BRANCH  21  23
ATOM     22  C   UNL     1      -4.383  -3.286  -5.172  0.00  0.00    +0.048 C 
ATOM     23  C   UNL     1      -3.270  -3.594  -4.168  0.00  0.00    +0.226 C 
ENDBRANCH  21  23
ENDBRANCH  15  21
ENDBRANCH   1  20
BRANCH   3  24
ATOM     24  C   UNL     1      -4.758   2.060  -0.093  0.00  0.00    +0.263 C 
ATOM     25  O   UNL     1      -5.646   2.775   0.329  0.00  0.00    -0.269 OA
ATOM     26  N   UNL     1      -3.670   2.607  -0.671  0.00  0.00    -0.297 N 
ATOM     27  H   UNL     1      -2.996   2.037  -1.074  0.00  0.00    +0.150 HD
BRANCH  26  28
ATOM     28  C   UNL     1      -3.505   4.063  -0.692  0.00  0.00    +0.183 C 
BRANCH  28  29
ATOM     29  C   UNL     1      -4.275   4.639  -1.853  0.00  0.00    +0.327 C 
ATOM     30  O   UNL     1      -4.898   3.909  -2.587  0.00  0.00    -0.249 OA
BRANCH  29  31
ATOM     31  O   UNL     1      -4.270   5.963  -2.070  0.00  0.00    -0.467 OA
ATOM     32  C   UNL     1      -5.021   6.440  -3.188  0.00  0.00    +0.280 C 
ENDBRANCH  29  31
ENDBRANCH  28  29
BRANCH  28  33
ATOM     33  C   UNL     1      -2.022   4.406  -0.844  0.00  0.00    +0.044 C 
BRANCH  33  34
ATOM     34  C   UNL     1      -1.262   3.943   0.401  0.00  0.00    +0.071 C 
BRANCH  34  35
ATOM     35  S   UNL     1       0.467   4.482   0.288  0.00  0.00    -0.164 S 
ATOM     36  C   UNL     1       1.220   3.862   1.818  0.00  0.00    +0.084 C 
ENDBRANCH  34  35
ENDBRANCH  33  34
ENDBRANCH  28  33
ENDBRANCH  26  28
ENDBRANCH   3  24
TORSDOF 10
