REMARK  Name = ZINC10001521
REMARK  11 active torsions:
REMARK  status: ('A' for Active; 'I' for Inactive)
REMARK    1  A    between atoms: C_1  and  C_2
REMARK    2  A    between atoms: C_2  and  C_3
REMARK    3  A    between atoms: C_2  and  C_4
REMARK    4  A    between atoms: C_4  and  C_6
REMARK    5  A    between atoms: C_4  and  N_27
REMARK    6  A    between atoms: C_9  and  S_12
REMARK    7  A    between atoms: N_10  and  C_11
REMARK    8  A    between atoms: S_12  and  C_13
REMARK    9  A    between atoms: C_13  and  C_14
REMARK   10  A    between atoms: N_16  and  C_17
REMARK   11  A    between atoms: C_28  and  C_30
REMARK                            x       y       z     vdW  Elec       q    Type
REMARK                         _______ _______ _______ _____ _____    ______ ____
ROOT
ATOM      1  C   UNL     1       0.682   0.113  -4.651  0.00  0.00    +0.155 A 
ATOM      2  N   UNL     1       1.514  -0.227  -3.707  0.00  0.00    -0.132 NA
ATOM      3  N   UNL     1       1.049   0.124  -2.562  0.00  0.00    -0.122 NA
ATOM      4  C   UNL     1      -0.119   0.703  -2.713  0.00  0.00    +0.192 A 
ATOM      5  N   UNL     1      -0.389   0.717  -4.051  0.00  0.00    -0.308 N 
ATOM      6  C   UNL     1      -1.578   1.265  -4.709  0.00  0.00    +0.152 C 
ENDROOT
BRANCH   1   7
ATOM      7  C   UNL     1       0.865  -0.118  -6.129  0.00  0.00    +0.144 C 
BRANCH   7   8
ATOM      8  N   UNL     1       2.230   0.248  -6.515  0.00  0.00    -0.301 N 
ATOM      9  C   UNL     1       2.496   0.612  -7.785  0.00  0.00    +0.245 C 
ATOM     10  O   UNL     1       1.604   0.637  -8.610  0.00  0.00    -0.270 OA
ATOM     11  H   UNL     1       2.942   0.228  -5.856  0.00  0.00    +0.150 HD
BRANCH   9  12
ATOM     12  C   UNL     1       3.872   0.981  -8.173  0.00  0.00    +0.040 A 
ATOM     13  C   UNL     1       4.897   0.959  -7.225  0.00  0.00    +0.017 A 
ATOM     14  C   UNL     1       6.181   1.298  -7.591  0.00  0.00    +0.050 A 
ATOM     15  C   UNL     1       6.459   1.674  -8.899  0.00  0.00    +0.166 A 
ATOM     16  C   UNL     1       5.438   1.704  -9.849  0.00  0.00    +0.167 A 
ATOM     17  C   UNL     1       4.150   1.359  -9.489  0.00  0.00    +0.062 A 
ATOM     18  O   UNL     1       5.966   2.103 -11.043  0.00  0.00    -0.453 OA
ATOM     19  C   UNL     1       7.232   2.708 -10.720  0.00  0.00    +0.466 C 
ATOM     20  O   UNL     1       7.623   2.053  -9.499  0.00  0.00    -0.453 OA
ENDBRANCH   9  12
ENDBRANCH   7   8
BRANCH   7  22
ATOM     21  C   UNL     1      -0.802  -1.977  -6.045  0.00  0.00    +0.009 C 
ATOM     22  C   UNL     1       0.623  -1.595  -6.448  0.00  0.00    +0.011 C 
ATOM     23  C   UNL     1       0.809  -1.829  -7.949  0.00  0.00    +0.009 C 
ENDBRANCH   7  22
ENDBRANCH   1   7
BRANCH   4  24
ATOM     24  S   UNL     1      -1.143   1.347  -1.431  0.00  0.00    -0.077 S 
BRANCH  24  25
ATOM     25  C   UNL     1      -0.123   0.957   0.012  0.00  0.00    +0.173 C 
BRANCH  25  26
ATOM     26  C   UNL     1      -0.819   1.430   1.262  0.00  0.00    +0.227 C 
ATOM     27  O   UNL     1      -1.899   1.977   1.185  0.00  0.00    -0.275 OA
ATOM     28  N   UNL     1      -0.242   1.246   2.466  0.00  0.00    -0.285 N 
ATOM     29  H   UNL     1       0.584   0.742   2.536  0.00  0.00    +0.155 HD
BRANCH  28  30
ATOM     30  C   UNL     1      -0.833   1.782   3.615  0.00  0.00    +0.034 A 
ATOM     31  C   UNL     1      -1.517   3.001   3.537  0.00  0.00    +0.024 A 
ATOM     32  C   UNL     1      -2.106   3.542   4.636  0.00  0.00    +0.010 A 
ATOM     33  C   UNL     1      -2.022   2.881   5.874  0.00  0.00    -0.018 A 
ATOM     34  C   UNL     1      -2.615   3.420   7.028  0.00  0.00    +0.008 A 
ATOM     35  C   UNL     1      -2.516   2.755   8.211  0.00  0.00    +0.001 A 
ATOM     36  C   UNL     1      -1.832   1.543   8.298  0.00  0.00    +0.001 A 
ATOM     37  C   UNL     1      -1.244   0.991   7.202  0.00  0.00    +0.008 A 
ATOM     38  C   UNL     1      -1.327   1.649   5.962  0.00  0.00    -0.016 A 
ATOM     39  C   UNL     1      -0.732   1.107   4.811  0.00  0.00    +0.031 A 
ENDBRANCH  28  30
ENDBRANCH  25  26
ENDBRANCH  24  25
ENDBRANCH   4  24
TORSDOF 8
