REMARK  Name = ZINC14732825
REMARK  10 active torsions:
REMARK  status: ('A' for Active; 'I' for Inactive)
REMARK    1  A    between atoms: C_1  and  O_2
REMARK    2  A    between atoms: O_2  and  C_3
REMARK    3  A    between atoms: C_5  and  C_12
REMARK    4  A    between atoms: C_12  and  N_67
REMARK    5  A    between atoms: C_14  and  O_29
REMARK    6  A    between atoms: N_17  and  C_21
REMARK    7  A    between atoms: C_21  and  C_22
REMARK    8  A    between atoms: C_22  and  C_23
REMARK    9  A    between atoms: O_29  and  C_30
REMARK   10  A    between atoms: C_30  and  C_31
REMARK                            x       y       z     vdW  Elec       q    Type
REMARK                         _______ _______ _______ _____ _____    ______ ____
ROOT
ATOM      1  C   UNL     1       5.284   3.905  -2.753  0.00  0.00    -0.044 C 
ATOM      2  C   UNL     1       5.312   3.067  -1.490  0.00  0.00    +0.120 C 
ATOM      3  C   UNL     1       6.469   2.065  -1.530  0.00  0.00    +0.137 C 
ATOM      4  N   UNL     1       7.682   2.736  -1.034  0.00  0.00    -0.300 N 
ATOM      5  C   UNL     1       8.262   3.690  -1.768  0.00  0.00    +0.199 C 
ATOM      6  O   UNL     1       9.256   4.250  -1.356  0.00  0.00    -0.278 OA
ATOM      7  C   UNL     1       7.684   4.074  -3.113  0.00  0.00    +0.019 C 
ATOM      8  N   UNL     1       6.431   4.829  -2.868  0.00  0.00    +0.390 N 
ATOM      9  H   UNL     1       6.526   5.348  -1.987  0.00  0.00    -0.081 HD
ENDROOT
BRANCH   8  10
ATOM     10  C   UNL     1       6.195   5.785  -3.960  0.00  0.00    -0.042 C 
BRANCH  10  13
ATOM     11  C   UNL     1       7.997   8.979  -3.047  0.00  0.00    +0.166 A 
ATOM     12  C   UNL     1       7.029   7.989  -3.121  0.00  0.00    +0.051 A 
ATOM     13  C   UNL     1       7.248   6.861  -3.887  0.00  0.00    -0.057 A 
ATOM     14  C   UNL     1       8.429   6.718  -4.592  0.00  0.00    +0.051 A 
ATOM     15  C   UNL     1       9.401   7.705  -4.528  0.00  0.00    +0.170 A 
ATOM     16  C   UNL     1       9.186   8.840  -3.753  0.00  0.00    +0.208 A 
ATOM     17  O   UNL     1      10.279   9.653  -3.856  0.00  0.00    -0.449 OA
ATOM     18  C   UNL     1      11.331   8.817  -4.373  0.00  0.00    +0.467 C 
ATOM     19  O   UNL     1      10.628   7.804  -5.117  0.00  0.00    -0.452 OA
BRANCH  11  21
ATOM     20  C   UNL     1       6.538  10.163  -1.589  0.00  0.00    +0.277 C 
ATOM     21  O   UNL     1       7.782  10.087  -2.288  0.00  0.00    -0.491 OA
ENDBRANCH  11  21
ENDBRANCH  10  13
ENDBRANCH   8  10
BRANCH   4  22
ATOM     22  C   UNL     1       8.252   2.359   0.262  0.00  0.00    +0.112 C 
BRANCH  22  23
ATOM     23  C   UNL     1       9.268   1.231   0.064  0.00  0.00    +0.054 C 
BRANCH  23  24
ATOM     24  C   UNL     1       9.854   0.843   1.397  0.00  0.00    -0.046 A 
ATOM     25  C   UNL     1      10.996   1.470   1.858  0.00  0.00    +0.004 A 
ATOM     26  C   UNL     1      11.531   1.117   3.083  0.00  0.00    +0.000 A 
ATOM     27  C   UNL     1      10.930   0.131   3.842  0.00  0.00    +0.000 A 
ATOM     28  C   UNL     1       9.791  -0.500   3.377  0.00  0.00    +0.000 A 
ATOM     29  C   UNL     1       9.253  -0.144   2.155  0.00  0.00    +0.004 A 
ENDBRANCH  23  24
ENDBRANCH  22  23
ENDBRANCH   4  22
BRANCH   2  30
ATOM     30  O   UNL     1       4.078   2.356  -1.370  0.00  0.00    -0.372 OA
BRANCH  30  31
ATOM     31  C   UNL     1       3.677   2.111  -0.020  0.00  0.00    +0.195 C 
BRANCH  31  32
ATOM     32  C   UNL     1       2.371   1.359  -0.013  0.00  0.00    -0.019 A 
ATOM     33  C   UNL     1       1.162   2.038   0.002  0.00  0.00    +0.025 A 
ATOM     34  C   UNL     1      -0.016   1.315   0.009  0.00  0.00    +0.111 A 
ATOM     35  N   UNL     1       0.002  -0.004   0.002  0.00  0.00    -0.263 NA
ATOM     36  C   UNL     1       1.133  -0.682  -0.013  0.00  0.00    +0.111 A 
ATOM     37  C   UNL     1       2.350  -0.027  -0.020  0.00  0.00    +0.025 A 
ENDBRANCH  31  32
ENDBRANCH  30  31
ENDBRANCH   2  30
TORSDOF 9
