REMARK  Name = ZINC00853904
REMARK  8 active torsions:
REMARK  status: ('A' for Active; 'I' for Inactive)
REMARK    1  A    between atoms: C_1  and  C_2
REMARK    2  A    between atoms: C_10  and  C_13
REMARK    3  A    between atoms: C_18  and  C_22
REMARK    4  A    between atoms: C_18  and  C_23
REMARK    5  A    between atoms: C_25  and  C_31
REMARK    6  A    between atoms: C_26  and  C_27
REMARK    7  A    between atoms: C_27  and  O_29
REMARK    8  A    between atoms: O_29  and  C_30
REMARK                            x       y       z     vdW  Elec       q    Type
REMARK                         _______ _______ _______ _____ _____    ______ ____
ROOT
ATOM      1  C   UNL     1      -0.061   3.660  -0.816  0.00  0.00    +0.099 C 
ATOM      2  C   UNL     1       1.200   2.954  -0.384  0.00  0.00    +0.024 C 
ATOM      3  C   UNL     1       1.169   1.660  -0.000  0.00  0.00    +0.016 C 
ATOM      4  C   UNL     1       2.426   0.948   0.433  0.00  0.00    +0.058 C 
ATOM      5  C   UNL     1       3.630   1.533  -0.309  0.00  0.00    -0.023 C 
ATOM      6  C   UNL     1       3.706   3.033  -0.004  0.00  0.00    +0.086 C 
ATOM      7  C   UNL     1       2.405   3.678  -0.397  0.00  0.00    +0.162 C 
ATOM      8  O   UNL     1       2.396   4.846  -0.731  0.00  0.00    -0.292 OA
ATOM      9  C   UNL     1       3.458   1.322  -1.815  0.00  0.00    +0.011 C 
ATOM     10  C   UNL     1       4.913   0.847   0.163  0.00  0.00    +0.011 C 
ATOM     11  N   UNL     1      -0.011   0.966   0.007  0.00  0.00    -0.321 N 
ATOM     12  C   UNL     1      -1.208   1.627   0.017  0.00  0.00    +0.016 C 
ATOM     13  C   UNL     1      -1.279   2.914  -0.358  0.00  0.00    +0.065 C 
ATOM     14  C   UNL     1      -2.457   0.907   0.456  0.00  0.00    +0.061 C 
ATOM     15  H   UNL     1      -0.002  -0.134   0.006  0.00  0.00    +0.152 HD
ENDROOT
BRANCH   1  25
ATOM     16  C   UNL     1      -0.246   7.526  -7.282  0.00  0.00    +0.044 C 
ATOM     17  C   UNL     1      -0.199   6.234  -6.509  0.00  0.00    -0.050 A 
ATOM     18  C   UNL     1      -0.169   5.024  -7.187  0.00  0.00    +0.007 A 
ATOM     19  C   UNL     1      -0.125   3.831  -6.498  0.00  0.00    +0.047 A 
ATOM     20  C   UNL     1      -0.111   3.834  -5.108  0.00  0.00    +0.138 A 
ATOM     21  C   UNL     1      -0.142   5.059  -4.423  0.00  0.00    +0.064 A 
ATOM     22  C   UNL     1      -0.186   6.259  -5.132  0.00  0.00    +0.018 A 
ATOM     23  C   UNL     1      -0.126   5.036  -2.947  0.00  0.00    +0.197 A 
ATOM     24  O   UNL     1      -0.151   6.066  -2.295  0.00  0.00    -0.287 OA
ATOM     25  C   UNL     1      -0.079   3.763  -2.319  0.00  0.00    +0.047 A 
ATOM     26  C   UNL     1      -0.047   2.650  -3.075  0.00  0.00    +0.204 A 
ATOM     27  O   UNL     1      -0.068   2.680  -4.411  0.00  0.00    -0.462 OA
ENDBRANCH   1  25
BRANCH  13  28
ATOM     28  C   UNL     1      -2.528   3.578  -0.326  0.00  0.00    +0.337 C 
ATOM     29  O   UNL     1      -3.524   2.984   0.043  0.00  0.00    -0.245 OA
BRANCH  28  30
ATOM     30  O   UNL     1      -2.615   4.870  -0.705  0.00  0.00    -0.465 OA
ATOM     31  C   UNL     1      -3.907   5.478  -0.648  0.00  0.00    +0.280 C 
ENDBRANCH  28  30
ENDBRANCH  13  28
TORSDOF 3
