REMARK  Name = ZINC59679824
REMARK  7 active torsions:
REMARK  status: ('A' for Active; 'I' for Inactive)
REMARK    1  A    between atoms: C_1  and  C_2
REMARK    2  A    between atoms: C_7  and  N_8
REMARK    3  A    between atoms: C_9  and  C_28
REMARK    4  A    between atoms: C_11  and  C_14
REMARK    5  A    between atoms: C_12  and  C_13
REMARK    6  A    between atoms: N_15  and  N_16
REMARK    7  A    between atoms: C_17  and  C_19
REMARK                            x       y       z     vdW  Elec       q    Type
REMARK                         _______ _______ _______ _____ _____    ______ ____
ROOT
ATOM      1  C   UNL     1       1.627   1.631   5.247  0.00  0.00    +0.140 C 
ATOM      2  N   UNL     1       2.916   1.583   5.106  0.00  0.00    -0.187 NA
ENDROOT
BRANCH   1   6
ATOM      3  N   UNL     1       0.026  -0.013   2.419  0.00  0.00    -0.317 N 
ATOM      4  C   UNL     1      -1.091   0.353   3.114  0.00  0.00    +0.022 A 
ATOM      5  C   UNL     1      -0.715   0.998   4.233  0.00  0.00    +0.032 A 
ATOM      6  C   UNL     1       0.750   1.030   4.226  0.00  0.00    +0.016 A 
ATOM      7  C   UNL     1       1.142   0.387   3.087  0.00  0.00    +0.030 A 
ATOM      8  C   UNL     1       2.564   0.162   2.643  0.00  0.00    +0.064 C 
ATOM      9  C   UNL     1      -2.513   0.082   2.694  0.00  0.00    +0.064 C 
BRANCH   3  16
ATOM     10  C   UNL     1      -0.018   1.503   0.010  0.00  0.00    +0.046 C 
ATOM     11  C   UNL     1       0.002  -0.004   0.002  0.00  0.00    -0.027 A 
ATOM     12  C   UNL     1       0.006  -0.689  -1.198  0.00  0.00    +0.005 A 
ATOM     13  C   UNL     1       0.024  -2.071  -1.206  0.00  0.00    +0.000 A 
ATOM     14  C   UNL     1       0.039  -2.773  -0.014  0.00  0.00    +0.002 A 
ATOM     15  C   UNL     1       0.036  -2.094   1.188  0.00  0.00    +0.026 A 
ATOM     16  C   UNL     1       0.023  -0.705   1.200  0.00  0.00    +0.049 A 
ENDBRANCH   3  16
ENDBRANCH   1   6
BRANCH   2  17
ATOM     17  N   UNL     1       3.749   2.154   6.077  0.00  0.00    -0.200 N 
ATOM     18  C   UNL     1       5.088   2.104   5.930  0.00  0.00    +0.299 C 
ATOM     19  O   UNL     1       5.574   1.563   4.954  0.00  0.00    -0.265 OA
ATOM     20  H   UNL     1       3.363   2.586   6.855  0.00  0.00    +0.178 HD
BRANCH  18  21
ATOM     21  C   UNL     1       5.962   2.704   6.948  0.00  0.00    +0.192 A 
ATOM     22  C   UNL     1       7.319   2.718   6.903  0.00  0.00    +0.063 A 
ATOM     23  C   UNL     1       7.758   3.413   8.113  0.00  0.00    +0.021 A 
ATOM     24  C   UNL     1       9.005   3.750   8.645  0.00  0.00    +0.011 A 
ATOM     25  C   UNL     1       9.075   4.422   9.832  0.00  0.00    +0.001 A 
ATOM     26  C   UNL     1       7.917   4.772  10.512  0.00  0.00    +0.004 A 
ATOM     27  C   UNL     1       6.677   4.449  10.005  0.00  0.00    +0.047 A 
ATOM     28  C   UNL     1       6.580   3.765   8.798  0.00  0.00    +0.136 A 
ATOM     29  O   UNL     1       5.537   3.328   8.066  0.00  0.00    -0.450 OA
ENDBRANCH  18  21
ENDBRANCH   2  17
TORSDOF 4
