REMARK  Name = ZINC02628174
REMARK  11 active torsions:
REMARK  status: ('A' for Active; 'I' for Inactive)
REMARK    1  A    between atoms: C_1  and  C_2
REMARK    2  A    between atoms: C_2  and  C_3
REMARK    3  A    between atoms: C_6  and  N_9
REMARK    4  A    between atoms: C_13  and  S_15
REMARK    5  A    between atoms: S_15  and  C_16
REMARK    6  A    between atoms: C_16  and  C_17
REMARK    7  A    between atoms: C_17  and  C_19
REMARK    8  A    between atoms: C_20  and  C_29
REMARK    9  A    between atoms: C_21  and  C_26
REMARK   10  A    between atoms: C_22  and  C_25
REMARK   11  A    between atoms: C_26  and  C_28
REMARK                            x       y       z     vdW  Elec       q    Type
REMARK                         _______ _______ _______ _____ _____    ______ ____
ROOT
ATOM      1  N   UNL     1      -2.660   2.910   4.676  0.00  0.00    -0.292 N 
ATOM      2  C   UNL     1      -2.236   4.075   5.306  0.00  0.00    +0.187 A 
ATOM      3  N   UNL     1      -1.303   4.932   4.938  0.00  0.00    -0.125 NA
ATOM      4  N   UNL     1      -1.042   6.036   5.717  0.00  0.00    -0.133 NA
ATOM      5  C   UNL     1      -1.719   6.226   6.834  0.00  0.00    +0.160 A 
ATOM      6  S   UNL     1      -2.803   4.806   6.834  0.00  0.00    -0.024 S 
ATOM      7  H   UNL     1      -3.421   2.420   5.024  0.00  0.00    +0.154 HD
ENDROOT
BRANCH   1  11
ATOM      8  C   UNL     1      -0.663   1.528   1.293  0.00  0.00    -0.048 A 
ATOM      9  C   UNL     1      -1.988   1.190   1.498  0.00  0.00    +0.005 A 
ATOM     10  C   UNL     1      -2.652   1.643   2.621  0.00  0.00    +0.023 A 
ATOM     11  C   UNL     1      -1.990   2.447   3.541  0.00  0.00    +0.033 A 
ATOM     12  C   UNL     1      -0.660   2.788   3.329  0.00  0.00    +0.023 A 
ATOM     13  C   UNL     1      -0.001   2.328   2.206  0.00  0.00    +0.005 A 
BRANCH   8  15
ATOM     14  C   UNL     1       0.722  -0.315   0.381  0.00  0.00    +0.009 C 
ATOM     15  C   UNL     1       0.060   1.028   0.069  0.00  0.00    +0.032 C 
ENDBRANCH   8  15
ENDBRANCH   1  11
BRANCH   5  16
ATOM     16  S   UNL     1      -1.589   7.531   8.010  0.00  0.00    -0.089 S 
BRANCH  16  17
ATOM     17  C   UNL     1      -0.282   8.597   7.340  0.00  0.00    +0.157 C 
BRANCH  17  18
ATOM     18  C   UNL     1      -0.068   9.769   8.263  0.00  0.00    +0.190 C 
ATOM     19  O   UNL     1      -0.732   9.875   9.274  0.00  0.00    -0.290 OA
BRANCH  18  20
ATOM     20  C   UNL     1       0.908  10.746   7.950  0.00  0.00    +0.087 A 
ATOM     21  C   UNL     1       1.201  11.864   8.700  0.00  0.00    -0.012 A 
ATOM     22  C   UNL     1       2.233  12.552   8.021  0.00  0.00    +0.041 A 
ATOM     23  C   UNL     1       2.522  11.825   6.875  0.00  0.00    +0.024 A 
ATOM     24  N   UNL     1       1.727  10.747   6.839  0.00  0.00    -0.355 N 
ATOM     25  H   UNL     1       1.727  10.073   6.141  0.00  0.00    +0.166 HD
ATOM     26  C   UNL     1       3.559  12.188   5.843  0.00  0.00    +0.064 C 
ATOM     27  C   UNL     1       0.549  12.274   9.995  0.00  0.00    +0.047 C 
BRANCH  22  28
ATOM     28  C   UNL     1       2.873  13.801   8.445  0.00  0.00    +0.162 C 
ATOM     29  O   UNL     1       2.472  14.864   8.018  0.00  0.00    -0.292 OA
ATOM     30  C   UNL     1       4.028  13.765   9.412  0.00  0.00    +0.091 C 
ENDBRANCH  22  28
ENDBRANCH  18  20
ENDBRANCH  17  18
ENDBRANCH  16  17
ENDBRANCH   5  16
TORSDOF 7
