REMARK  Name = ZINC36207086
REMARK  11 active torsions:
REMARK  status: ('A' for Active; 'I' for Inactive)
REMARK    1  A    between atoms: C_1  and  C_2
REMARK    2  A    between atoms: C_5  and  C_32
REMARK    3  A    between atoms: C_6  and  C_8
REMARK    4  A    between atoms: C_17  and  C_19
REMARK    5  A    between atoms: C_19  and  N_20
REMARK    6  A    between atoms: N_20  and  C_21
REMARK    7  A    between atoms: N_20  and  C_27
REMARK    8  A    between atoms: C_21  and  C_22
REMARK    9  A    between atoms: C_27  and  C_28
REMARK   10  A    between atoms: C_28  and  C_30
REMARK   11  A    between atoms: C_28  and  O_31
REMARK                            x       y       z     vdW  Elec       q    Type
REMARK                         _______ _______ _______ _____ _____    ______ ____
ROOT
ATOM      1  C   UNL     1      -0.347  -3.003   2.787  0.00  0.00    +0.004 A 
ATOM      2  C   UNL     1      -1.309  -2.908   3.737  0.00  0.00    +0.056 A 
ATOM      3  S   UNL     1      -0.629  -3.825   5.106  0.00  0.00    -0.076 S 
ATOM      4  C   UNL     1       0.915  -4.310   4.378  0.00  0.00    +0.116 A 
ATOM      5  C   UNL     1       0.865  -3.754   3.090  0.00  0.00    +0.080 A 
ATOM      6  C   UNL     1       2.009  -4.000   2.264  0.00  0.00    +0.260 A 
ATOM      7  O   UNL     1       2.060  -3.554   1.130  0.00  0.00    -0.267 OA
ATOM      8  N   UNL     1       3.026  -4.729   2.758  0.00  0.00    -0.312 N 
ATOM      9  H   UNL     1       3.803  -4.899   2.203  0.00  0.00    +0.170 HD
ATOM     10  C   UNL     1       2.985  -5.233   4.019  0.00  0.00    +0.094 A 
ATOM     11  N   UNL     1       1.960  -5.018   4.799  0.00  0.00    -0.229 NA
ENDROOT
BRANCH   1  17
ATOM     12  C   UNL     1      -0.845   1.122   0.019  0.00  0.00    +0.044 C 
ATOM     13  C   UNL     1      -0.767  -0.379   0.129  0.00  0.00    -0.050 A 
ATOM     14  C   UNL     1      -0.864  -1.160  -1.009  0.00  0.00    +0.003 A 
ATOM     15  C   UNL     1      -0.794  -2.539  -0.916  0.00  0.00    +0.004 A 
ATOM     16  C   UNL     1      -0.626  -3.143   0.314  0.00  0.00    -0.043 A 
ATOM     17  C   UNL     1      -0.527  -2.360   1.463  0.00  0.00    -0.013 A 
ATOM     18  C   UNL     1      -0.593  -0.971   1.363  0.00  0.00    +0.012 A 
ATOM     19  C   UNL     1      -0.550  -4.644   0.413  0.00  0.00    +0.044 C 
ENDBRANCH   1  17
BRANCH  10  20
ATOM     20  C   UNL     1       4.148  -6.044   4.530  0.00  0.00    -0.003 C 
BRANCH  20  21
ATOM     21  N   UNL     1       3.816  -6.598   5.849  0.00  0.00    +0.391 N 
ATOM     22  H   UNL     1       3.542  -5.851   6.469  0.00  0.00    -0.080 HD
BRANCH  21  23
ATOM     23  C   UNL     1       2.708  -7.553   5.714  0.00  0.00    -0.002 C 
BRANCH  23  24
ATOM     24  C   UNL     1       2.286  -8.029   7.081  0.00  0.00    +0.089 A 
ATOM     25  C   UNL     1       1.346  -7.460   7.856  0.00  0.00    +0.042 A 
ATOM     26  C   UNL     1       1.274  -8.226   9.043  0.00  0.00    +0.041 A 
ATOM     27  C   UNL     1       2.175  -9.218   8.920  0.00  0.00    +0.195 A 
ATOM     28  O   UNL     1       2.780  -9.097   7.728  0.00  0.00    -0.470 OA
ENDBRANCH  23  24
ENDBRANCH  21  23
BRANCH  21  29
ATOM     29  C   UNL     1       4.991  -7.286   6.401  0.00  0.00    -0.046 C 
BRANCH  29  30
ATOM     30  C   UNL     1       6.081  -6.260   6.717  0.00  0.00    +0.095 C 
ATOM     31  C   UNL     1       7.213  -6.940   7.489  0.00  0.00    +0.035 C 
BRANCH  30  32
ATOM     32  O   UNL     1       6.594  -5.719   5.497  0.00  0.00    -0.394 OA
ATOM     33  H   UNL     1       7.338  -5.114   5.618  0.00  0.00    +0.210 HD
ENDBRANCH  30  32
ENDBRANCH  29  30
ENDBRANCH  21  29
ENDBRANCH  20  21
ENDBRANCH  10  20
TORSDOF 8
