REMARK  Name = ZINC40827043
REMARK  11 active torsions:
REMARK  status: ('A' for Active; 'I' for Inactive)
REMARK    1  A    between atoms: C_1  and  C_2
REMARK    2  A    between atoms: C_2  and  C_3
REMARK    3  A    between atoms: C_3  and  O_4
REMARK    4  A    between atoms: O_4  and  C_5
REMARK    5  A    between atoms: C_5  and  C_7
REMARK    6  A    between atoms: C_8  and  C_32
REMARK    7  A    between atoms: N_16  and  N_17
REMARK    8  A    between atoms: C_18  and  C_20
REMARK    9  A    between atoms: C_20  and  C_21
REMARK   10  A    between atoms: C_26  and  C_31
REMARK   11  A    between atoms: C_28  and  C_30
REMARK                            x       y       z     vdW  Elec       q    Type
REMARK                         _______ _______ _______ _____ _____    ______ ____
ROOT
ATOM      1  C   UNL     1      -2.664  -4.056   0.006  0.00  0.00    +0.215 A 
ATOM      2  C   UNL     1      -3.805  -4.811   0.007  0.00  0.00    +0.011 A 
ATOM      3  C   UNL     1      -3.389  -6.147  -0.002  0.00  0.00    +0.042 A 
ATOM      4  C   UNL     1      -2.013  -6.152  -0.007  0.00  0.00    +0.115 A 
ATOM      5  O   UNL     1      -1.598  -4.888  -0.009  0.00  0.00    -0.452 OA
ATOM      6  C   UNL     1      -1.197  -7.419  -0.012  0.00  0.00    +0.075 C 
ATOM      7  C   UNL     1      -2.056  -8.579   0.498  0.00  0.00    +0.014 C 
ATOM      8  C   UNL     1      -3.370  -8.665  -0.286  0.00  0.00    +0.058 C 
ATOM      9  C   UNL     1      -4.173  -7.402  -0.009  0.00  0.00    +0.070 C 
ATOM     10  N   UNL     1      -5.452  -7.424   0.206  0.00  0.00    -0.184 NA
ATOM     11  C   UNL     1      -5.224  -4.306   0.017  0.00  0.00    +0.048 C 
ENDROOT
BRANCH  10  12
ATOM     12  N   UNL     1      -6.145  -8.642   0.188  0.00  0.00    -0.206 N 
ATOM     13  C   UNL     1      -7.474  -8.665   0.411  0.00  0.00    +0.237 C 
ATOM     14  O   UNL     1      -8.070  -7.631   0.628  0.00  0.00    -0.274 OA
ATOM     15  H   UNL     1      -5.668  -9.469   0.015  0.00  0.00    +0.177 HD
BRANCH  13  16
ATOM     16  C   UNL     1      -8.219  -9.975   0.392  0.00  0.00    +0.136 C 
BRANCH  16  17
ATOM     17  C   UNL     1      -9.679  -9.726   0.668  0.00  0.00    +0.007 A 
ATOM     18  C   UNL     1     -10.297  -9.796   1.855  0.00  0.00    +0.200 A 
ATOM     19  O   UNL     1     -11.603  -9.510   1.714  0.00  0.00    -0.463 OA
ATOM     20  C   UNL     1     -11.901  -9.240   0.427  0.00  0.00    +0.136 A 
ATOM     21  C   UNL     1     -10.710  -9.353  -0.309  0.00  0.00    +0.027 A 
ATOM     22  C   UNL     1     -10.711  -9.122  -1.683  0.00  0.00    -0.039 A 
ATOM     23  C   UNL     1     -11.886  -8.778  -2.314  0.00  0.00    +0.007 A 
ATOM     24  C   UNL     1     -13.062  -8.662  -1.587  0.00  0.00    -0.047 A 
ATOM     25  C   UNL     1     -13.076  -8.896  -0.229  0.00  0.00    +0.050 A 
ATOM     26  C   UNL     1     -14.340  -8.285  -2.292  0.00  0.00    +0.044 C 
ATOM     27  C   UNL     1      -9.434  -9.246  -2.474  0.00  0.00    +0.044 C 
ENDBRANCH  16  17
ENDBRANCH  13  16
ENDBRANCH  10  12
BRANCH   1  28
ATOM     28  C   UNL     1      -2.607  -2.591   0.013  0.00  0.00    +0.375 C 
ATOM     29  O   UNL     1      -3.636  -1.943   0.026  0.00  0.00    -0.241 OA
BRANCH  28  30
ATOM     30  O   UNL     1      -1.414  -1.962   0.005  0.00  0.00    -0.459 OA
BRANCH  30  31
ATOM     31  C   UNL     1      -1.433  -0.534   0.013  0.00  0.00    +0.232 C 
BRANCH  31  33
ATOM     32  C   UNL     1      -0.019   1.526   0.010  0.00  0.00    +0.007 C 
ATOM     33  C   UNL     1       0.002  -0.004   0.002  0.00  0.00    +0.038 C 
ENDBRANCH  31  33
ENDBRANCH  30  31
ENDBRANCH  28  30
ENDBRANCH   1  28
TORSDOF 7
