REMARK  Name = ZINC16847478
REMARK  8 active torsions:
REMARK  status: ('A' for Active; 'I' for Inactive)
REMARK    1  A    between atoms: C_1  and  C_2
REMARK    2  A    between atoms: C_5  and  S_8
REMARK    3  A    between atoms: S_8  and  N_11
REMARK    4  A    between atoms: C_14  and  C_30
REMARK    5  A    between atoms: C_15  and  N_17
REMARK    6  A    between atoms: C_23  and  C_29
REMARK    7  A    between atoms: C_25  and  S_27
REMARK    8  A    between atoms: S_27  and  C_28
REMARK                            x       y       z     vdW  Elec       q    Type
REMARK                         _______ _______ _______ _____ _____    ______ ____
ROOT
ATOM      1  N   UNL     1       2.535  -1.365  -0.029  0.00  0.00    -0.194 N 
ATOM      2  C   UNL     1       1.779  -0.201  -0.016  0.00  0.00    +0.179 A 
ATOM      3  N   UNL     1       2.179   1.058  -0.013  0.00  0.00    -0.227 NA
ATOM      4  C   UNL     1       1.311   2.054   0.001  0.00  0.00    +0.069 A 
ATOM      5  C   UNL     1      -0.022   1.784   0.012  0.00  0.00    +0.097 A 
ATOM      6  S   UNL     1       0.002  -0.004   0.002  0.00  0.00    -0.036 S 
ATOM      7  C   UNL     1       1.795   3.481   0.004  0.00  0.00    +0.068 C 
ATOM      8  H   UNL     1       3.504  -1.313  -0.039  0.00  0.00    +0.176 HD
ENDROOT
BRANCH   5   9
ATOM      9  N   UNL     1      -1.113   2.664   0.022  0.00  0.00    -0.262 N 
ATOM     10  C   UNL     1      -2.370   2.178   0.026  0.00  0.00    +0.311 C 
ATOM     11  O   UNL     1      -2.558   0.977   0.021  0.00  0.00    -0.252 OA
ATOM     12  N   UNL     1      -3.419   3.024   0.036  0.00  0.00    -0.238 N 
ATOM     13  C   UNL     1      -4.715   2.524   0.041  0.00  0.00    +0.224 A 
ATOM     14  N   UNL     1      -5.733   3.371   0.050  0.00  0.00    -0.219 NA
ATOM     15  C   UNL     1      -6.984   2.932   0.054  0.00  0.00    +0.044 A 
ATOM     16  C   UNL     1      -7.223   1.572   0.048  0.00  0.00    +0.058 A 
ATOM     17  C   UNL     1      -6.128   0.704   0.038  0.00  0.00    +0.102 A 
ATOM     18  N   UNL     1      -4.900   1.214   0.029  0.00  0.00    -0.208 NA
ATOM     19  C   UNL     1      -8.132   3.907   0.066  0.00  0.00    +0.066 C 
ATOM     20  H   UNL     1      -0.963   3.622   0.026  0.00  0.00    +0.157 HD
ATOM     21  H   UNL     1      -3.269   3.983   0.040  0.00  0.00    +0.159 HD
BRANCH  17  22
ATOM     22  S   UNL     1      -6.372  -1.042   0.029  0.00  0.00    -0.109 S 
ATOM     23  C   UNL     1      -4.650  -1.599   0.018  0.00  0.00    +0.091 C 
ENDBRANCH  17  22
ENDBRANCH   5   9
BRANCH   1  24
ATOM     24  S   UNL     1       1.784  -2.840  -0.030  0.00  0.00    +0.074 S 
ATOM     25  O   UNL     1       2.813  -3.820  -0.072  0.00  0.00    -0.150 OA
ATOM     26  O   UNL     1       0.812  -2.801   1.006  0.00  0.00    -0.150 OA
BRANCH  24  31
ATOM     27  C   UNL     1      -1.248  -3.299  -5.226  0.00  0.00    +0.044 C 
ATOM     28  C   UNL     1      -0.491  -3.185  -3.928  0.00  0.00    -0.050 A 
ATOM     29  C   UNL     1       0.819  -3.621  -3.851  0.00  0.00    +0.005 A 
ATOM     30  C   UNL     1       1.513  -3.516  -2.660  0.00  0.00    +0.029 A 
ATOM     31  C   UNL     1       0.899  -2.974  -1.547  0.00  0.00    +0.109 A 
ATOM     32  C   UNL     1      -0.412  -2.542  -1.623  0.00  0.00    +0.029 A 
ATOM     33  C   UNL     1      -1.105  -2.643  -2.815  0.00  0.00    +0.005 A 
ENDBRANCH  24  31
ENDBRANCH   1  24
TORSDOF 4
