REMARK  Name = ZINC65314498
REMARK  9 active torsions:
REMARK  status: ('A' for Active; 'I' for Inactive)
REMARK    1  A    between atoms: C_1  and  C_2
REMARK    2  A    between atoms: C_2  and  O_3
REMARK    3  A    between atoms: O_3  and  C_4
REMARK    4  A    between atoms: N_13  and  C_14
REMARK    5  A    between atoms: C_14  and  C_16
REMARK    6  A    between atoms: C_18  and  O_24
REMARK    7  A    between atoms: C_20  and  O_22
REMARK    8  A    between atoms: O_22  and  C_23
REMARK    9  A    between atoms: O_24  and  C_25
REMARK                            x       y       z     vdW  Elec       q    Type
REMARK                         _______ _______ _______ _____ _____    ______ ____
ROOT
ATOM      1  C   UNL     1       0.970  -1.795  -1.240  0.00  0.00    +0.203 A 
ATOM      2  C   UNL     1       1.684  -2.279  -2.286  0.00  0.00    +0.066 A 
ATOM      3  C   UNL     1       1.912  -3.658  -2.415  0.00  0.00    +0.009 A 
ATOM      4  C   UNL     1       1.415  -4.516  -1.487  0.00  0.00    +0.049 A 
ATOM      5  C   UNL     1       0.671  -4.007  -0.396  0.00  0.00    +0.163 A 
ATOM      6  N   UNL     1       0.465  -2.646  -0.288  0.00  0.00    -0.233 N 
ATOM      7  C   UNL     1      -0.268  -2.419   0.842  0.00  0.00    +0.225 A 
ATOM      8  N   UNL     1      -0.504  -3.612   1.422  0.00  0.00    -0.246 N 
ATOM      9  N   UNL     1       0.088  -4.599   0.623  0.00  0.00    -0.153 NA
ATOM     10  N   UNL     1      -0.675  -1.231   1.291  0.00  0.00    -0.141 NA
ATOM     11  H   UNL     1      -1.002  -3.761   2.241  0.00  0.00    +0.192 HD
ENDROOT
BRANCH  10  12
ATOM     12  C   UNL     1      -1.481  -1.159   2.351  0.00  0.00    +0.270 C 
ATOM     13  O   UNL     1      -1.768  -2.171   2.969  0.00  0.00    -0.268 OA
BRANCH  12  14
ATOM     14  C   UNL     1      -2.028   0.150   2.779  0.00  0.00    +0.046 A 
ATOM     15  C   UNL     1      -1.793   1.290   2.011  0.00  0.00    +0.059 A 
ATOM     16  C   UNL     1      -2.306   2.512   2.414  0.00  0.00    +0.124 A 
ATOM     17  C   UNL     1      -3.051   2.603   3.580  0.00  0.00    +0.091 A 
ATOM     18  C   UNL     1      -3.287   1.471   4.347  0.00  0.00    +0.124 A 
ATOM     19  C   UNL     1      -2.783   0.244   3.947  0.00  0.00    +0.059 A 
BRANCH  18  20
ATOM     20  O   UNL     1      -4.017   1.565   5.489  0.00  0.00    -0.495 OA
ATOM     21  C   UNL     1      -4.511   2.859   5.839  0.00  0.00    +0.277 C 
ENDBRANCH  18  20
BRANCH  16  22
ATOM     22  O   UNL     1      -2.077   3.624   1.666  0.00  0.00    -0.495 OA
ATOM     23  C   UNL     1      -2.636   4.851   2.141  0.00  0.00    +0.277 C 
ENDBRANCH  16  22
ENDBRANCH  12  14
ENDBRANCH  10  12
BRANCH   1  24
ATOM     24  O   UNL     1       0.759  -0.463  -1.129  0.00  0.00    -0.477 OA
BRANCH  24  26
ATOM     25  C   UNL     1       0.999   1.831  -1.853  0.00  0.00    +0.048 C 
ATOM     26  C   UNL     1       1.221   0.358  -2.204  0.00  0.00    +0.227 C 
ENDBRANCH  24  26
ENDBRANCH   1  24
TORSDOF 6
