REMARK  Name = ZINC22023508
REMARK  10 active torsions:
REMARK  status: ('A' for Active; 'I' for Inactive)
REMARK    1  A    between atoms: C_1  and  C_2
REMARK    2  A    between atoms: C_3  and  C_29
REMARK    3  A    between atoms: C_4  and  C_28
REMARK    4  A    between atoms: C_5  and  S_10
REMARK    5  A    between atoms: C_6  and  C_9
REMARK    6  A    between atoms: C_7  and  C_8
REMARK    7  A    between atoms: S_10  and  N_13
REMARK    8  A    between atoms: C_17  and  S_24
REMARK    9  A    between atoms: C_21  and  C_23
REMARK   10  A    between atoms: S_24  and  N_27
REMARK                            x       y       z     vdW  Elec       q    Type
REMARK                         _______ _______ _______ _____ _____    ______ ____
ROOT
ATOM      1  N   UNL     1      -2.009   5.830   3.258  0.00  0.00    -0.200 N 
ATOM      2  C   UNL     1      -0.819   6.537   3.437  0.00  0.00    +0.055 A 
ATOM      3  C   UNL     1       0.249   6.269   4.296  0.00  0.00    +0.027 A 
ATOM      4  C   UNL     1       1.347   7.103   4.320  0.00  0.00    +0.030 A 
ATOM      5  C   UNL     1       1.399   8.211   3.495  0.00  0.00    +0.105 A 
ATOM      6  C   UNL     1       0.349   8.478   2.636  0.00  0.00    +0.034 A 
ATOM      7  C   UNL     1      -0.756   7.649   2.611  0.00  0.00    -0.021 A 
ATOM      8  C   UNL     1      -2.027   7.714   1.795  0.00  0.00    +0.061 C 
ATOM      9  C   UNL     1      -2.840   6.490   2.248  0.00  0.00    +0.099 C 
ATOM     10  C   UNL     1      -4.170   6.934   2.862  0.00  0.00    +0.030 C 
ENDROOT
BRANCH   1  11
ATOM     11  S   UNL     1      -2.424   4.450   4.074  0.00  0.00    +0.075 S 
ATOM     12  O   UNL     1      -3.843   4.374   4.049  0.00  0.00    -0.150 OA
ATOM     13  O   UNL     1      -1.683   4.456   5.286  0.00  0.00    -0.150 OA
BRANCH  11  18
ATOM     14  C   UNL     1      -0.392  -0.217   0.834  0.00  0.00    +0.044 C 
ATOM     15  C   UNL     1      -0.900   0.949   1.643  0.00  0.00    -0.044 A 
ATOM     16  C   UNL     1      -2.050   1.611   1.256  0.00  0.00    -0.043 A 
ATOM     17  C   UNL     1      -2.518   2.677   2.001  0.00  0.00    -0.020 A 
ATOM     18  C   UNL     1      -1.831   3.087   3.128  0.00  0.00    +0.115 A 
ATOM     19  C   UNL     1      -0.677   2.429   3.512  0.00  0.00    -0.020 A 
ATOM     20  C   UNL     1      -0.212   1.359   2.770  0.00  0.00    -0.043 A 
ATOM     21  C   UNL     1       1.045   0.642   3.188  0.00  0.00    +0.044 C 
ATOM     22  C   UNL     1       0.072   2.876   4.740  0.00  0.00    +0.046 C 
ATOM     23  C   UNL     1      -3.775   3.395   1.581  0.00  0.00    +0.046 C 
ATOM     24  C   UNL     1      -2.796   1.167   0.024  0.00  0.00    +0.044 C 
ENDBRANCH  11  18
ENDBRANCH   1  11
BRANCH   5  25
ATOM     25  S   UNL     1       2.804   9.273   3.529  0.00  0.00    +0.056 S 
ATOM     26  O   UNL     1       2.367  10.540   3.056  0.00  0.00    -0.153 OA
ATOM     27  O   UNL     1       3.411   9.103   4.802  0.00  0.00    -0.153 OA
BRANCH  25  28
ATOM     28  N   UNL     1       3.881   8.696   2.411  0.00  0.00    -0.204 NA
ATOM     29  H   UNL     1       4.777   9.335   2.401  0.00  0.00    +0.144 HD
ATOM     30  H   UNL     1       3.414   8.704   1.415  0.00  0.00    +0.144 HD
ENDBRANCH  25  28
ENDBRANCH   5  25
TORSDOF 4
