REMARK  Name = ZINC05451648
REMARK  6 active torsions:
REMARK  status: ('A' for Active; 'I' for Inactive)
REMARK    1  A    between atoms: C_1  and  C_2
REMARK    2  A    between atoms: C_2  and  C_3
REMARK    3  A    between atoms: C_2  and  N_4
REMARK    4  A    between atoms: N_4  and  C_5
REMARK    5  A    between atoms: C_7  and  N_22
REMARK    6  A    between atoms: C_8  and  N_21
REMARK                            x       y       z     vdW  Elec       q    Type
REMARK                         _______ _______ _______ _____ _____    ______ ____
ROOT
ATOM      1  C   UNL     1      -1.653  -1.767  -0.503  0.00  0.00    +0.041 A 
ATOM      2  C   UNL     1      -0.707  -2.428  -1.286  0.00  0.00    +0.048 A 
ATOM      3  C   UNL     1      -0.973  -3.682  -1.798  0.00  0.00    +0.053 A 
ATOM      4  C   UNL     1      -2.206  -4.312  -1.536  0.00  0.00    +0.058 A 
ATOM      5  C   UNL     1      -3.160  -3.664  -0.753  0.00  0.00    +0.057 A 
ATOM      6  C   UNL     1      -2.881  -2.380  -0.226  0.00  0.00    +0.056 A 
ATOM      7  C   UNL     1      -3.884  -1.701   0.603  0.00  0.00    +0.196 C 
ATOM      8  O   UNL     1      -3.776  -0.514   0.851  0.00  0.00    -0.287 OA
ATOM      9  C   UNL     1      -5.028  -2.474   1.133  0.00  0.00    +0.033 A 
ATOM     10  C   UNL     1      -5.832  -1.950   2.140  0.00  0.00    +0.012 A 
ATOM     11  C   UNL     1      -6.897  -2.687   2.624  0.00  0.00    +0.001 A 
ATOM     12  C   UNL     1      -7.170  -3.944   2.113  0.00  0.00    +0.001 A 
ATOM     13  C   UNL     1      -6.382  -4.480   1.111  0.00  0.00    +0.012 A 
ATOM     14  C   UNL     1      -5.306  -3.752   0.613  0.00  0.00    +0.033 A 
ATOM     15  C   UNL     1      -4.454  -4.304  -0.466  0.00  0.00    +0.196 C 
ATOM     16  O   UNL     1      -4.812  -5.280  -1.097  0.00  0.00    -0.287 OA
ENDROOT
BRANCH   3  17
ATOM     17  N   UNL     1      -0.020  -4.327  -2.579  0.00  0.00    -0.328 N 
ATOM     18  C   UNL     1       0.107  -4.220  -4.039  0.00  0.00    +0.105 C 
ATOM     19  C   UNL     1       1.282  -5.125  -4.465  0.00  0.00    +0.020 C 
ATOM     20  C   UNL     1       1.391  -6.129  -3.287  0.00  0.00    +0.020 C 
ATOM     21  C   UNL     1       1.035  -5.226  -2.077  0.00  0.00    +0.105 C 
ENDBRANCH   3  17
BRANCH   4  22
ATOM     22  N   UNL     1      -2.469  -5.571  -2.053  0.00  0.00    -0.356 N 
ATOM     23  H   UNL     1      -3.203  -6.097  -1.700  0.00  0.00    +0.142 HD
ATOM     24  H   UNL     1      -1.918  -5.926  -2.768  0.00  0.00    +0.142 HD
ENDBRANCH   4  22
BRANCH   1  25
ATOM     25  N   UNL     1      -1.375  -0.508   0.007  0.00  0.00    -0.341 N 
ATOM     26  H   UNL     1      -1.991  -0.090   0.629  0.00  0.00    +0.146 HD
BRANCH  25  28
ATOM     27  C   UNL     1      -0.353   1.700  -0.240  0.00  0.00    +0.027 C 
ATOM     28  C   UNL     1      -0.152   0.191  -0.395  0.00  0.00    +0.064 C 
ATOM     29  C   UNL     1       1.009  -0.263   0.492  0.00  0.00    +0.027 C 
ENDBRANCH  25  28
ENDBRANCH   1  25
TORSDOF 4
