REMARK  Name = ZINC22304525
REMARK  8 active torsions:
REMARK  status: ('A' for Active; 'I' for Inactive)
REMARK    1  A    between atoms: C_1  and  C_2
REMARK    2  A    between atoms: C_6  and  N_8
REMARK    3  A    between atoms: C_9  and  C_32
REMARK    4  A    between atoms: C_10  and  C_21
REMARK    5  A    between atoms: C_11  and  C_16
REMARK    6  A    between atoms: N_23  and  C_24
REMARK    7  A    between atoms: C_29  and  O_30
REMARK    8  A    between atoms: O_30  and  C_31
REMARK                            x       y       z     vdW  Elec       q    Type
REMARK                         _______ _______ _______ _____ _____    ______ ____
ROOT
ATOM      1  N   UNL     1      -0.124  -2.056   2.954  0.00  0.00    -0.255 N 
ATOM      2  C   UNL     1      -0.356  -3.309   2.459  0.00  0.00    +0.025 C 
ATOM      3  C   UNL     1      -0.403  -4.383   3.276  0.00  0.00    +0.056 C 
ATOM      4  C   UNL     1      -0.190  -4.152   4.758  0.00  0.00    +0.140 C 
ATOM      5  N   UNL     1       0.053  -2.765   5.189  0.00  0.00    -0.315 N 
ATOM      6  C   UNL     1       0.075  -1.797   4.253  0.00  0.00    +0.142 C 
ATOM      7  S   UNL     1       0.362  -0.180   4.739  0.00  0.00    -0.018 S 
ATOM      8  C   UNL     1      -0.563  -3.495   0.978  0.00  0.00    +0.062 C 
ATOM      9  H   UNL     1       0.196  -2.554   6.125  0.00  0.00    +0.149 HD
ENDROOT
BRANCH   1  15
ATOM     10  C   UNL     1       2.477   1.271   0.436  0.00  0.00    +0.044 C 
ATOM     11  C   UNL     1       1.159   0.646   0.815  0.00  0.00    -0.049 A 
ATOM     12  C   UNL     1      -0.017   1.131   0.271  0.00  0.00    +0.003 A 
ATOM     13  C   UNL     1      -1.228   0.560   0.616  0.00  0.00    +0.002 A 
ATOM     14  C   UNL     1      -1.267  -0.496   1.505  0.00  0.00    +0.024 A 
ATOM     15  C   UNL     1      -0.088  -0.985   2.053  0.00  0.00    +0.040 A 
ATOM     16  C   UNL     1       1.127  -0.414   1.699  0.00  0.00    +0.027 A 
ENDBRANCH   1  15
BRANCH   4  17
ATOM     17  C   UNL     1      -1.408  -4.658   5.487  0.00  0.00    -0.016 A 
ATOM     18  C   UNL     1      -1.303  -5.699   6.390  0.00  0.00    +0.013 A 
ATOM     19  C   UNL     1      -2.418  -6.130   7.028  0.00  0.00    +0.045 A 
ATOM     20  S   UNL     1      -3.670  -5.051   6.354  0.00  0.00    -0.105 S 
ATOM     21  C   UNL     1      -2.622  -4.095   5.271  0.00  0.00    +0.051 A 
ENDBRANCH   4  17
BRANCH   3  22
ATOM     22  C   UNL     1      -0.644  -5.682   2.764  0.00  0.00    +0.248 C 
ATOM     23  O   UNL     1      -0.923  -5.831   1.588  0.00  0.00    -0.270 OA
ATOM     24  N   UNL     1      -0.566  -6.752   3.579  0.00  0.00    -0.279 N 
ATOM     25  H   UNL     1      -0.408  -6.629   4.528  0.00  0.00    +0.155 HD
BRANCH  24  26
ATOM     26  C   UNL     1      -0.712  -8.043   3.056  0.00  0.00    +0.076 A 
ATOM     27  C   UNL     1      -0.573  -8.261   1.692  0.00  0.00    +0.027 A 
ATOM     28  C   UNL     1      -0.717  -9.536   1.178  0.00  0.00    +0.002 A 
ATOM     29  C   UNL     1      -1.000 -10.596   2.019  0.00  0.00    +0.004 A 
ATOM     30  C   UNL     1      -1.140 -10.387   3.379  0.00  0.00    +0.047 A 
ATOM     31  C   UNL     1      -0.991  -9.113   3.903  0.00  0.00    +0.141 A 
BRANCH  31  32
ATOM     32  O   UNL     1      -1.122  -8.907   5.241  0.00  0.00    -0.493 OA
ATOM     33  C   UNL     1      -1.408 -10.050   6.048  0.00  0.00    +0.277 C 
ENDBRANCH  31  32
ENDBRANCH  24  26
ENDBRANCH   3  22
TORSDOF 5
