REMARK  Name = ZINC42014957
REMARK  4 active torsions:
REMARK  status: ('A' for Active; 'I' for Inactive)
REMARK    1  A    between atoms: C_1  and  C_2
REMARK    2  A    between atoms: C_5  and  N_21
REMARK    3  A    between atoms: C_7  and  C_8
REMARK    4  A    between atoms: N_12  and  C_13
REMARK                            x       y       z     vdW  Elec       q    Type
REMARK                         _______ _______ _______ _____ _____    ______ ____
ROOT
ATOM      1  C   UNL     1       0.255   0.014   2.525  0.00  0.00    +0.187 A 
ATOM      2  N   UNL     1       0.227   1.323   2.671  0.00  0.00    -0.108 NA
ATOM      3  N   UNL     1      -0.067   1.635   3.881  0.00  0.00    -0.022 NA
ATOM      4  N   UNL     1      -0.246   0.575   4.591  0.00  0.00    -0.039 NA
ATOM      5  N   UNL     1      -0.051  -0.526   3.740  0.00  0.00    -0.193 N 
ENDROOT
BRANCH   5   6
ATOM      6  C   UNL     1      -0.146  -1.886   4.068  0.00  0.00    +0.071 A 
ATOM      7  C   UNL     1       0.382  -2.351   5.265  0.00  0.00    +0.029 A 
ATOM      8  C   UNL     1       0.287  -3.691   5.586  0.00  0.00    +0.023 A 
ATOM      9  C   UNL     1      -0.334  -4.570   4.717  0.00  0.00    +0.059 A 
ATOM     10  C   UNL     1      -0.861  -4.109   3.522  0.00  0.00    +0.061 A 
ATOM     11  C   UNL     1      -0.774  -2.768   3.199  0.00  0.00    +0.049 A 
ATOM     12 CL   UNL     1      -1.639  -5.215   2.433  0.00  0.00    -0.082 Cl
ATOM     13 CL   UNL     1      -0.450  -6.254   5.124  0.00  0.00    -0.082 Cl
ENDBRANCH   5   6
BRANCH   1  20
ATOM     14  C   UNL     1      -1.067   0.761   0.065  0.00  0.00    +0.044 C 
ATOM     15  C   UNL     1      -0.078  -0.376   0.087  0.00  0.00    -0.040 A 
ATOM     16  C   UNL     1       0.206  -1.065  -1.075  0.00  0.00    +0.006 A 
ATOM     17  C   UNL     1       1.112  -2.109  -1.060  0.00  0.00    +0.023 A 
ATOM     18  C   UNL     1       1.743  -2.470   0.125  0.00  0.00    +0.025 A 
ATOM     19  C   UNL     1       1.464  -1.783   1.297  0.00  0.00    +0.034 A 
ATOM     20  C   UNL     1       0.554  -0.728   1.280  0.00  0.00    +0.026 A 
BRANCH  18  21
ATOM     21  N   UNL     1       2.658  -3.526   0.136  0.00  0.00    -0.358 N 
ATOM     22  H   UNL     1       2.853  -4.007  -0.684  0.00  0.00    +0.142 HD
ATOM     23  H   UNL     1       3.098  -3.778   0.962  0.00  0.00    +0.142 HD
ENDBRANCH  18  21
ENDBRANCH   1  20
TORSDOF 3
