REMARK  Name = ZINC21046765
REMARK  7 active torsions:
REMARK  status: ('A' for Active; 'I' for Inactive)
REMARK    1  A    between atoms: C_1  and  C_2
REMARK    2  A    between atoms: C_2  and  C_3
REMARK    3  A    between atoms: C_3  and  C_5
REMARK    4  A    between atoms: C_3  and  C_6
REMARK    5  A    between atoms: C_6  and  C_8
REMARK    6  A    between atoms: C_6  and  N_25
REMARK    7  A    between atoms: N_10  and  C_11
REMARK                            x       y       z     vdW  Elec       q    Type
REMARK                         _______ _______ _______ _____ _____    ______ ____
ROOT
ATOM      1  C   UNL     1      -9.298   3.901   2.148  0.00  0.00    +0.238 C 
ATOM      2  O   UNL     1      -9.260   4.966   1.570  0.00  0.00    -0.273 OA
ATOM      3  N   UNL     1      -8.757   2.806   1.578  0.00  0.00    -0.284 N 
ATOM      4  H   UNL     1      -8.856   1.825   2.067  0.00  0.00    +0.155 HD
ENDROOT
BRANCH   3   5
ATOM      5  C   UNL     1      -8.068   2.916   0.363  0.00  0.00    +0.037 A 
ATOM      6  C   UNL     1      -8.498   3.820  -0.599  0.00  0.00    +0.027 A 
ATOM      7  C   UNL     1      -7.821   3.929  -1.798  0.00  0.00    +0.051 A 
ATOM      8  C   UNL     1      -6.711   3.137  -2.044  0.00  0.00    +0.167 A 
ATOM      9  C   UNL     1      -6.276   2.231  -1.080  0.00  0.00    +0.169 A 
ATOM     10  C   UNL     1      -6.955   2.122   0.122  0.00  0.00    +0.073 A 
ATOM     11  O   UNL     1      -5.174   1.579  -1.558  0.00  0.00    -0.447 OA
ATOM     12  C   UNL     1      -4.709   2.374  -2.657  0.00  0.00    +0.254 C 
ATOM     13  O   UNL     1      -5.882   3.053  -3.128  0.00  0.00    -0.448 OA
ATOM     14  C   UNL     1      -4.135   1.483  -3.753  0.00  0.00    +0.093 C 
ATOM     15  C   UNL     1      -3.678   2.349  -4.930  0.00  0.00    +0.008 C 
ATOM     16  C   UNL     1      -2.618   3.342  -4.450  0.00  0.00    +0.000 C 
ATOM     17  C   UNL     1      -3.213   4.242  -3.365  0.00  0.00    +0.008 C 
ATOM     18  C   UNL     1      -3.667   3.383  -2.183  0.00  0.00    +0.093 C 
ENDBRANCH   3   5
BRANCH   1  19
ATOM     19  C   UNL     1      -9.951   3.801   3.502  0.00  0.00    +0.163 C 
BRANCH  19  20
ATOM     20  N   UNL     1     -10.508   5.104   3.873  0.00  0.00    -0.288 N 
ATOM     21  C   UNL     1     -11.817   5.216   4.176  0.00  0.00    +0.298 C 
ATOM     22  O   UNL     1     -12.512   4.221   4.245  0.00  0.00    -0.253 OA
ATOM     23  N   UNL     1     -12.354   6.431   4.402  0.00  0.00    -0.313 N 
ATOM     24  H   UNL     1      -9.858   5.991   3.905  0.00  0.00    +0.151 HD
ATOM     25  H   UNL     1     -13.422   6.523   4.649  0.00  0.00    +0.146 HD
ATOM     26  H   UNL     1     -11.725   7.331   4.340  0.00  0.00    +0.146 HD
ENDBRANCH  19  20
BRANCH  19  27
ATOM     27  C   UNL     1      -8.910   3.377   4.540  0.00  0.00    +0.015 C 
ATOM     28  C   UNL     1      -9.602   3.115   5.879  0.00  0.00    +0.010 C 
BRANCH  27  30
ATOM     29  C   UNL     1      -7.122   4.694   3.395  0.00  0.00    +0.004 C 
ATOM     30  C   UNL     1      -7.876   4.492   4.710  0.00  0.00    +0.002 C 
ENDBRANCH  27  30
ENDBRANCH  19  27
ENDBRANCH   1  19
TORSDOF 5
