REMARK  Name = ZINC09512121
REMARK  9 active torsions:
REMARK  status: ('A' for Active; 'I' for Inactive)
REMARK    1  A    between atoms: C_1  and  N_2
REMARK    2  A    between atoms: C_5  and  C_18
REMARK    3  A    between atoms: C_6  and  N_17
REMARK    4  A    between atoms: N_7  and  C_10
REMARK    5  A    between atoms: C_10  and  C_11
REMARK    6  A    between atoms: C_18  and  C_20
REMARK    7  A    between atoms: C_20  and  N_61
REMARK    8  A    between atoms: N_23  and  C_26
REMARK    9  A    between atoms: C_29  and  N_32
REMARK                            x       y       z     vdW  Elec       q    Type
REMARK                         _______ _______ _______ _____ _____    ______ ____
ROOT
ATOM      1  C   UNL     1       3.669  -0.731   0.002  0.00  0.00    +0.157 C 
ATOM      2  N   UNL     1       2.399  -0.001  -0.002  0.00  0.00    -0.263 N 
ATOM      3  C   UNL     1       2.405   1.348   0.000  0.00  0.00    +0.269 A 
ATOM      4  O   UNL     1       3.455   1.964   0.004  0.00  0.00    -0.267 OA
ATOM      5  C   UNL     1       1.120   2.057  -0.003  0.00  0.00    +0.118 A 
ATOM      6  C   UNL     1      -0.056   1.287  -0.009  0.00  0.00    +0.116 A 
ATOM      7  N   UNL     1       0.047  -0.075  -0.011  0.00  0.00    -0.277 N 
ATOM      8  C   UNL     1       1.242  -0.684  -0.007  0.00  0.00    +0.333 A 
ATOM      9  O   UNL     1       1.280  -1.899  -0.010  0.00  0.00    -0.246 OA
ENDROOT
BRANCH   6  10
ATOM     10  N   UNL     1      -1.277   1.888  -0.018  0.00  0.00    -0.344 N 
ATOM     11  H   UNL     1      -2.081   1.353  -0.104  0.00  0.00    +0.144 HD
ATOM     12  H   UNL     1      -1.343   2.853   0.061  0.00  0.00    +0.144 HD
ENDBRANCH   6  10
BRANCH   5  13
ATOM     13  C   UNL     1       1.066   3.468  -0.002  0.00  0.00    +0.155 C 
ATOM     14  O   UNL     1      -0.003   4.035   0.101  0.00  0.00    -0.294 OA
BRANCH  13  15
ATOM     15  C   UNL     1       2.336   4.270  -0.127  0.00  0.00    +0.003 C 
BRANCH  15  21
ATOM     16  C   UNL     1       1.240   6.092  -1.286  0.00  0.00    -0.059 C 
ATOM     17  C   UNL     1       0.858   7.570  -1.181  0.00  0.00    +0.086 C 
ATOM     18  N   UNL     1       2.077   8.382  -1.062  0.00  0.00    -0.333 N 
ATOM     19  C   UNL     1       2.852   7.992   0.124  0.00  0.00    +0.086 C 
ATOM     20  C   UNL     1       3.234   6.514   0.019  0.00  0.00    -0.059 C 
ATOM     21  N   UNL     1       1.998   5.708  -0.077  0.00  0.00    +0.387 N 
ATOM     22  H   UNL     1       1.419   5.886   0.751  0.00  0.00    -0.081 HD
BRANCH  18  23
ATOM     23  C   UNL     1       1.772   9.744  -1.036  0.00  0.00    +0.030 A 
ATOM     24  C   UNL     1       2.192  10.531   0.029  0.00  0.00    +0.025 A 
ATOM     25  C   UNL     1       1.893  11.880   0.049  0.00  0.00    +0.034 A 
ATOM     26  C   UNL     1       1.166  12.444  -0.984  0.00  0.00    +0.126 A 
ATOM     27  C   UNL     1       0.741  11.662  -2.042  0.00  0.00    +0.034 A 
ATOM     28  C   UNL     1       1.041  10.314  -2.071  0.00  0.00    +0.025 A 
BRANCH  26  29
ATOM     29  N   UNL     1       0.842  13.887  -0.956  0.00  0.00    +0.056 N 
ATOM     30  O   UNL     1       0.202  14.386  -1.864  0.00  0.00    -0.126 OA
ATOM     31  O   UNL     1       1.216  14.578  -0.024  0.00  0.00    -0.126 OA
ENDBRANCH  26  29
ENDBRANCH  18  23
ENDBRANCH  15  21
ENDBRANCH  13  15
ENDBRANCH   5  13
BRANCH   7  32
ATOM     32  C   UNL     1      -1.173  -0.887  -0.016  0.00  0.00    +0.163 C 
BRANCH  32  33
ATOM     33  C   UNL     1      -1.586  -1.163  -1.439  0.00  0.00    -0.028 A 
ATOM     34  C   UNL     1      -2.444  -0.296  -2.090  0.00  0.00    +0.005 A 
ATOM     35  C   UNL     1      -2.819  -0.546  -3.397  0.00  0.00    +0.000 A 
ATOM     36  C   UNL     1      -2.345  -1.669  -4.049  0.00  0.00    +0.000 A 
ATOM     37  C   UNL     1      -1.492  -2.539  -3.396  0.00  0.00    +0.000 A 
ATOM     38  C   UNL     1      -1.112  -2.286  -2.091  0.00  0.00    +0.005 A 
ENDBRANCH  32  33
ENDBRANCH   7  32
TORSDOF 8
