REMARK  Name = ZINC20756704
REMARK  5 active torsions:
REMARK  status: ('A' for Active; 'I' for Inactive)
REMARK    1  A    between atoms: C_1  and  N_2
REMARK    2  A    between atoms: N_2  and  C_3
REMARK    3  A    between atoms: C_9  and  C_11
REMARK    4  A    between atoms: C_18  and  C_27
REMARK    5  A    between atoms: C_30  and  N_33
REMARK                            x       y       z     vdW  Elec       q    Type
REMARK                         _______ _______ _______ _____ _____    ______ ____
ROOT
ATOM      1  C   UNL     1      -4.155   0.909   4.599  0.00  0.00    +0.058 A 
ATOM      2  C   UNL     1      -4.419   2.240   4.924  0.00  0.00    +0.015 A 
ATOM      3  C   UNL     1      -5.106   2.535   6.081  0.00  0.00    +0.001 A 
ATOM      4  C   UNL     1      -5.521   1.520   6.922  0.00  0.00    +0.006 A 
ATOM      5  C   UNL     1      -5.263   0.191   6.621  0.00  0.00    -0.019 A 
ATOM      6  C   UNL     1      -4.580  -0.123   5.458  0.00  0.00    +0.044 A 
ATOM      7  N   UNL     1      -4.293  -1.430   5.096  0.00  0.00    -0.336 N 
ATOM      8  C   UNL     1      -4.215  -2.322   6.253  0.00  0.00    +0.105 C 
ATOM      9  C   UNL     1      -5.538  -2.278   7.020  0.00  0.00    +0.029 C 
ATOM     10  C   UNL     1      -5.741  -0.856   7.584  0.00  0.00    +0.049 C 
ATOM     11  C   UNL     1      -4.908  -0.837   8.845  0.00  0.00    -0.023 C 
ATOM     12  C   UNL     1      -4.685  -2.057   9.265  0.00  0.00    -0.030 C 
ATOM     13  C   UNL     1      -5.346  -3.066   8.347  0.00  0.00    +0.033 C 
ATOM     14  H   UNL     1      -4.131  -1.827   4.083  0.00  0.00    +0.147 HD
ENDROOT
BRANCH   8  15
ATOM     15  C   UNL     1      -3.952  -3.730   5.785  0.00  0.00    -0.027 A 
ATOM     16  C   UNL     1      -4.589  -4.214   4.657  0.00  0.00    +0.008 A 
ATOM     17  C   UNL     1      -4.344  -5.504   4.225  0.00  0.00    +0.033 A 
ATOM     18  C   UNL     1      -3.469  -6.313   4.926  0.00  0.00    +0.126 A 
ATOM     19  C   UNL     1      -2.836  -5.831   6.056  0.00  0.00    +0.033 A 
ATOM     20  C   UNL     1      -3.078  -4.540   6.486  0.00  0.00    +0.008 A 
BRANCH  18  21
ATOM     21  N   UNL     1      -3.211  -7.696   4.466  0.00  0.00    +0.056 N 
ATOM     22  O   UNL     1      -2.440  -8.409   5.083  0.00  0.00    -0.126 OA
ATOM     23  O   UNL     1      -3.768  -8.121   3.470  0.00  0.00    -0.126 OA
ENDBRANCH  18  21
ENDBRANCH   8  15
BRANCH   1  26
ATOM     24  C   UNL     1      -1.789   2.293   3.940  0.00  0.00    +0.132 C 
ATOM     25  N   UNL     1      -2.271   1.216   3.071  0.00  0.00    -0.297 N 
ATOM     26  C   UNL     1      -3.426   0.584   3.359  0.00  0.00    +0.248 C 
ATOM     27  O   UNL     1      -3.866  -0.255   2.597  0.00  0.00    -0.270 OA
BRANCH  25  28
ATOM     28  C   UNL     1      -1.498   0.827   1.889  0.00  0.00    +0.076 C 
ATOM     29  C   UNL     1      -0.107   0.358   2.321  0.00  0.00    +0.022 C 
ATOM     30  C   UNL     1       0.700  -0.049   1.086  0.00  0.00    +0.002 C 
ATOM     31  C   UNL     1       0.835   1.152   0.147  0.00  0.00    +0.000 C 
ATOM     32  C   UNL     1      -0.556   1.620  -0.285  0.00  0.00    +0.002 C 
ATOM     33  C   UNL     1      -1.363   2.027   0.950  0.00  0.00    +0.022 C 
ENDBRANCH  25  28
ENDBRANCH   1  26
TORSDOF 4
