REMARK  Name = ZINC09243769
REMARK  8 active torsions:
REMARK  status: ('A' for Active; 'I' for Inactive)
REMARK    1  A    between atoms: C_1  and  C_2
REMARK    2  A    between atoms: C_4  and  O_35
REMARK    3  A    between atoms: C_5  and  C_9
REMARK    4  A    between atoms: N_17  and  C_28
REMARK    5  A    between atoms: C_18  and  C_20
REMARK    6  A    between atoms: C_23  and  S_26
REMARK    7  A    between atoms: S_26  and  C_27
REMARK    8  A    between atoms: C_28  and  C_29
REMARK                            x       y       z     vdW  Elec       q    Type
REMARK                         _______ _______ _______ _____ _____    ______ ____
ROOT
ATOM      1  C   UNL     1       0.226  -4.519  -0.100  0.00  0.00    +0.102 A 
ATOM      2  C   UNL     1       0.247  -5.237   1.101  0.00  0.00    +0.035 A 
ATOM      3  C   UNL     1       0.197  -6.570   0.744  0.00  0.00    +0.126 A 
ATOM      4  N   UNL     1       0.149  -6.596  -0.621  0.00  0.00    -0.272 N 
ATOM      5  H   UNL     1       0.107  -7.400  -1.162  0.00  0.00    +0.189 HD
ATOM      6  N   UNL     1       0.162  -5.396  -1.082  0.00  0.00    -0.173 NA
ATOM      7  C   UNL     1       0.215  -7.382   1.966  0.00  0.00    +0.266 C 
ATOM      8  O   UNL     1       0.182  -8.597   1.993  0.00  0.00    -0.268 OA
ATOM      9  N   UNL     1       0.275  -6.591   3.053  0.00  0.00    -0.281 N 
ATOM     10  C   UNL     1       0.299  -5.193   2.604  0.00  0.00    +0.142 C 
ENDROOT
BRANCH   1  15
ATOM     11  C   UNL     1       0.366   1.216  -0.650  0.00  0.00    +0.045 C 
ATOM     12  C   UNL     1       0.332  -0.283  -0.508  0.00  0.00    -0.029 A 
ATOM     13  C   UNL     1       1.149  -1.069  -1.298  0.00  0.00    +0.050 A 
ATOM     14  C   UNL     1       1.121  -2.448  -1.172  0.00  0.00    +0.126 A 
ATOM     15  C   UNL     1       0.263  -3.042  -0.242  0.00  0.00    +0.045 A 
ATOM     16  C   UNL     1      -0.556  -2.243   0.551  0.00  0.00    +0.034 A 
ATOM     17  C   UNL     1      -0.515  -0.868   0.418  0.00  0.00    +0.045 A 
ATOM     18 CL   UNL     1      -1.532   0.128   1.411  0.00  0.00    -0.083 Cl
BRANCH  14  19
ATOM     19  O   UNL     1       1.924  -3.221  -1.949  0.00  0.00    -0.506 OA
ATOM     20  H   UNL     1       2.791  -3.401  -1.562  0.00  0.00    +0.292 HD
ENDBRANCH  14  19
ENDBRANCH   1  15
BRANCH  10  21
ATOM     21  C   UNL     1       1.571  -4.524   3.059  0.00  0.00    -0.022 A 
ATOM     22  C   UNL     1       2.789  -5.144   2.850  0.00  0.00    +0.007 A 
ATOM     23  C   UNL     1       3.957  -4.534   3.266  0.00  0.00    +0.015 A 
ATOM     24  C   UNL     1       3.906  -3.296   3.895  0.00  0.00    +0.008 A 
ATOM     25  C   UNL     1       2.680  -2.676   4.103  0.00  0.00    +0.015 A 
ATOM     26  C   UNL     1       1.517  -3.289   3.680  0.00  0.00    +0.007 A 
BRANCH  24  27
ATOM     27  S   UNL     1       5.392  -2.515   4.428  0.00  0.00    -0.129 S 
ATOM     28  C   UNL     1       4.828  -0.961   5.174  0.00  0.00    +0.090 C 
ENDBRANCH  24  27
ENDBRANCH  10  21
BRANCH   9  29
ATOM     29  C   UNL     1       0.308  -7.046   4.445  0.00  0.00    +0.145 C 
BRANCH  29  30
ATOM     30  C   UNL     1       1.740  -7.242   4.874  0.00  0.00    -0.012 A 
ATOM     31  C   UNL     1       2.364  -8.468   4.699  0.00  0.00    +0.008 A 
ATOM     32  C   UNL     1       3.681  -8.603   5.109  0.00  0.00    +0.020 A 
ATOM     33  C   UNL     1       4.324  -7.518   5.675  0.00  0.00    +0.111 A 
ATOM     34  N   UNL     1       3.699  -6.367   5.827  0.00  0.00    -0.263 NA
ATOM     35  C   UNL     1       2.449  -6.201   5.443  0.00  0.00    +0.115 A 
ENDBRANCH  29  30
ENDBRANCH   9  29
TORSDOF 6
