REMARK  Name = ZINC11591727
REMARK  8 active torsions:
REMARK  status: ('A' for Active; 'I' for Inactive)
REMARK    1  A    between atoms: C_1  and  C_2
REMARK    2  A    between atoms: C_2  and  C_4
REMARK    3  A    between atoms: C_2  and  N_14
REMARK    4  A    between atoms: C_15  and  C_17
REMARK    5  A    between atoms: C_17  and  S_18
REMARK    6  A    between atoms: S_18  and  C_19
REMARK    7  A    between atoms: C_22  and  C_25
REMARK    8  A    between atoms: N_23  and  N_24
REMARK                            x       y       z     vdW  Elec       q    Type
REMARK                         _______ _______ _______ _____ _____    ______ ____
ROOT
ATOM      1  N   UNL     1       2.103   7.945   0.911  0.00  0.00    -0.308 N 
ATOM      2  C   UNL     1       1.992   9.163   1.478  0.00  0.00    +0.224 C 
ATOM      3  O   UNL     1       1.014   9.846   1.259  0.00  0.00    -0.275 OA
ATOM      4  H   UNL     1       2.885   7.399   1.086  0.00  0.00    +0.149 HD
ENDROOT
BRANCH   1   6
ATOM      5  C   UNL     1       1.274   7.968  -1.390  0.00  0.00    +0.033 C 
ATOM      6  C   UNL     1       1.044   7.447   0.030  0.00  0.00    +0.100 C 
BRANCH   6   7
ATOM      7  C   UNL     1       1.064   5.940   0.022  0.00  0.00    -0.027 A 
ATOM      8  C   UNL     1       2.286   5.270   0.008  0.00  0.00    +0.006 A 
ATOM      9  C   UNL     1       2.340   3.910   0.001  0.00  0.00    +0.009 A 
ATOM     10  C   UNL     1       1.147   3.167   0.008  0.00  0.00    -0.018 A 
ATOM     11  C   UNL     1       1.163   1.762   0.000  0.00  0.00    +0.008 A 
ATOM     12  C   UNL     1      -0.013   1.076   0.008  0.00  0.00    +0.001 A 
ATOM     13  C   UNL     1      -1.235   1.746   0.017  0.00  0.00    +0.001 A 
ATOM     14  C   UNL     1      -1.288   3.106   0.031  0.00  0.00    +0.008 A 
ATOM     15  C   UNL     1      -0.096   3.849   0.023  0.00  0.00    -0.018 A 
ATOM     16  C   UNL     1      -0.111   5.254   0.030  0.00  0.00    +0.014 A 
ENDBRANCH   6   7
ENDBRANCH   1   6
BRANCH   2  17
ATOM     17  C   UNL     1       3.081   9.675   2.384  0.00  0.00    +0.173 C 
BRANCH  17  18
ATOM     18  S   UNL     1       2.642  11.326   2.983  0.00  0.00    -0.075 S 
BRANCH  18  19
ATOM     19  C   UNL     1       4.048  11.671   3.987  0.00  0.00    +0.209 A 
ATOM     20  N   UNL     1       5.076  10.879   4.186  0.00  0.00    -0.121 NA
ATOM     21  N   UNL     1       5.924  11.442   4.971  0.00  0.00    -0.126 NA
ATOM     22  C   UNL     1       5.484  12.629   5.329  0.00  0.00    +0.188 A 
ATOM     23  N   UNL     1       4.268  12.811   4.709  0.00  0.00    -0.223 N 
BRANCH  22  24
ATOM     24  C   UNL     1       6.163  13.581   6.222  0.00  0.00    +0.058 A 
ATOM     25  C   UNL     1       7.210  13.364   7.082  0.00  0.00    +0.019 A 
ATOM     26  C   UNL     1       7.687  14.422   7.823  0.00  0.00    +0.008 A 
ATOM     27  C   UNL     1       7.102  15.641   7.690  0.00  0.00    +0.046 A 
ATOM     28  S   UNL     1       5.834  15.317   6.475  0.00  0.00    -0.093 S 
ENDBRANCH  22  24
BRANCH  23  29
ATOM     29  N   UNL     1       3.452  13.903   4.797  0.00  0.00    -0.295 N 
ATOM     30  H   UNL     1       2.800  13.807   5.561  0.00  0.00    +0.163 HD
ATOM     31  H   UNL     1       3.992  14.752   4.886  0.00  0.00    +0.163 HD
ENDBRANCH  23  29
ENDBRANCH  18  19
ENDBRANCH  17  18
ENDBRANCH   2  17
TORSDOF 7
