REMARK  Name = ZINC14988957
REMARK  7 active torsions:
REMARK  status: ('A' for Active; 'I' for Inactive)
REMARK    1  A    between atoms: C_3  and  C_6
REMARK    2  A    between atoms: C_6  and  N_7
REMARK    3  A    between atoms: C_8  and  C_10
REMARK    4  A    between atoms: C_14  and  C_19
REMARK    5  A    between atoms: C_19  and  O_32
REMARK    6  A    between atoms: C_24  and  C_25
REMARK    7  A    between atoms: C_24  and  N_62
REMARK                            x       y       z     vdW  Elec       q    Type
REMARK                         _______ _______ _______ _____ _____    ______ ____
ROOT
ATOM      1  C   UNL     1      -0.264   3.760   0.124  0.00  0.00    +0.190 A 
ATOM      2  C   UNL     1       1.091   3.669   0.129  0.00  0.00    +0.063 A 
ATOM      3  C   UNL     1       1.401   2.240   0.086  0.00  0.00    +0.021 A 
ATOM      4  C   UNL     1       2.586   1.501   0.069  0.00  0.00    +0.018 A 
ATOM      5  C   UNL     1       2.533   0.136   0.026  0.00  0.00    -0.015 A 
ATOM      6  C   UNL     1       1.309  -0.519  -0.002  0.00  0.00    +0.010 A 
ATOM      7  C   UNL     1       0.129   0.192   0.013  0.00  0.00    +0.047 A 
ATOM      8  C   UNL     1       0.158   1.581   0.057  0.00  0.00    +0.136 A 
ATOM      9  O   UNL     1      -0.804   2.524   0.076  0.00  0.00    -0.450 OA
ENDROOT
BRANCH   5  10
ATOM     10  C   UNL     1       3.810  -0.662   0.009  0.00  0.00    +0.088 C 
ATOM     11  C   UNL     1       4.251  -0.891  -1.440  0.00  0.00    +0.021 C 
ATOM     12  C   UNL     1       5.514  -1.755  -1.453  0.00  0.00    -0.076 C 
ATOM     13  C   UNL     1       4.860  -2.847   0.608  0.00  0.00    -0.076 C 
ATOM     14  C   UNL     1       3.576  -2.017   0.683  0.00  0.00    +0.021 C 
ATOM     15  N   UNL     1       5.216  -3.053  -0.812  0.00  0.00    +0.380 N 
ATOM     16  H   UNL     1       4.421  -3.488  -1.295  0.00  0.00    -0.082 HD
BRANCH  10  17
ATOM     17  O   UNL     1       4.830   0.051   0.711  0.00  0.00    -0.384 OA
ATOM     18  H   UNL     1       5.031   0.920   0.336  0.00  0.00    +0.211 HD
ENDBRANCH  10  17
BRANCH  15  19
ATOM     19  C   UNL     1       6.388  -3.947  -0.913  0.00  0.00    -0.075 C 
BRANCH  19  20
ATOM     20  C   UNL     1       6.811  -4.048  -2.380  0.00  0.00    -0.024 C 
ATOM     21  C   UNL     1       8.026  -4.978  -2.503  0.00  0.00    +0.006 C 
ATOM     22  C   UNL     1       8.536  -4.919  -3.945  0.00  0.00    +0.027 C 
ATOM     23  C   UNL     1       7.398  -5.115  -4.904  0.00  0.00    -0.031 C 
ATOM     24  C   UNL     1       6.150  -4.987  -4.584  0.00  0.00    -0.031 C 
ATOM     25  C   UNL     1       5.666  -4.636  -3.207  0.00  0.00    +0.028 C 
ENDBRANCH  19  20
ENDBRANCH  15  19
ENDBRANCH   5  10
BRANCH   1  27
ATOM     26  N   UNL     1      -2.375   4.985   0.149  0.00  0.00    -0.304 N 
ATOM     27  C   UNL     1      -1.028   5.015   0.158  0.00  0.00    +0.280 C 
ATOM     28  O   UNL     1      -0.444   6.082   0.195  0.00  0.00    -0.267 OA
ATOM     29  H   UNL     1      -2.841   4.135   0.120  0.00  0.00    +0.149 HD
BRANCH  26  30
ATOM     30  C   UNL     1      -3.136   6.237   0.183  0.00  0.00    +0.147 C 
BRANCH  30  33
ATOM     31  C   UNL     1      -6.784   5.449   0.950  0.00  0.00    +0.008 A 
ATOM     32  C   UNL     1      -5.452   5.715   1.207  0.00  0.00    +0.013 A 
ATOM     33  C   UNL     1      -4.611   5.928   0.165  0.00  0.00    +0.007 A 
ATOM     34  S   UNL     1      -5.703   5.741  -1.235  0.00  0.00    -0.100 S 
ATOM     35  C   UNL     1      -7.207   5.399  -0.337  0.00  0.00    +0.045 A 
ENDBRANCH  30  33
ENDBRANCH  26  30
ENDBRANCH   1  27
TORSDOF 7
