REMARK  Name = ZINC29635600
REMARK  6 active torsions:
REMARK  status: ('A' for Active; 'I' for Inactive)
REMARK    1  A    between atoms: C_5  and  N_7
REMARK    2  A    between atoms: N_10  and  C_13
REMARK    3  A    between atoms: C_13  and  C_14
REMARK    4  A    between atoms: N_19  and  C_20
REMARK    5  A    between atoms: C_20  and  C_21
REMARK    6  A    between atoms: C_21  and  C_22
REMARK                            x       y       z     vdW  Elec       q    Type
REMARK                         _______ _______ _______ _____ _____    ______ ____
ROOT
ATOM      1  C   UNL     1       8.345  -0.791  -3.857  0.00  0.00    +0.019 C 
ENDROOT
BRANCH   1   2
ATOM      2  C   UNL     1       6.926  -0.283  -3.841  0.00  0.00    +0.204 C 
ATOM      3  O   UNL     1       6.346  -0.073  -4.885  0.00  0.00    -0.277 OA
ATOM      4  N   UNL     1       6.303  -0.062  -2.667  0.00  0.00    -0.242 N 
ATOM      5  C   UNL     1       5.034   0.392  -2.653  0.00  0.00    +0.306 C 
ATOM      6  O   UNL     1       4.452   0.603  -3.699  0.00  0.00    -0.252 OA
ATOM      7  N   UNL     1       4.410   0.614  -1.478  0.00  0.00    -0.299 N 
ATOM      8  H   UNL     1       6.830  -0.252  -1.720  0.00  0.00    +0.159 HD
ATOM      9  H   UNL     1       4.937   0.423  -0.532  0.00  0.00    +0.150 HD
BRANCH   7  10
ATOM     10  C   UNL     1       3.031   1.107  -1.463  0.00  0.00    +0.111 C 
BRANCH  10  11
ATOM     11  C   UNL     1       2.565   1.272  -0.015  0.00  0.00    +0.061 C 
BRANCH  11  12
ATOM     12  C   UNL     1       1.146   1.780   0.001  0.00  0.00    -0.009 A 
ATOM     13  C   UNL     1      -0.013   1.076   0.008  0.00  0.00    +0.011 A 
ATOM     14  C   UNL     1      -1.213   1.761   0.017  0.00  0.00    +0.008 A 
ATOM     15  C   UNL     1      -1.196   3.116   0.030  0.00  0.00    +0.045 A 
ATOM     16  S   UNL     1       0.555   3.464   0.015  0.00  0.00    -0.102 S 
ENDBRANCH  11  12
ENDBRANCH  10  11
ENDBRANCH   7  10
ENDBRANCH   1   2
BRANCH   1  20
ATOM     17  N   UNL     1       9.922  -2.353  -7.451  0.00  0.00    -0.331 N 
ATOM     18  C   UNL     1      10.678  -1.292  -6.772  0.00  0.00    +0.086 C 
ATOM     19  C   UNL     1      10.238  -1.213  -5.308  0.00  0.00    -0.059 C 
ATOM     20  N   UNL     1       8.793  -0.949  -5.247  0.00  0.00    +0.387 N 
ATOM     21  C   UNL     1       8.037  -2.010  -5.927  0.00  0.00    -0.059 C 
ATOM     22  C   UNL     1       8.478  -2.089  -7.390  0.00  0.00    +0.086 C 
ATOM     23  H   UNL     1       8.598  -0.003  -5.773  0.00  0.00    -0.081 HD
BRANCH  17  28
ATOM     24  C   UNL     1      12.087  -2.984 -10.355  0.00  0.00    +0.002 A 
ATOM     25  C   UNL     1      11.194  -2.800 -11.394  0.00  0.00    +0.003 A 
ATOM     26  C   UNL     1       9.878  -2.468 -11.128  0.00  0.00    +0.040 A 
ATOM     27  C   UNL     1       9.451  -2.319  -9.821  0.00  0.00    +0.144 A 
ATOM     28  C   UNL     1      10.348  -2.503  -8.775  0.00  0.00    +0.065 A 
ATOM     29  C   UNL     1      11.670  -2.832  -9.047  0.00  0.00    +0.026 A 
ATOM     30  F   UNL     1       8.166  -1.994  -9.562  0.00  0.00    -0.204 F 
ENDBRANCH  17  28
ENDBRANCH   1  20
TORSDOF 6
