REMARK  Name = ZINC14958750
REMARK  5 active torsions:
REMARK  status: ('A' for Active; 'I' for Inactive)
REMARK    1  A    between atoms: C_1  and  C_2
REMARK    2  A    between atoms: C_8  and  C_22
REMARK    3  A    between atoms: C_9  and  C_11
REMARK    4  A    between atoms: N_13  and  C_14
REMARK    5  A    between atoms: C_14  and  C_15
REMARK                            x       y       z     vdW  Elec       q    Type
REMARK                         _______ _______ _______ _____ _____    ______ ____
ROOT
ATOM      1  C   UNL     1      -2.736   3.613 -11.560  0.00  0.00    +0.044 C 
ATOM      2  C   UNL     1      -2.574   3.428 -10.073  0.00  0.00    -0.050 A 
ATOM      3  C   UNL     1      -3.407   4.112  -9.198  0.00  0.00    +0.007 A 
ATOM      4  C   UNL     1      -3.276   3.957  -7.835  0.00  0.00    +0.047 A 
ATOM      5  C   UNL     1      -2.300   3.108  -7.325  0.00  0.00    +0.136 A 
ATOM      6  C   UNL     1      -1.459   2.417  -8.217  0.00  0.00    +0.024 A 
ATOM      7  C   UNL     1      -1.608   2.588  -9.596  0.00  0.00    +0.015 A 
ATOM      8  C   UNL     1      -0.557   1.627  -7.379  0.00  0.00    +0.008 A 
ATOM      9  C   UNL     1      -0.914   1.885  -6.095  0.00  0.00    +0.193 A 
ATOM     10  O   UNL     1      -1.941   2.761  -6.074  0.00  0.00    -0.450 OA
ATOM     11  C   UNL     1       0.544   0.711  -7.847  0.00  0.00    +0.048 C 
ENDROOT
BRANCH   9  12
ATOM     12  C   UNL     1      -0.276   1.302  -4.906  0.00  0.00    +0.280 C 
ATOM     13  O   UNL     1       0.646   0.519  -5.033  0.00  0.00    -0.267 OA
ATOM     14  N   UNL     1      -0.713   1.635  -3.675  0.00  0.00    -0.306 N 
ATOM     15  H   UNL     1      -1.448   2.260  -3.574  0.00  0.00    +0.149 HD
BRANCH  14  16
ATOM     16  C   UNL     1      -0.076   1.054  -2.490  0.00  0.00    +0.136 C 
BRANCH  16  17
ATOM     17  C   UNL     1      -0.756   1.594  -1.230  0.00  0.00    +0.135 C 
ATOM     18  C   UNL     1      -0.013   1.086   0.008  0.00  0.00    +0.033 C 
ATOM     19  C   UNL     1      -0.732   1.581   1.266  0.00  0.00    +0.005 C 
ATOM     20  C   UNL     1      -2.190   1.107   1.226  0.00  0.00    +0.028 C 
ATOM     21  C   UNL     1      -2.849   1.615  -0.059  0.00  0.00    +0.160 C 
ATOM     22  O   UNL     1      -2.111   1.144  -1.189  0.00  0.00    -0.375 OA
ENDBRANCH  16  17
ENDBRANCH  14  16
ENDBRANCH   9  12
TORSDOF 3
