REMARK  Name = ZINC25573460
REMARK  7 active torsions:
REMARK  status: ('A' for Active; 'I' for Inactive)
REMARK    1  A    between atoms: C_4  and  C_7
REMARK    2  A    between atoms: C_7  and  N_8
REMARK    3  A    between atoms: C_12  and  C_15
REMARK    4  A    between atoms: C_15  and  N_16
REMARK    5  A    between atoms: C_17  and  C_19
REMARK    6  A    between atoms: C_19  and  S_20
REMARK    7  A    between atoms: S_20  and  C_21
REMARK                            x       y       z     vdW  Elec       q    Type
REMARK                         _______ _______ _______ _____ _____    ______ ____
ROOT
ATOM      1  N   UNL     1       1.620   3.656   0.006  0.00  0.00    -0.312 N 
ATOM      2  C   UNL     1       1.391   2.327   0.001  0.00  0.00    +0.223 C 
ATOM      3  O   UNL     1       2.324   1.552  -0.012  0.00  0.00    -0.275 OA
ATOM      4  H   UNL     1       0.774   4.359   0.018  0.00  0.00    +0.149 HD
ENDROOT
BRANCH   1   5
ATOM      5  C   UNL     1       2.994   4.163  -0.004  0.00  0.00    +0.137 C 
BRANCH   5  10
ATOM      6  N   UNL     1       4.383   7.692  -0.076  0.00  0.00    -0.293 NA
ATOM      7  C   UNL     1       3.670   8.143  -1.280  0.00  0.00    +0.113 C 
ATOM      8  C   UNL     1       2.241   7.593  -1.256  0.00  0.00    +0.175 C 
ATOM      9  O   UNL     1       2.286   6.167  -1.157  0.00  0.00    -0.372 OA
ATOM     10  C   UNL     1       2.973   5.693   0.004  0.00  0.00    +0.149 C 
ATOM     11  C   UNL     1       4.409   6.223  -0.007  0.00  0.00    +0.118 C 
BRANCH   6  12
ATOM     12  C   UNL     1       5.743   8.245  -0.032  0.00  0.00    +0.119 C 
BRANCH  12  16
ATOM     13  C   UNL     1       5.540  12.483   0.461  0.00  0.00    +0.000 A 
ATOM     14  C   UNL     1       5.589  11.660   1.571  0.00  0.00    +0.000 A 
ATOM     15  C   UNL     1       5.655  10.289   1.411  0.00  0.00    +0.005 A 
ATOM     16  C   UNL     1       5.671   9.740   0.142  0.00  0.00    -0.033 A 
ATOM     17  C   UNL     1       5.627  10.564  -0.967  0.00  0.00    +0.005 A 
ATOM     18  C   UNL     1       5.557  11.935  -0.807  0.00  0.00    +0.000 A 
ENDBRANCH  12  16
ENDBRANCH   6  12
ENDBRANCH   5  10
ENDBRANCH   1   5
BRANCH   2  19
ATOM     19  C   UNL     1      -0.022   1.806   0.012  0.00  0.00    +0.174 C 
BRANCH  19  20
ATOM     20  S   UNL     1       0.002  -0.004   0.002  0.00  0.00    -0.057 S 
BRANCH  20  21
ATOM     21  C   UNL     1      -1.729  -0.334   0.017  0.00  0.00    +0.274 C 
ATOM     22  N   UNL     1      -2.670   0.567   0.030  0.00  0.00    -0.135 NA
ATOM     23  N   UNL     1      -3.901  -0.104   0.038  0.00  0.00    -0.202 N 
ATOM     24  C   UNL     1      -3.628  -1.422   0.029  0.00  0.00    +0.218 C 
ATOM     25  C   UNL     1      -4.570  -2.468   0.034  0.00  0.00    +0.061 C 
ATOM     26  C   UNL     1      -4.314  -3.850   0.025  0.00  0.00    +0.125 C 
ATOM     27  N   UNL     1      -5.450  -4.507   0.033  0.00  0.00    -0.254 NA
ATOM     28  C   UNL     1      -6.513  -3.684   0.048  0.00  0.00    +0.072 A 
ATOM     29  C   UNL     1      -6.035  -2.352   0.054  0.00  0.00    +0.014 A 
ATOM     30  C   UNL     1      -6.933  -1.288   0.075  0.00  0.00    +0.011 A 
ATOM     31  C   UNL     1      -8.277  -1.537   0.091  0.00  0.00    +0.001 A 
ATOM     32  C   UNL     1      -8.754  -2.842   0.088  0.00  0.00    +0.002 A 
ATOM     33  C   UNL     1      -7.897  -3.904   0.061  0.00  0.00    +0.028 A 
ATOM     34  O   UNL     1      -2.292  -1.558   0.010  0.00  0.00    -0.415 OA
ATOM     35  H   UNL     1      -4.840   0.470   0.050  0.00  0.00    +0.178 HD
ENDBRANCH  20  21
ENDBRANCH  19  20
ENDBRANCH   2  19
TORSDOF 7
