REMARK  Name = ZINC09046353
REMARK  15 active torsions:
REMARK  status: ('A' for Active; 'I' for Inactive)
REMARK    1  A    between atoms: C_1  and  C_2
REMARK    2  A    between atoms: C_2  and  N_65
REMARK    3  A    between atoms: C_3  and  C_4
REMARK    4  A    between atoms: C_3  and  N_65
REMARK    5  A    between atoms: C_5  and  C_6
REMARK    6  A    between atoms: C_5  and  N_65
REMARK    7  A    between atoms: C_6  and  N_7
REMARK    8  A    between atoms: C_8  and  C_24
REMARK    9  A    between atoms: C_11  and  C_12
REMARK   10  A    between atoms: C_11  and  O_19
REMARK   11  A    between atoms: C_15  and  C_18
REMARK   12  A    between atoms: C_28  and  O_32
REMARK   13  A    between atoms: C_29  and  O_30
REMARK   14  A    between atoms: O_30  and  C_31
REMARK   15  A    between atoms: O_32  and  C_33
REMARK                            x       y       z     vdW  Elec       q    Type
REMARK                         _______ _______ _______ _____ _____    ______ ____
ROOT
ATOM      1  N   UNL     1      -6.008   0.843   4.970  0.00  0.00    -0.285 N 
ATOM      2  C   UNL     1      -4.953   1.578   4.266  0.00  0.00    +0.148 C 
ATOM      3  C   UNL     1      -5.484   2.972   4.022  0.00  0.00    +0.071 C 
ATOM      4  C   UNL     1      -4.830   4.009   3.389  0.00  0.00    +0.133 C 
ATOM      5  C   UNL     1      -6.779   2.997   4.569  0.00  0.00    +0.249 C 
ATOM      6  O   UNL     1      -7.535   3.951   4.570  0.00  0.00    -0.282 OA
ATOM      7  C   UNL     1      -7.064   1.656   5.147  0.00  0.00    +0.288 C 
ATOM      8  O   UNL     1      -8.098   1.342   5.699  0.00  0.00    -0.266 OA
ENDROOT
BRANCH   4   9
ATOM      9  C   UNL     1      -5.547   5.263   3.098  0.00  0.00    +0.017 A 
ATOM     10  C   UNL     1      -6.774   5.232   2.428  0.00  0.00    +0.012 A 
ATOM     11  C   UNL     1      -7.440   6.410   2.163  0.00  0.00    +0.004 A 
ATOM     12  C   UNL     1      -6.893   7.621   2.549  0.00  0.00    -0.050 A 
ATOM     13  C   UNL     1      -5.676   7.660   3.208  0.00  0.00    +0.004 A 
ATOM     14  C   UNL     1      -5.000   6.491   3.485  0.00  0.00    +0.012 A 
ATOM     15  C   UNL     1      -7.624   8.904   2.251  0.00  0.00    +0.044 C 
ENDBRANCH   4   9
BRANCH   2  16
ATOM     16  C   UNL     1      -4.643   0.906   2.954  0.00  0.00    +0.023 A 
ATOM     17  C   UNL     1      -5.187   1.397   1.781  0.00  0.00    +0.009 A 
ATOM     18  C   UNL     1      -4.904   0.783   0.575  0.00  0.00    +0.004 A 
ATOM     19  C   UNL     1      -4.072  -0.321   0.536  0.00  0.00    +0.049 A 
ATOM     20  C   UNL     1      -3.529  -0.821   1.708  0.00  0.00    +0.162 A 
ATOM     21  C   UNL     1      -3.813  -0.202   2.922  0.00  0.00    +0.167 A 
BRANCH  21  22
ATOM     22  O   UNL     1      -3.277  -0.685   4.075  0.00  0.00    -0.491 OA
ATOM     23  C   UNL     1      -1.963  -0.240   4.416  0.00  0.00    +0.277 C 
ENDBRANCH  21  22
BRANCH  20  24
ATOM     24  O   UNL     1      -2.715  -1.909   1.672  0.00  0.00    -0.491 OA
ATOM     25  C   UNL     1      -2.467  -2.492   0.390  0.00  0.00    +0.277 C 
ENDBRANCH  20  24
ENDBRANCH   2  16
BRANCH   4  26
ATOM     26  O   UNL     1      -3.534   3.874   3.035  0.00  0.00    -0.506 OA
ATOM     27  H   UNL     1      -3.221   4.713   2.591  0.00  0.00    +0.292 HD
ENDBRANCH   4  26
BRANCH   1  28
ATOM     28  C   UNL     1      -5.926  -0.552   5.409  0.00  0.00    +0.090 C 
BRANCH  28  29
ATOM     29  C   UNL     1      -5.353  -0.607   6.827  0.00  0.00    -0.060 C 
BRANCH  29  30
ATOM     30  N   UNL     1      -5.412  -2.004   7.307  0.00  0.00    +0.380 N 
ATOM     31  H   UNL     1      -6.313  -2.413   7.034  0.00  0.00    -0.082 HD
BRANCH  30  33
ATOM     32  C   UNL     1      -4.537  -4.271   7.030  0.00  0.00    -0.017 C 
ATOM     33  C   UNL     1      -4.322  -2.794   6.697  0.00  0.00    -0.082 C 
ENDBRANCH  30  33
BRANCH  30  34
ATOM     34  C   UNL     1      -5.295  -2.037   8.780  0.00  0.00    -0.082 C 
ATOM     35  C   UNL     1      -6.640  -1.632   9.387  0.00  0.00    -0.017 C 
ENDBRANCH  30  34
ENDBRANCH  29  30
ENDBRANCH  28  29
ENDBRANCH   1  28
TORSDOF 10
