REMARK  Name = ZINC66119332
REMARK  9 active torsions:
REMARK  status: ('A' for Active; 'I' for Inactive)
REMARK    1  A    between atoms: C_1  and  C_2
REMARK    2  A    between atoms: C_2  and  C_3
REMARK    3  A    between atoms: C_2  and  C_4
REMARK    4  A    between atoms: C_2  and  N_5
REMARK    5  A    between atoms: C_6  and  C_8
REMARK    6  A    between atoms: C_8  and  N_9
REMARK    7  A    between atoms: C_16  and  C_19
REMARK    8  A    between atoms: C_19  and  C_20
REMARK    9  A    between atoms: C_20  and  C_21
REMARK                            x       y       z     vdW  Elec       q    Type
REMARK                         _______ _______ _______ _____ _____    ______ ____
ROOT
ATOM      1  N   UNL     1       4.050  -0.107  -2.680  0.00  0.00    -0.291 N 
ATOM      2  C   UNL     1       4.876  -0.420  -3.698  0.00  0.00    +0.303 C 
ATOM      3  O   UNL     1       4.511  -1.196  -4.560  0.00  0.00    -0.253 OA
ATOM      4  N   UNL     1       6.106   0.127  -3.759  0.00  0.00    -0.285 N 
ATOM      5  C   UNL     1       6.606   0.970  -2.665  0.00  0.00    +0.109 C 
ATOM      6  C   UNL     1       7.959   0.423  -2.200  0.00  0.00    +0.019 C 
ATOM      7  C   UNL     1       8.905   0.324  -3.399  0.00  0.00    +0.006 C 
ATOM      8  C   UNL     1       8.322  -0.643  -4.432  0.00  0.00    +0.007 C 
ATOM      9  C   UNL     1       6.975  -0.113  -4.920  0.00  0.00    +0.112 C 
ATOM     10  H   UNL     1       4.365   0.454  -1.954  0.00  0.00    +0.151 HD
ENDROOT
BRANCH   1  11
ATOM     11  C   UNL     1       2.675  -0.615  -2.670  0.00  0.00    +0.201 C 
BRANCH  11  13
ATOM     12  N   UNL     1       0.684  -0.469  -1.210  0.00  0.00    -0.309 N 
ATOM     13  C   UNL     1       1.968  -0.125  -1.433  0.00  0.00    +0.231 C 
ATOM     14  O   UNL     1       2.554   0.580  -0.638  0.00  0.00    -0.274 OA
ATOM     15  H   UNL     1       0.215  -1.032  -1.845  0.00  0.00    +0.149 HD
BRANCH  12  17
ATOM     16  C   UNL     1      -0.025   1.538  -0.005  0.00  0.00    +0.031 C 
ATOM     17  C   UNL     1      -0.004   0.008  -0.007  0.00  0.00    +0.026 C 
ATOM     18  C   UNL     1       0.734  -0.493   1.235  0.00  0.00    +0.031 C 
ATOM     19  C   UNL     1      -1.439  -0.522   0.003  0.00  0.00    +0.031 C 
ENDBRANCH  12  17
ENDBRANCH  11  13
ENDBRANCH   1  11
BRANCH   8  20
ATOM     20  C   UNL     1       9.283  -0.767  -5.615  0.00  0.00    +0.014 C 
BRANCH  20  21
ATOM     21  C   UNL     1       8.761  -1.827  -6.588  0.00  0.00    +0.096 C 
BRANCH  21  22
ATOM     22  C   UNL     1       9.708  -1.949  -7.754  0.00  0.00    +0.210 C 
ATOM     23  O   UNL     1      10.703  -1.257  -7.802  0.00  0.00    -0.276 OA
ATOM     24  N   UNL     1       9.450  -2.827  -8.743  0.00  0.00    -0.329 N 
ATOM     25  H   UNL     1       8.655  -3.381  -8.704  0.00  0.00    +0.145 HD
ATOM     26  H   UNL     1      10.060  -2.906  -9.493  0.00  0.00    +0.145 HD
ENDBRANCH  21  22
ENDBRANCH  20  21
ENDBRANCH   8  20
TORSDOF 6
