REMARK  Name = ZINC09741901
REMARK  9 active torsions:
REMARK  status: ('A' for Active; 'I' for Inactive)
REMARK    1  A    between atoms: C_1  and  C_2
REMARK    2  A    between atoms: C_2  and  C_4
REMARK    3  A    between atoms: C_4  and  C_6
REMARK    4  A    between atoms: C_4  and  N_13
REMARK    5  A    between atoms: C_6  and  C_7
REMARK    6  A    between atoms: C_14  and  C_16
REMARK    7  A    between atoms: C_16  and  N_17
REMARK    8  A    between atoms: C_20  and  C_24
REMARK    9  A    between atoms: C_20  and  C_25
REMARK                            x       y       z     vdW  Elec       q    Type
REMARK                         _______ _______ _______ _____ _____    ______ ____
ROOT
ATOM      1  N   UNL     1      -0.016   1.343   0.009  0.00  0.00    -0.215 N 
ATOM      2  C   UNL     1       0.002  -0.004   0.002  0.00  0.00    +0.254 C 
ATOM      3  O   UNL     1      -0.954  -0.749   0.008  0.00  0.00    -0.272 OA
ATOM      4  C   UNL     1       1.467  -0.394  -0.014  0.00  0.00    +0.168 C 
ATOM      5  N   UNL     1       2.170   0.901  -0.014  0.00  0.00    -0.279 N 
ATOM      6  C   UNL     1       1.220   1.854   0.000  0.00  0.00    +0.310 C 
ATOM      7  O   UNL     1       1.460   3.045   0.005  0.00  0.00    -0.252 OA
ATOM      8  C   UNL     1       1.798  -1.190  -1.278  0.00  0.00    +0.050 C 
ATOM      9  H   UNL     1       3.130   1.039  -0.022  0.00  0.00    +0.152 HD
ENDROOT
BRANCH   4  10
ATOM     10  C   UNL     1       1.818  -1.188   1.218  0.00  0.00    +0.138 A 
ATOM     11  C   UNL     1       3.023  -1.204   1.802  0.00  0.00    +0.056 A 
ATOM     12  C   UNL     1       2.905  -2.101   2.958  0.00  0.00    +0.020 A 
ATOM     13  C   UNL     1       3.784  -2.531   3.952  0.00  0.00    +0.011 A 
ATOM     14  C   UNL     1       3.347  -3.401   4.912  0.00  0.00    +0.001 A 
ATOM     15  C   UNL     1       2.037  -3.858   4.903  0.00  0.00    +0.004 A 
ATOM     16  C   UNL     1       1.154  -3.444   3.928  0.00  0.00    +0.047 A 
ATOM     17  C   UNL     1       1.578  -2.560   2.943  0.00  0.00    +0.135 A 
ATOM     18  O   UNL     1       0.968  -1.987   1.886  0.00  0.00    -0.457 OA
ENDBRANCH   4  10
BRANCH   1  19
ATOM     19  C   UNL     1      -1.239   2.150   0.020  0.00  0.00    +0.213 C 
BRANCH  19  21
ATOM     20  N   UNL     1      -2.757   3.147   1.700  0.00  0.00    -0.304 N 
ATOM     21  C   UNL     1      -1.652   2.419   1.444  0.00  0.00    +0.232 C 
ATOM     22  O   UNL     1      -0.989   1.980   2.360  0.00  0.00    -0.274 OA
ATOM     23  H   UNL     1      -3.287   3.498   0.967  0.00  0.00    +0.149 HD
BRANCH  20  24
ATOM     24  C   UNL     1      -3.158   3.408   3.084  0.00  0.00    +0.143 C 
BRANCH  24  26
ATOM     25  C   UNL     1      -4.228   2.103   5.075  0.00  0.00    +0.088 C 
ATOM     26  C   UNL     1      -3.977   2.252   3.597  0.00  0.00    +0.151 C 
ATOM     27  O   UNL     1      -4.431   1.444   2.823  0.00  0.00    -0.296 OA
ENDBRANCH  24  26
BRANCH  24  28
ATOM     28  C   UNL     1      -3.993   4.689   3.140  0.00  0.00    +0.065 C 
BRANCH  28  29
ATOM     29  C   UNL     1      -3.137   5.864   2.745  0.00  0.00    -0.045 A 
ATOM     30  C   UNL     1      -2.433   6.562   3.708  0.00  0.00    +0.004 A 
ATOM     31  C   UNL     1      -1.644   7.638   3.344  0.00  0.00    +0.000 A 
ATOM     32  C   UNL     1      -1.567   8.021   2.018  0.00  0.00    +0.000 A 
ATOM     33  C   UNL     1      -2.275   7.326   1.056  0.00  0.00    +0.000 A 
ATOM     34  C   UNL     1      -3.060   6.248   1.419  0.00  0.00    +0.004 A 
ENDBRANCH  28  29
ENDBRANCH  24  28
ENDBRANCH  20  24
ENDBRANCH  19  21
ENDBRANCH   1  19
TORSDOF 7
