REMARK  Name = ZINC01690523
REMARK  6 active torsions:
REMARK  status: ('A' for Active; 'I' for Inactive)
REMARK    1  A    between atoms: C_1  and  O_2
REMARK    2  A    between atoms: O_2  and  C_3
REMARK    3  A    between atoms: C_3  and  C_4
REMARK    4  A    between atoms: C_3  and  O_18
REMARK    5  A    between atoms: C_4  and  C_11
REMARK    6  A    between atoms: O_18  and  C_19
REMARK                            x       y       z     vdW  Elec       q    Type
REMARK                         _______ _______ _______ _____ _____    ______ ____
ROOT
ATOM      1  C   UNL     1      -0.291   0.463   0.149  0.00  0.00    +0.189 C 
ATOM      2  C   UNL     1      -0.369  -0.065   1.568  0.00  0.00    +0.254 C 
ATOM      3  O   UNL     1      -1.333  -0.053   2.302  0.00  0.00    -0.272 OA
ATOM      4  N   UNL     1       0.857  -0.553   1.843  0.00  0.00    -0.238 N 
ATOM      5  C   UNL     1       1.690  -0.407   0.805  0.00  0.00    +0.307 C 
ATOM      6  O   UNL     1       2.850  -0.770   0.814  0.00  0.00    -0.252 OA
ATOM      7  N   UNL     1       1.100   0.186  -0.248  0.00  0.00    -0.277 N 
ATOM      8  H   UNL     1       1.105  -0.959   2.688  0.00  0.00    +0.159 HD
ATOM      9  H   UNL     1       1.511   0.392  -1.102  0.00  0.00    +0.152 HD
ENDROOT
BRANCH   1  10
ATOM     10  C   UNL     1      -0.566   1.945   0.119  0.00  0.00    -0.010 A 
ATOM     11  C   UNL     1       0.344   2.805  -0.466  0.00  0.00    +0.008 A 
ATOM     12  C   UNL     1       0.089   4.163  -0.499  0.00  0.00    +0.020 A 
ATOM     13  C   UNL     1      -1.071   4.663   0.065  0.00  0.00    +0.041 A 
ATOM     14  C   UNL     1      -1.979   3.802   0.656  0.00  0.00    +0.020 A 
ATOM     15  C   UNL     1      -1.726   2.443   0.683  0.00  0.00    +0.008 A 
ATOM     16 CL   UNL     1      -1.388   6.369   0.031  0.00  0.00    -0.084 Cl
ENDBRANCH   1  10
BRANCH   1  17
ATOM     17  C   UNL     1      -1.272  -0.283  -0.758  0.00  0.00    +0.287 C 
BRANCH  17  19
ATOM     18  C   UNL     1      -1.420  -2.384  -1.902  0.00  0.00    +0.197 C 
ATOM     19  O   UNL     1      -0.964  -1.678  -0.746  0.00  0.00    -0.352 OA
ENDBRANCH  17  19
BRANCH  17  20
ATOM     20  O   UNL     1      -2.605  -0.085  -0.282  0.00  0.00    -0.352 OA
ATOM     21  C   UNL     1      -3.618  -0.456  -1.220  0.00  0.00    +0.197 C 
ENDBRANCH  17  20
ENDBRANCH   1  17
TORSDOF 4
