REMARK  Name = ZINC01443413
REMARK  11 active torsions:
REMARK  status: ('A' for Active; 'I' for Inactive)
REMARK    1  A    between atoms: C_1  and  C_2
REMARK    2  A    between atoms: C_7  and  C_17
REMARK    3  A    between atoms: C_20  and  O_25
REMARK    4  A    between atoms: C_21  and  O_23
REMARK    5  A    between atoms: O_23  and  C_24
REMARK    6  A    between atoms: O_25  and  C_26
REMARK    7  A    between atoms: C_26  and  C_27
REMARK    8  A    between atoms: C_26  and  C_28
REMARK    9  A    between atoms: C_31  and  C_33
REMARK   10  A    between atoms: C_33  and  O_35
REMARK   11  A    between atoms: O_35  and  C_36
REMARK                            x       y       z     vdW  Elec       q    Type
REMARK                         _______ _______ _______ _____ _____    ______ ____
ROOT
ATOM      1  C   UNL     1       1.803   1.398   1.853  0.00  0.00    +0.009 C 
ATOM      2  C   UNL     1       2.152   1.310   0.366  0.00  0.00    +0.013 C 
ATOM      3  C   UNL     1       2.011   2.686  -0.282  0.00  0.00    +0.055 C 
ATOM      4  C   UNL     1       0.584   3.186  -0.134  0.00  0.00    +0.017 C 
ATOM      5  C   UNL     1      -0.444   2.320  -0.121  0.00  0.00    +0.037 C 
ATOM      6  C   UNL     1      -1.903   2.679   0.019  0.00  0.00    +0.136 C 
ATOM      7  N   UNL     1      -2.191   4.090  -0.119  0.00  0.00    -0.331 N 
ATOM      8  C   UNL     1      -1.704   5.016   0.803  0.00  0.00    +0.049 A 
ATOM      9  C   UNL     1      -2.554   5.699   1.658  0.00  0.00    +0.025 A 
ATOM     10  C   UNL     1      -2.019   6.523   2.633  0.00  0.00    +0.002 A 
ATOM     11  C   UNL     1      -0.649   6.667   2.753  0.00  0.00    +0.002 A 
ATOM     12  C   UNL     1       0.202   6.003   1.885  0.00  0.00    +0.025 A 
ATOM     13  C   UNL     1      -0.332   5.192   0.899  0.00  0.00    +0.052 A 
ATOM     14  N   UNL     1       0.461   4.534  -0.033  0.00  0.00    -0.316 N 
ATOM     15  C   UNL     1      -0.205   0.930  -0.234  0.00  0.00    +0.177 C 
ATOM     16  O   UNL     1      -1.155   0.171  -0.247  0.00  0.00    -0.291 OA
ATOM     17  C   UNL     1       1.178   0.360  -0.341  0.00  0.00    +0.171 C 
ATOM     18  H   UNL     1      -2.730   4.397  -0.865  0.00  0.00    +0.147 HD
ATOM     19  H   UNL     1       0.964   5.078  -0.659  0.00  0.00    +0.152 HD
ENDROOT
BRANCH   6  20
ATOM     20  C   UNL     1      -2.380   2.225   1.374  0.00  0.00    -0.019 A 
ATOM     21  C   UNL     1      -1.838   2.782   2.518  0.00  0.00    +0.009 A 
ATOM     22  C   UNL     1      -2.276   2.372   3.764  0.00  0.00    +0.050 A 
ATOM     23  C   UNL     1      -3.251   1.394   3.869  0.00  0.00    +0.162 A 
ATOM     24  C   UNL     1      -3.792   0.829   2.717  0.00  0.00    +0.162 A 
ATOM     25  C   UNL     1      -3.353   1.248   1.472  0.00  0.00    +0.055 A 
BRANCH  24  26
ATOM     26  O   UNL     1      -4.749  -0.132   2.815  0.00  0.00    -0.491 OA
ATOM     27  C   UNL     1      -5.259  -0.666   1.592  0.00  0.00    +0.277 C 
ENDBRANCH  24  26
BRANCH  23  28
ATOM     28  O   UNL     1      -3.678   0.986   5.093  0.00  0.00    -0.486 OA
BRANCH  28  29
ATOM     29  C   UNL     1      -2.994   1.518   6.230  0.00  0.00    +0.167 C 
ATOM     30  C   UNL     1      -3.608   2.867   6.608  0.00  0.00    +0.051 C 
ATOM     31  C   UNL     1      -3.128   0.549   7.406  0.00  0.00    +0.051 C 
ENDBRANCH  28  29
ENDBRANCH  23  28
ENDBRANCH   6  20
BRANCH  17  32
ATOM     32  C   UNL     1       1.561   0.229  -1.792  0.00  0.00    +0.318 C 
ATOM     33  O   UNL     1       2.526   0.819  -2.218  0.00  0.00    -0.250 OA
BRANCH  32  34
ATOM     34  O   UNL     1       0.831  -0.543  -2.613  0.00  0.00    -0.467 OA
ATOM     35  C   UNL     1       1.259  -0.622  -3.998  0.00  0.00    +0.280 C 
ENDBRANCH  32  34
ENDBRANCH  17  32
TORSDOF 6
