REMARK  Name = ZINC67480468
REMARK  11 active torsions:
REMARK  status: ('A' for Active; 'I' for Inactive)
REMARK    1  A    between atoms: C_1  and  C_2
REMARK    2  A    between atoms: C_2  and  C_4
REMARK    3  A    between atoms: C_2  and  N_13
REMARK    4  A    between atoms: C_6  and  C_9
REMARK    5  A    between atoms: C_9  and  C_10
REMARK    6  A    between atoms: C_9  and  C_11
REMARK    7  A    between atoms: C_9  and  C_12
REMARK    8  A    between atoms: N_16  and  C_17
REMARK    9  A    between atoms: C_17  and  C_18
REMARK   10  A    between atoms: C_18  and  C_20
REMARK   11  A    between atoms: C_18  and  O_30
REMARK                            x       y       z     vdW  Elec       q    Type
REMARK                         _______ _______ _______ _____ _____    ______ ____
ROOT
ATOM      1  N   UNL     1       0.711  -0.489   1.189  0.00  0.00    -0.291 N 
ATOM      2  C   UNL     1       0.051  -0.633   2.355  0.00  0.00    +0.300 C 
ATOM      3  O   UNL     1      -1.132  -0.361   2.423  0.00  0.00    -0.253 OA
ATOM      4  N   UNL     1       0.703  -1.080   3.447  0.00  0.00    -0.297 N 
ATOM      5  H   UNL     1       1.654  -0.707   1.135  0.00  0.00    +0.151 HD
ATOM      6  H   UNL     1       1.647  -1.298   3.394  0.00  0.00    +0.150 HD
ENDROOT
BRANCH   1   8
ATOM      7  C   UNL     1      -0.019   1.526   0.010  0.00  0.00    +0.035 C 
ATOM      8  C   UNL     1       0.002  -0.004   0.002  0.00  0.00    +0.127 C 
BRANCH   8   9
ATOM      9  C   UNL     1       0.707  -0.490  -1.238  0.00  0.00    +0.099 A 
ATOM     10  N   UNL     1       0.185  -1.008  -2.321  0.00  0.00    -0.247 NA
ATOM     11  C   UNL     1       0.939  -1.390  -3.332  0.00  0.00    +0.054 A 
ATOM     12  C   UNL     1       2.280  -1.221  -3.197  0.00  0.00    +0.070 A 
ATOM     13  S   UNL     1       2.358  -0.492  -1.569  0.00  0.00    -0.078 S 
BRANCH  11  14
ATOM     14  C   UNL     1       0.342  -1.986  -4.580  0.00  0.00    +0.005 C 
ATOM     15  C   UNL     1       1.464  -2.442  -5.515  0.00  0.00    +0.017 C 
ATOM     16  C   UNL     1      -0.529  -3.188  -4.205  0.00  0.00    +0.017 C 
ATOM     17  C   UNL     1      -0.516  -0.936  -5.288  0.00  0.00    +0.017 C 
ENDBRANCH  11  14
ENDBRANCH   8   9
ENDBRANCH   1   8
BRANCH   4  18
ATOM     18  C   UNL     1      -0.014  -1.237   4.715  0.00  0.00    +0.141 C 
BRANCH  18  19
ATOM     19  C   UNL     1       0.950  -1.754   5.785  0.00  0.00    +0.162 C 
BRANCH  19  20
ATOM     20  C   UNL     1       0.212  -1.915   7.090  0.00  0.00    -0.017 A 
ATOM     21  C   UNL     1      -0.487  -3.094   7.342  0.00  0.00    +0.007 A 
ATOM     22  C   UNL     1      -1.163  -3.271   8.509  0.00  0.00    +0.009 A 
ATOM     23  C   UNL     1      -1.159  -2.253   9.478  0.00  0.00    -0.018 A 
ATOM     24  C   UNL     1      -1.845  -2.400  10.695  0.00  0.00    +0.008 A 
ATOM     25  C   UNL     1      -1.818  -1.392  11.609  0.00  0.00    +0.001 A 
ATOM     26  C   UNL     1      -1.118  -0.213  11.357  0.00  0.00    +0.001 A 
ATOM     27  C   UNL     1      -0.442  -0.035  10.190  0.00  0.00    +0.008 A 
ATOM     28  C   UNL     1      -0.447  -1.054   9.221  0.00  0.00    -0.018 A 
ATOM     29  C   UNL     1       0.244  -0.909   8.006  0.00  0.00    +0.014 A 
ENDBRANCH  19  20
BRANCH  19  30
ATOM     30  O   UNL     1       1.480  -3.017   5.379  0.00  0.00    -0.386 OA
ATOM     31  H   UNL     1       0.809  -3.700   5.245  0.00  0.00    +0.210 HD
ENDBRANCH  19  30
ENDBRANCH  18  19
ENDBRANCH   4  18
TORSDOF 7
