REMARK  Name = ZINC63502615
REMARK  9 active torsions:
REMARK  status: ('A' for Active; 'I' for Inactive)
REMARK    1  A    between atoms: C_1  and  C_2
REMARK    2  A    between atoms: C_2  and  N_3
REMARK    3  A    between atoms: N_3  and  C_4
REMARK    4  A    between atoms: N_3  and  C_6
REMARK    5  A    between atoms: C_4  and  C_5
REMARK    6  A    between atoms: C_9  and  N_13
REMARK    7  A    between atoms: C_10  and  C_12
REMARK    8  A    between atoms: C_14  and  C_16
REMARK    9  A    between atoms: N_19  and  C_22
REMARK                            x       y       z     vdW  Elec       q    Type
REMARK                         _______ _______ _______ _____ _____    ______ ____
ROOT
ATOM      1  N   UNL     1      -1.561  -6.215   1.005  0.00  0.00    -0.285 N 
ATOM      2  C   UNL     1      -0.876  -7.081   0.231  0.00  0.00    +0.220 C 
ATOM      3  O   UNL     1      -0.133  -6.666  -0.633  0.00  0.00    -0.275 OA
ATOM      4  H   UNL     1      -2.103  -6.545   1.739  0.00  0.00    +0.155 HD
ENDROOT
BRANCH   1   8
ATOM      5  C   UNL     1      -1.348  -2.125   0.242  0.00  0.00    +0.014 A 
ATOM      6  C   UNL     1      -0.304  -2.952  -0.131  0.00  0.00    +0.023 A 
ATOM      7  C   UNL     1      -0.371  -4.308   0.120  0.00  0.00    +0.025 A 
ATOM      8  C   UNL     1      -1.489  -4.841   0.749  0.00  0.00    +0.036 A 
ATOM      9  C   UNL     1      -2.536  -4.009   1.123  0.00  0.00    -0.028 A 
ATOM     10  C   UNL     1      -2.460  -2.652   0.873  0.00  0.00    +0.026 A 
ATOM     11  C   UNL     1      -3.750  -4.584   1.805  0.00  0.00    +0.046 C 
BRANCH   5  12
ATOM     12  N   UNL     1      -1.277  -0.753  -0.014  0.00  0.00    -0.394 NA
ATOM     13  H   UNL     1      -2.115  -0.303   0.325  0.00  0.00    +0.126 HD
BRANCH  12  15
ATOM     14  C   UNL     1      -0.289  -0.316   2.184  0.00  0.00    +0.022 C 
ATOM     15  C   UNL     1      -0.107  -0.187   0.671  0.00  0.00    +0.081 C 
ENDBRANCH  12  15
BRANCH  12  16
ATOM     16  C   UNL     1      -1.153  -0.530  -1.460  0.00  0.00    +0.081 C 
ATOM     17  C   UNL     1      -2.424  -1.015  -2.162  0.00  0.00    +0.022 C 
ENDBRANCH  12  16
ENDBRANCH   5  12
ENDBRANCH   1   8
BRANCH   2  18
ATOM     18  C   UNL     1      -1.034  -8.565   0.440  0.00  0.00    +0.078 C 
ATOM     19  C   UNL     1      -0.603  -8.931   1.863  0.00  0.00    +0.028 C 
ATOM     20  C   UNL     1      -0.708 -10.446   2.049  0.00  0.00    +0.089 C 
ATOM     21  N   UNL     1       0.152 -11.122   1.069  0.00  0.00    -0.266 NA
ATOM     22  C   UNL     1      -0.273 -10.823  -0.304  0.00  0.00    +0.089 C 
ATOM     23  C   UNL     1      -0.155  -9.319  -0.561  0.00  0.00    +0.028 C 
BRANCH  21  24
ATOM     24  C   UNL     1       0.184 -12.571   1.308  0.00  0.00    +0.252 C 
ATOM     25  N   UNL     1       1.085 -13.220   0.347  0.00  0.00    -0.351 N 
ATOM     26  C   UNL     1       0.375 -14.063  -0.346  0.00  0.00    +0.061 A 
ATOM     27  C   UNL     1       0.708 -14.989  -1.437  0.00  0.00    +0.027 A 
ATOM     28  C   UNL     1      -0.259 -15.758  -1.975  0.00  0.00    +0.002 A 
ATOM     29  C   UNL     1      -1.595 -15.715  -1.536  0.00  0.00    +0.002 A 
ATOM     30  C   UNL     1      -2.007 -14.901  -0.543  0.00  0.00    +0.027 A 
ATOM     31  C   UNL     1      -1.038 -14.017   0.119  0.00  0.00    +0.061 A 
ATOM     32  N   UNL     1      -1.147 -13.148   1.082  0.00  0.00    -0.351 N 
ATOM     33  H   UNL     1       2.035 -13.051   0.247  0.00  0.00    +0.163 HD
ATOM     34  H   UNL     1      -1.960 -12.923   1.563  0.00  0.00    +0.163 HD
ENDBRANCH  21  24
ENDBRANCH   2  18
TORSDOF 6
