REMARK  Name = ZINC19353472
REMARK  9 active torsions:
REMARK  status: ('A' for Active; 'I' for Inactive)
REMARK    1  A    between atoms: C_1  and  C_2
REMARK    2  A    between atoms: C_3  and  C_34
REMARK    3  A    between atoms: N_4  and  C_28
REMARK    4  A    between atoms: C_5  and  S_7
REMARK    5  A    between atoms: S_7  and  C_8
REMARK    6  A    between atoms: C_8  and  C_9
REMARK    7  A    between atoms: N_14  and  C_17
REMARK    8  A    between atoms: C_17  and  C_18
REMARK    9  A    between atoms: N_20  and  C_21
REMARK                            x       y       z     vdW  Elec       q    Type
REMARK                         _______ _______ _______ _____ _____    ______ ____
ROOT
ATOM      1  C   UNL     1       0.072  -3.847   4.468  0.00  0.00    +0.226 C 
ATOM      2  O   UNL     1       0.079  -5.007   4.114  0.00  0.00    -0.275 OA
ATOM      3  N   UNL     1       0.077  -3.543   5.781  0.00  0.00    -0.298 N 
ATOM      4  C   UNL     1       0.063  -2.143   6.232  0.00  0.00    +0.123 C 
ATOM      5  C   UNL     1       1.199  -1.945   7.241  0.00  0.00    +0.104 C 
ATOM      6  N   UNL     1       1.079  -2.944   8.312  0.00  0.00    -0.291 NA
ATOM      7  C   UNL     1       1.232  -4.308   7.787  0.00  0.00    +0.104 C 
ATOM      8  C   UNL     1       0.090  -4.603   6.801  0.00  0.00    +0.123 C 
ENDROOT
BRANCH   1   9
ATOM      9  C   UNL     1       0.059  -2.745   3.440  0.00  0.00    +0.173 C 
BRANCH   9  10
ATOM     10  S   UNL     1       0.055  -3.470   1.777  0.00  0.00    -0.080 S 
BRANCH  10  15
ATOM     11  C   UNL     1       0.009   1.480  -0.005  0.00  0.00    +0.065 C 
ATOM     12  C   UNL     1       0.020  -0.026  -0.008  0.00  0.00    +0.034 A 
ATOM     13  C   UNL     1       0.020  -0.811  -1.100  0.00  0.00    +0.037 A 
ATOM     14  N   UNL     1       0.032  -2.115  -0.657  0.00  0.00    -0.321 N 
ATOM     15  C   UNL     1       0.039  -2.073   0.703  0.00  0.00    +0.148 A 
ATOM     16  N   UNL     1       0.036  -0.815   1.079  0.00  0.00    -0.338 N 
ATOM     17  C   UNL     1       0.008  -0.351  -2.535  0.00  0.00    +0.065 C 
ATOM     18  H   UNL     1       0.044  -0.504   1.998  0.00  0.00    +0.168 HD
BRANCH  14  19
ATOM     19  C   UNL     1       0.036  -3.318  -1.492  0.00  0.00    +0.089 C 
ATOM     20  C   UNL     1      -1.206  -4.157  -1.183  0.00  0.00    +0.025 C 
ATOM     21  C   UNL     1      -1.201  -5.415  -2.055  0.00  0.00    +0.002 C 
ATOM     22  C   UNL     1       0.056  -6.236  -1.761  0.00  0.00    +0.000 C 
ATOM     23  C   UNL     1       1.297  -5.396  -2.070  0.00  0.00    +0.002 C 
ATOM     24  C   UNL     1       1.293  -4.139  -1.198  0.00  0.00    +0.025 C 
ENDBRANCH  14  19
ENDBRANCH  10  15
ENDBRANCH   9  10
ENDBRANCH   1   9
BRANCH   6  25
ATOM     25  C   UNL     1       2.045  -2.682   9.387  0.00  0.00    +0.180 C 
BRANCH  25  26
ATOM     26  C   UNL     1       1.733  -3.565  10.568  0.00  0.00    +0.231 C 
ATOM     27  O   UNL     1       0.799  -4.336  10.519  0.00  0.00    -0.274 OA
ATOM     28  N   UNL     1       2.493  -3.497  11.679  0.00  0.00    -0.284 N 
ATOM     29  H   UNL     1       3.280  -2.930  11.694  0.00  0.00    +0.155 HD
BRANCH  28  30
ATOM     30  C   UNL     1       2.147  -4.246  12.811  0.00  0.00    +0.034 A 
ATOM     31  C   UNL     1       2.367  -3.728  14.080  0.00  0.00    +0.026 A 
ATOM     32  C   UNL     1       2.025  -4.468  15.195  0.00  0.00    +0.040 A 
ATOM     33  C   UNL     1       1.463  -5.725  15.048  0.00  0.00    +0.124 A 
ATOM     34  C   UNL     1       1.243  -6.243  13.783  0.00  0.00    +0.040 A 
ATOM     35  C   UNL     1       1.578  -5.504  12.665  0.00  0.00    +0.026 A 
ATOM     36  F   UNL     1       1.130  -6.447  16.140  0.00  0.00    -0.205 F 
ENDBRANCH  28  30
ENDBRANCH  25  26
ENDBRANCH   6  25
TORSDOF 7
