REMARK  Name = ZINC08845427
REMARK  8 active torsions:
REMARK  status: ('A' for Active; 'I' for Inactive)
REMARK    1  A    between atoms: C_1  and  C_2
REMARK    2  A    between atoms: C_2  and  O_3
REMARK    3  A    between atoms: O_3  and  C_4
REMARK    4  A    between atoms: C_8  and  C_10
REMARK    5  A    between atoms: C_13  and  C_28
REMARK    6  A    between atoms: N_20  and  C_21
REMARK    7  A    between atoms: C_21  and  C_22
REMARK    8  A    between atoms: C_33  and  O_34
REMARK                            x       y       z     vdW  Elec       q    Type
REMARK                         _______ _______ _______ _____ _____    ______ ____
ROOT
ATOM      1  C   UNL     1       2.261  -4.305   3.717  0.00  0.00    +0.142 C 
ATOM      2  C   UNL     1       3.616  -4.836   3.335  0.00  0.00    +0.035 A 
ATOM      3  C   UNL     1       4.883  -4.564   2.810  0.00  0.00    +0.102 A 
ATOM      4  N   UNL     1       5.560  -5.696   2.807  0.00  0.00    -0.173 NA
ATOM      5  N   UNL     1       4.846  -6.654   3.278  0.00  0.00    -0.272 N 
ATOM      6  H   UNL     1       5.139  -7.574   3.371  0.00  0.00    +0.189 HD
ATOM      7  C   UNL     1       3.612  -6.186   3.630  0.00  0.00    +0.126 A 
ATOM      8  C   UNL     1       2.301  -6.537   4.188  0.00  0.00    +0.266 C 
ATOM      9  O   UNL     1       1.977  -7.653   4.550  0.00  0.00    -0.268 OA
ATOM     10  N   UNL     1       1.508  -5.451   4.244  0.00  0.00    -0.281 N 
ENDROOT
BRANCH   1  15
ATOM     11  C   UNL     1       0.645  -1.868   1.324  0.00  0.00    +0.121 A 
ATOM     12  C   UNL     1       0.285  -2.707   0.279  0.00  0.00    +0.045 A 
ATOM     13  C   UNL     1       0.566  -4.058   0.351  0.00  0.00    +0.004 A 
ATOM     14  C   UNL     1       1.206  -4.574   1.464  0.00  0.00    +0.006 A 
ATOM     15  C   UNL     1       1.565  -3.740   2.506  0.00  0.00    -0.019 A 
ATOM     16  C   UNL     1       1.291  -2.387   2.436  0.00  0.00    +0.051 A 
BRANCH  11  17
ATOM     17  O   UNL     1       0.370  -0.539   1.255  0.00  0.00    -0.492 OA
BRANCH  17  19
ATOM     18  C   UNL     1      -0.520   1.436   0.183  0.00  0.00    +0.048 C 
ATOM     19  C   UNL     1      -0.297  -0.075   0.080  0.00  0.00    +0.225 C 
ENDBRANCH  17  19
ENDBRANCH  11  17
ENDBRANCH   1  15
BRANCH   3  20
ATOM     20  C   UNL     1       5.376  -3.245   2.341  0.00  0.00    +0.044 A 
ATOM     21  C   UNL     1       4.597  -2.104   2.519  0.00  0.00    +0.014 A 
ATOM     22  C   UNL     1       5.059  -0.879   2.081  0.00  0.00    +0.001 A 
ATOM     23  C   UNL     1       6.295  -0.780   1.466  0.00  0.00    +0.004 A 
ATOM     24  C   UNL     1       7.075  -1.906   1.285  0.00  0.00    +0.046 A 
ATOM     25  C   UNL     1       6.626  -3.141   1.725  0.00  0.00    +0.126 A 
BRANCH  25  26
ATOM     26  O   UNL     1       7.395  -4.247   1.553  0.00  0.00    -0.506 OA
ATOM     27  H   UNL     1       7.242  -4.707   0.716  0.00  0.00    +0.292 HD
ENDBRANCH  25  26
ENDBRANCH   3  20
BRANCH  10  28
ATOM     28  C   UNL     1       0.131  -5.416   4.744  0.00  0.00    +0.145 C 
BRANCH  28  29
ATOM     29  C   UNL     1      -0.822  -5.689   3.609  0.00  0.00    -0.012 A 
ATOM     30  C   UNL     1      -1.317  -4.645   2.842  0.00  0.00    +0.008 A 
ATOM     31  C   UNL     1      -2.192  -4.944   1.808  0.00  0.00    +0.020 A 
ATOM     32  C   UNL     1      -2.538  -6.262   1.578  0.00  0.00    +0.111 A 
ATOM     33  N   UNL     1      -2.048  -7.229   2.328  0.00  0.00    -0.263 NA
ATOM     34  C   UNL     1      -1.209  -6.983   3.316  0.00  0.00    +0.115 A 
ENDBRANCH  28  29
ENDBRANCH  10  28
TORSDOF 7
