REMARK  Name = ZINC33571736
REMARK  5 active torsions:
REMARK  status: ('A' for Active; 'I' for Inactive)
REMARK    1  A    between atoms: C_1  and  C_2
REMARK    2  A    between atoms: C_2  and  C_3
REMARK    3  A    between atoms: C_8  and  N_9
REMARK    4  A    between atoms: C_20  and  C_22
REMARK    5  A    between atoms: C_25  and  C_28
REMARK                            x       y       z     vdW  Elec       q    Type
REMARK                         _______ _______ _______ _____ _____    ______ ____
ROOT
ATOM      1  N   UNL     1       2.748  -5.590  -2.183  0.00  0.00    -0.269 N 
ATOM      2  C   UNL     1       1.863  -5.662  -1.169  0.00  0.00    +0.307 C 
ATOM      3  O   UNL     1       2.187  -6.171  -0.114  0.00  0.00    -0.252 OA
ATOM      4  N   UNL     1       0.618  -5.170  -1.325  0.00  0.00    -0.271 N 
ATOM      5  C   UNL     1       0.165  -4.654  -2.626  0.00  0.00    +0.132 C 
ATOM      6  C   UNL     1      -0.983  -5.527  -3.144  0.00  0.00    +0.140 C 
ATOM      7  N   UNL     1      -1.944  -5.756  -2.060  0.00  0.00    -0.347 N 
ATOM      8  C   UNL     1      -3.236  -6.166  -2.185  0.00  0.00    +0.086 A 
ATOM      9  C   UNL     1      -3.769  -6.267  -0.949  0.00  0.00    +0.019 A 
ATOM     10  C   UNL     1      -2.768  -5.902  -0.025  0.00  0.00    +0.025 A 
ATOM     11  C   UNL     1      -1.669  -5.591  -0.730  0.00  0.00    +0.044 A 
ATOM     12  C   UNL     1      -0.331  -5.133  -0.197  0.00  0.00    +0.155 C 
ATOM     13  H   UNL     1       2.481  -5.062  -3.110  0.00  0.00    +0.156 HD
ENDROOT
BRANCH  12  14
ATOM     14  C   UNL     1      -0.443  -3.727   0.334  0.00  0.00    -0.021 A 
ATOM     15  C   UNL     1      -0.063  -3.446   1.633  0.00  0.00    +0.006 A 
ATOM     16  C   UNL     1      -0.166  -2.157   2.121  0.00  0.00    +0.004 A 
ATOM     17  C   UNL     1      -0.650  -1.148   1.309  0.00  0.00    -0.050 A 
ATOM     18  C   UNL     1      -1.035  -1.430   0.011  0.00  0.00    +0.004 A 
ATOM     19  C   UNL     1      -0.927  -2.718  -0.478  0.00  0.00    +0.006 A 
ATOM     20  C   UNL     1      -0.763   0.258   1.840  0.00  0.00    +0.044 C 
ENDBRANCH  12  14
BRANCH   1  26
ATOM     21  C   UNL     1       4.680  -6.638  -3.183  0.00  0.00    -0.026 A 
ATOM     22  C   UNL     1       5.924  -7.226  -3.055  0.00  0.00    +0.005 A 
ATOM     23  C   UNL     1       6.498  -7.365  -1.805  0.00  0.00    +0.000 A 
ATOM     24  C   UNL     1       5.830  -6.917  -0.680  0.00  0.00    +0.002 A 
ATOM     25  C   UNL     1       4.590  -6.323  -0.802  0.00  0.00    +0.023 A 
ATOM     26  C   UNL     1       4.008  -6.186  -2.056  0.00  0.00    +0.038 A 
BRANCH  21  28
ATOM     27  C   UNL     1       4.365  -5.094  -5.098  0.00  0.00    +0.009 C 
ATOM     28  C   UNL     1       4.055  -6.487  -4.546  0.00  0.00    +0.033 C 
ENDBRANCH  21  28
ENDBRANCH   1  26
TORSDOF 3
