REMARK  Name = ZINC53169745
REMARK  1 active torsions:
REMARK  status: ('A' for Active; 'I' for Inactive)
REMARK    1  A    between atoms: C_5  and  N_7
REMARK                            x       y       z     vdW  Elec       q    Type
REMARK                         _______ _______ _______ _____ _____    ______ ____
ROOT
ATOM      1  N   UNL     1       1.237  -2.082  -0.021  0.00  0.00    -0.277 N 
ATOM      2  C   UNL     1       1.256  -2.912   1.091  0.00  0.00    +0.113 A 
ATOM      3  C   UNL     1       1.274  -4.226   0.596  0.00  0.00    +0.094 A 
ATOM      4  C   UNL     1       1.296  -5.298   1.492  0.00  0.00    +0.033 A 
ATOM      5  C   UNL     1       1.298  -5.058   2.848  0.00  0.00    +0.043 A 
ATOM      6  C   UNL     1       1.280  -3.758   3.334  0.00  0.00    +0.161 A 
ATOM      7  C   UNL     1       1.259  -2.686   2.460  0.00  0.00    +0.184 A 
ATOM      8  F   UNL     1       1.242  -1.422   2.938  0.00  0.00    -0.200 F 
ATOM      9  F   UNL     1       1.283  -3.538   4.667  0.00  0.00    -0.202 F 
ATOM     10  N   UNL     1       1.266  -4.144  -0.761  0.00  0.00    -0.214 NA
ATOM     11  C   UNL     1       1.238  -2.887  -1.127  0.00  0.00    +0.199 A 
ATOM     12  N   UNL     1       1.217  -2.442  -2.433  0.00  0.00    -0.329 N 
ATOM     13  H   UNL     1       1.199  -1.490  -2.620  0.00  0.00    +0.145 HD
ATOM     14  H   UNL     1       1.219  -3.080  -3.163  0.00  0.00    +0.145 HD
ENDROOT
BRANCH   1  19
ATOM     15  C   UNL     1      -0.017   1.377   0.010  0.00  0.00    +0.002 A 
ATOM     16  C   UNL     1       1.171   2.086   0.002  0.00  0.00    +0.001 A 
ATOM     17  C   UNL     1       2.380   1.416  -0.013  0.00  0.00    +0.016 A 
ATOM     18  C   UNL     1       2.405   0.034  -0.021  0.00  0.00    +0.037 A 
ATOM     19  C   UNL     1       1.214  -0.681  -0.013  0.00  0.00    +0.063 A 
ATOM     20  C   UNL     1       0.002  -0.004   0.002  0.00  0.00    +0.027 A 
ATOM     21  I   UNL     1       4.238  -0.981  -0.046  0.00  0.00    -0.042 I 
ENDBRANCH   1  19
TORSDOF 1
