REMARK  Name = ZINC58549612
REMARK  5 active torsions:
REMARK  status: ('A' for Active; 'I' for Inactive)
REMARK    1  A    between atoms: C_1  and  C_2
REMARK    2  A    between atoms: N_16  and  C_17
REMARK    3  A    between atoms: C_17  and  C_18
REMARK    4  A    between atoms: N_20  and  C_21
REMARK    5  A    between atoms: C_26  and  C_27
REMARK                            x       y       z     vdW  Elec       q    Type
REMARK                         _______ _______ _______ _____ _____    ______ ____
ROOT
ATOM      1  C   UNL     1      -0.128   1.487  -0.024  0.00  0.00    -0.008 C 
ATOM      2  C   UNL     1      -0.065  -0.041   0.016  0.00  0.00    -0.040 C 
ATOM      3  C   UNL     1       0.501  -0.548  -1.284  0.00  0.00    -0.054 A 
ATOM      4  C   UNL     1       0.104   0.062  -2.464  0.00  0.00    +0.051 A 
ATOM      5  C   UNL     1       0.597  -0.375  -3.682  0.00  0.00    +0.162 A 
ATOM      6  C   UNL     1       1.498  -1.434  -3.719  0.00  0.00    +0.162 A 
ATOM      7  C   UNL     1       1.892  -2.040  -2.539  0.00  0.00    +0.053 A 
ATOM      8  C   UNL     1       1.396  -1.598  -1.323  0.00  0.00    -0.038 A 
ATOM      9  C   UNL     1       1.857  -2.276  -0.061  0.00  0.00    -0.019 C 
ATOM     10  C   UNL     1       1.871  -3.803  -0.267  0.00  0.00    +0.010 C 
ATOM     11  C   UNL     1       3.338  -4.119  -0.651  0.00  0.00    +0.001 C 
ATOM     12  C   UNL     1       4.145  -3.148   0.246  0.00  0.00    +0.001 C 
ATOM     13  C   UNL     1       3.299  -1.857   0.263  0.00  0.00    +0.010 C 
ATOM     14  C   UNL     1       0.937  -1.921   1.104  0.00  0.00    -0.066 C 
ATOM     15  N   UNL     1       0.773  -0.460   1.144  0.00  0.00    +0.390 N 
ATOM     16  O   UNL     1       2.000  -1.879  -4.903  0.00  0.00    -0.485 OA
ATOM     17  C   UNL     1       1.295  -1.490  -6.088  0.00  0.00    +0.270 C 
ATOM     18  C   UNL     1       0.992   0.011  -5.995  0.00  0.00    +0.270 C 
ATOM     19  O   UNL     1       0.192   0.236  -4.828  0.00  0.00    -0.485 OA
ATOM     20  H   UNL     1       1.677  -0.016   1.076  0.00  0.00    -0.080 HD
ENDROOT
BRANCH  15  21
ATOM     21  C   UNL     1       0.128  -0.072   2.405  0.00  0.00    +0.020 C 
BRANCH  21  22
ATOM     22  C   UNL     1       1.059  -0.360   3.555  0.00  0.00    +0.201 C 
ATOM     23  O   UNL     1       2.191  -0.737   3.338  0.00  0.00    -0.278 OA
ATOM     24  N   UNL     1       0.634  -0.197   4.823  0.00  0.00    -0.286 N 
ATOM     25  H   UNL     1      -0.247   0.170   4.996  0.00  0.00    +0.155 HD
BRANCH  24  26
ATOM     26  C   UNL     1       1.459  -0.557   5.886  0.00  0.00    +0.045 A 
ATOM     27  C   UNL     1       2.832  -0.375   5.795  0.00  0.00    +0.024 A 
ATOM     28  C   UNL     1       3.648  -0.733   6.849  0.00  0.00    +0.002 A 
ATOM     29  C   UNL     1       3.106  -1.276   8.003  0.00  0.00    +0.001 A 
ATOM     30  C   UNL     1       1.745  -1.463   8.111  0.00  0.00    +0.015 A 
ATOM     31  C   UNL     1       0.906  -1.101   7.055  0.00  0.00    +0.058 A 
BRANCH  31  32
ATOM     32  C   UNL     1      -0.552  -1.294   7.166  0.00  0.00    +0.243 C 
ATOM     33  O   UNL     1      -1.269  -1.078   6.208  0.00  0.00    -0.270 OA
ATOM     34  N   UNL     1      -1.090  -1.709   8.330  0.00  0.00    -0.325 N 
ATOM     35  H   UNL     1      -0.519  -1.881   9.095  0.00  0.00    +0.145 HD
ATOM     36  H   UNL     1      -2.049  -1.835   8.403  0.00  0.00    +0.145 HD
ENDBRANCH  31  32
ENDBRANCH  24  26
ENDBRANCH  21  22
ENDBRANCH  15  21
TORSDOF 4
