REMARK  Name = ZINC05533736
REMARK  5 active torsions:
REMARK  status: ('A' for Active; 'I' for Inactive)
REMARK    1  A    between atoms: C_1  and  C_2
REMARK    2  A    between atoms: C_7  and  N_8
REMARK    3  A    between atoms: C_13  and  C_16
REMARK    4  A    between atoms: C_16  and  C_17
REMARK    5  A    between atoms: C_21  and  N_23
REMARK                            x       y       z     vdW  Elec       q    Type
REMARK                         _______ _______ _______ _____ _____    ______ ____
ROOT
ATOM      1  N   UNL     1       0.025  -0.037   2.399  0.00  0.00    -0.226 NA
ATOM      2  C   UNL     1      -0.054  -0.701   3.528  0.00  0.00    +0.161 C 
ATOM      3  N   UNL     1      -0.045  -2.067   3.714  0.00  0.00    -0.264 N 
ATOM      4  C   UNL     1      -0.132  -2.620   4.912  0.00  0.00    +0.232 C 
ATOM      5  O   UNL     1      -0.124  -3.823   5.068  0.00  0.00    -0.274 OA
ATOM      6  C   UNL     1      -0.244  -1.655   6.081  0.00  0.00    +0.144 C 
ATOM      7  S   UNL     1      -0.192  -0.048   5.185  0.00  0.00    -0.077 S 
ATOM      8  H   UNL     1       0.028  -2.644   2.938  0.00  0.00    +0.157 HD
ENDROOT
BRANCH   1  15
ATOM      9  C   UNL     1       2.074   0.625   0.544  0.00  0.00    +0.046 C 
ATOM     10  C   UNL     1       1.033  -0.427   0.259  0.00  0.00    -0.025 A 
ATOM     11  C   UNL     1       1.054  -1.115  -0.937  0.00  0.00    +0.005 A 
ATOM     12  C   UNL     1       0.099  -2.080  -1.200  0.00  0.00    +0.000 A 
ATOM     13  C   UNL     1      -0.883  -2.364  -0.267  0.00  0.00    +0.002 A 
ATOM     14  C   UNL     1      -0.915  -1.684   0.933  0.00  0.00    +0.028 A 
ATOM     15  C   UNL     1       0.048  -0.712   1.207  0.00  0.00    +0.069 A 
ENDBRANCH   1  15
BRANCH   6  16
ATOM     16  C   UNL     1      -1.567  -1.838   6.827  0.00  0.00    +0.059 C 
BRANCH  16  17
ATOM     17  C   UNL     1      -1.583  -0.951   8.045  0.00  0.00    -0.044 A 
ATOM     18  C   UNL     1      -1.098  -1.423   9.251  0.00  0.00    +0.004 A 
ATOM     19  C   UNL     1      -1.113  -0.610  10.368  0.00  0.00    +0.002 A 
ATOM     20  C   UNL     1      -1.613   0.676  10.280  0.00  0.00    +0.033 A 
ATOM     21  C   UNL     1      -2.097   1.149   9.075  0.00  0.00    +0.126 A 
ATOM     22  C   UNL     1      -2.078   0.336   7.956  0.00  0.00    +0.036 A 
BRANCH  21  23
ATOM     23  N   UNL     1      -2.633   2.525   8.981  0.00  0.00    +0.056 N 
ATOM     24  O   UNL     1      -2.647   3.236   9.958  0.00  0.00    -0.126 OA
ATOM     25  O   UNL     1      -3.057   2.938   7.927  0.00  0.00    -0.126 OA
ENDBRANCH  21  23
ENDBRANCH  16  17
ENDBRANCH   6  16
TORSDOF 4
