REMARK  Name = ZINC58852172
REMARK  10 active torsions:
REMARK  status: ('A' for Active; 'I' for Inactive)
REMARK    1  A    between atoms: C_1  and  C_2
REMARK    2  A    between atoms: C_2  and  N_3
REMARK    3  A    between atoms: N_3  and  C_4
REMARK    4  A    between atoms: N_3  and  C_6
REMARK    5  A    between atoms: C_4  and  C_5
REMARK    6  A    between atoms: C_6  and  C_8
REMARK    7  A    between atoms: C_6  and  C_21
REMARK    8  A    between atoms: C_8  and  N_9
REMARK    9  A    between atoms: N_12  and  C_13
REMARK   10  A    between atoms: C_16  and  C_20
REMARK                            x       y       z     vdW  Elec       q    Type
REMARK                         _______ _______ _______ _____ _____    ______ ____
ROOT
ATOM      1  N   UNL     1      -3.384  -1.585  -1.023  0.00  0.00    -0.300 N 
ATOM      2  C   UNL     1      -4.714  -1.383  -1.112  0.00  0.00    +0.304 C 
ATOM      3  O   UNL     1      -5.426  -1.595  -0.150  0.00  0.00    -0.253 OA
ATOM      4  N   UNL     1      -5.253  -0.946  -2.267  0.00  0.00    -0.268 N 
ATOM      5  H   UNL     1      -2.815  -1.416  -1.791  0.00  0.00    +0.150 HD
ATOM      6  H   UNL     1      -4.694  -0.837  -3.053  0.00  0.00    +0.156 HD
ENDROOT
BRANCH   4   7
ATOM      7  C   UNL     1      -6.620  -0.649  -2.334  0.00  0.00    +0.049 A 
ATOM      8  C   UNL     1      -7.276  -0.143  -1.220  0.00  0.00    +0.025 A 
ATOM      9  C   UNL     1      -8.624   0.149  -1.289  0.00  0.00    +0.005 A 
ATOM     10  C   UNL     1      -9.321  -0.062  -2.465  0.00  0.00    -0.049 A 
ATOM     11  C   UNL     1      -8.670  -0.567  -3.576  0.00  0.00    +0.020 A 
ATOM     12  C   UNL     1      -7.320  -0.856  -3.515  0.00  0.00    +0.039 A 
ATOM     13 BR   UNL     1      -6.429  -1.539  -5.037  0.00  0.00    -0.048 Br
ATOM     14  C   UNL     1     -10.792   0.257  -2.535  0.00  0.00    +0.044 C 
ENDBRANCH   4   7
BRANCH   1  15
ATOM     15  C   UNL     1      -2.798  -2.061   0.232  0.00  0.00    +0.095 C 
BRANCH  15  16
ATOM     16  C   UNL     1      -1.273  -2.085   0.106  0.00  0.00    -0.020 C 
BRANCH  16  17
ATOM     17  C   UNL     1      -0.667  -2.519   1.416  0.00  0.00    -0.052 A 
ATOM     18  C   UNL     1       0.270  -3.534   1.454  0.00  0.00    +0.009 A 
ATOM     19  C   UNL     1       0.795  -3.900   2.648  0.00  0.00    +0.045 A 
ATOM     20  S   UNL     1      -0.041  -2.795   3.774  0.00  0.00    -0.105 S 
ATOM     21  C   UNL     1      -1.030  -1.916   2.575  0.00  0.00    +0.047 A 
ENDBRANCH  16  17
BRANCH  16  22
ATOM     22  N   UNL     1      -0.789  -0.741  -0.236  0.00  0.00    +0.385 N 
ATOM     23  H   UNL     1      -1.242  -0.424  -1.080  0.00  0.00    -0.081 HD
BRANCH  22  25
ATOM     24  C   UNL     1      -0.745   1.613   0.440  0.00  0.00    -0.017 C 
ATOM     25  C   UNL     1      -1.097   0.185   0.862  0.00  0.00    -0.081 C 
ENDBRANCH  22  25
BRANCH  22  26
ATOM     26  C   UNL     1       0.664  -0.783  -0.447  0.00  0.00    -0.081 C 
ATOM     27  C   UNL     1       0.979  -1.670  -1.653  0.00  0.00    -0.017 C 
ENDBRANCH  22  26
ENDBRANCH  16  22
ENDBRANCH  15  16
ENDBRANCH   1  15
TORSDOF 7
