REMARK  Name = ZINC14750701
REMARK  7 active torsions:
REMARK  status: ('A' for Active; 'I' for Inactive)
REMARK    1  A    between atoms: C_2  and  C_3
REMARK    2  A    between atoms: C_3  and  N_4
REMARK    3  A    between atoms: C_7  and  C_9
REMARK    4  A    between atoms: C_18  and  N_64
REMARK    5  A    between atoms: C_22  and  C_23
REMARK    6  A    between atoms: C_22  and  N_64
REMARK    7  A    between atoms: C_23  and  O_29
REMARK                            x       y       z     vdW  Elec       q    Type
REMARK                         _______ _______ _______ _____ _____    ______ ____
ROOT
ATOM      1  N   UNL     1       1.228  -0.409  -0.232  0.00  0.00    -0.264 N 
ATOM      2  C   UNL     1       2.067   0.600   0.051  0.00  0.00    +0.043 A 
ATOM      3  C   UNL     1       1.315   1.720   0.191  0.00  0.00    +0.004 A 
ATOM      4  C   UNL     1      -0.015   1.321  -0.021  0.00  0.00    +0.151 A 
ATOM      5  N   UNL     1       0.015   0.022  -0.271  0.00  0.00    -0.166 NA
ATOM      6  C   UNL     1       1.864   3.084   0.508  0.00  0.00    +0.023 C 
ATOM      7  C   UNL     1       3.376   3.069   0.240  0.00  0.00    -0.067 C 
ATOM      8  C   UNL     1       4.004   1.852   0.924  0.00  0.00    -0.009 C 
ATOM      9  C   UNL     1       3.567   0.571   0.203  0.00  0.00    +0.054 C 
ENDROOT
BRANCH   4  10
ATOM     10  C   UNL     1      -1.212   2.184   0.020  0.00  0.00    +0.267 C 
ATOM     11  O   UNL     1      -1.090   3.387   0.142  0.00  0.00    -0.268 OA
ATOM     12  N   UNL     1      -2.441   1.638  -0.078  0.00  0.00    -0.296 N 
ATOM     13  C   UNL     1      -2.612   0.179  -0.092  0.00  0.00    +0.108 C 
ATOM     14  C   UNL     1      -3.617  -0.206   1.004  0.00  0.00    +0.019 C 
ATOM     15  C   UNL     1      -4.913   0.581   0.798  0.00  0.00    +0.003 C 
ATOM     16  C   UNL     1      -4.626   2.079   0.912  0.00  0.00    +0.019 C 
ATOM     17  C   UNL     1      -3.633   2.490  -0.179  0.00  0.00    +0.108 C 
ENDBRANCH   4  10
BRANCH   7  18
ATOM     18  N   UNL     1       3.975   4.303   0.781  0.00  0.00    +0.383 N 
ATOM     19  H   UNL     1       4.180   4.170   1.779  0.00  0.00    -0.085 HD
ATOM     20  H   UNL     1       3.313   5.079   0.668  0.00  0.00    -0.085 HD
BRANCH  18  21
ATOM     21  C   UNL     1       5.225   4.621   0.066  0.00  0.00    -0.047 C 
BRANCH  21  22
ATOM     22  C   UNL     1       5.824   5.904   0.648  0.00  0.00    +0.051 C 
ATOM     23  C   UNL     1       4.782   7.023   0.594  0.00  0.00    +0.033 C 
ATOM     24  C   UNL     1       5.380   8.305   1.176  0.00  0.00    +0.003 C 
ATOM     25  C   UNL     1       6.608   8.711   0.359  0.00  0.00    +0.000 C 
ATOM     26  C   UNL     1       7.650   7.592   0.414  0.00  0.00    +0.003 C 
ATOM     27  C   UNL     1       7.052   6.310  -0.169  0.00  0.00    +0.033 C 
BRANCH  22  28
ATOM     28  O   UNL     1       6.208   5.676   2.006  0.00  0.00    -0.390 OA
ATOM     29  H   UNL     1       5.477   5.415   2.583  0.00  0.00    +0.210 HD
ENDBRANCH  22  28
ENDBRANCH  21  22
ENDBRANCH  18  21
ENDBRANCH   7  18
BRANCH   1  30
ATOM     30  C   UNL     1       1.633  -1.798  -0.462  0.00  0.00    +0.170 C 
BRANCH  30  32
ATOM     31  C   UNL     1       3.071  -2.479  -2.314  0.00  0.00    +0.006 C 
ATOM     32  C   UNL     1       1.913  -2.003  -1.929  0.00  0.00    -0.012 C 
ENDBRANCH  30  32
ENDBRANCH   1  30
TORSDOF 7
