REMARK  Name = ZINC04185249
REMARK  10 active torsions:
REMARK  status: ('A' for Active; 'I' for Inactive)
REMARK    1  A    between atoms: C_6  and  O_7
REMARK    2  A    between atoms: O_7  and  C_8
REMARK    3  A    between atoms: C_10  and  N_17
REMARK    4  A    between atoms: C_12  and  N_14
REMARK    5  A    between atoms: N_17  and  C_18
REMARK    6  A    between atoms: C_20  and  O_33
REMARK    7  A    between atoms: C_22  and  O_32
REMARK    8  A    between atoms: C_24  and  O_31
REMARK    9  A    between atoms: C_26  and  C_29
REMARK   10  A    between atoms: C_29  and  O_30
REMARK                            x       y       z     vdW  Elec       q    Type
REMARK                         _______ _______ _______ _____ _____    ______ ____
ROOT
ATOM      1  C   UNL     1       2.774   2.679   4.589  0.00  0.00    +0.132 A 
ATOM      2  C   UNL     1       2.716   1.857   3.473  0.00  0.00    +0.069 A 
ATOM      3  C   UNL     1       2.003   2.262   2.353  0.00  0.00    +0.035 A 
ATOM      4  C   UNL     1       1.342   3.484   2.357  0.00  0.00    +0.056 A 
ATOM      5  C   UNL     1       1.398   4.298   3.472  0.00  0.00    +0.131 A 
ATOM      6  C   UNL     1       2.111   3.898   4.587  0.00  0.00    +0.079 A 
ENDROOT
BRANCH   5   7
ATOM      7  N   UNL     1       0.693   5.599   3.473  0.00  0.00    +0.057 N 
ATOM      8  O   UNL     1       0.064   5.952   2.492  0.00  0.00    -0.126 OA
ATOM      9  O   UNL     1       0.741   6.317   4.456  0.00  0.00    -0.126 OA
ENDBRANCH   5   7
BRANCH   3  10
ATOM     10  N   UNL     1       1.947   1.440   1.226  0.00  0.00    -0.317 N 
ATOM     11  H   UNL     1       2.409   0.587   1.224  0.00  0.00    +0.149 HD
BRANCH  10  12
ATOM     12  C   UNL     1       1.190   1.865   0.046  0.00  0.00    +0.235 C 
ATOM     13  C   UNL     1       1.900   1.378  -1.220  0.00  0.00    +0.192 C 
ATOM     14  C   UNL     1       1.936  -0.153  -1.218  0.00  0.00    +0.178 C 
ATOM     15  C   UNL     1       0.503  -0.686  -1.113  0.00  0.00    +0.177 C 
ATOM     16  C   UNL     1      -0.153  -0.119   0.148  0.00  0.00    +0.177 C 
ATOM     17  O   UNL     1      -0.126   1.308   0.097  0.00  0.00    -0.348 OA
BRANCH  15  18
ATOM     18  O   UNL     1      -0.242  -0.281  -2.263  0.00  0.00    -0.386 OA
ATOM     19  H   UNL     1       0.118  -0.606  -3.100  0.00  0.00    +0.210 HD
ENDBRANCH  15  18
BRANCH  14  20
ATOM     20  O   UNL     1       2.532  -0.621  -2.430  0.00  0.00    -0.386 OA
ATOM     21  H   UNL     1       3.442  -0.320  -2.561  0.00  0.00    +0.210 HD
ENDBRANCH  14  20
BRANCH  13  22
ATOM     22  O   UNL     1       1.191   1.838  -2.372  0.00  0.00    -0.385 OA
ATOM     23  H   UNL     1       1.129   2.801  -2.438  0.00  0.00    +0.210 HD
ENDBRANCH  13  22
BRANCH  16  24
ATOM     24  C   UNL     1      -1.603  -0.599   0.229  0.00  0.00    +0.190 C 
BRANCH  24  25
ATOM     25  O   UNL     1      -2.181  -0.166   1.462  0.00  0.00    -0.392 OA
ATOM     26  H   UNL     1      -3.102  -0.435   1.581  0.00  0.00    +0.210 HD
ENDBRANCH  24  25
ENDBRANCH  16  24
ENDBRANCH  10  12
ENDBRANCH   3  10
BRANCH   1  27
ATOM     27  O   UNL     1       3.474   2.288   5.685  0.00  0.00    -0.456 OA
BRANCH  27  33
ATOM     28  C   UNL     1       5.463   2.631   4.425  0.00  0.00    +0.049 A 
ATOM     29  C   UNL     1       6.838   2.552   4.324  0.00  0.00    +0.042 A 
ATOM     30  C   UNL     1       7.582   2.038   5.373  0.00  0.00    +0.124 A 
ATOM     31  C   UNL     1       6.948   1.608   6.526  0.00  0.00    +0.042 A 
ATOM     32  C   UNL     1       5.573   1.691   6.633  0.00  0.00    +0.049 A 
ATOM     33  C   UNL     1       4.827   2.206   5.582  0.00  0.00    +0.129 A 
ATOM     34  F   UNL     1       8.926   1.955   5.270  0.00  0.00    -0.205 F 
ENDBRANCH  27  33
ENDBRANCH   1  27
TORSDOF 10
