REMARK  Name = ZINC05200797
REMARK  9 active torsions:
REMARK  status: ('A' for Active; 'I' for Inactive)
REMARK    1  A    between atoms: C_1  and  N_54
REMARK    2  A    between atoms: C_2  and  N_54
REMARK    3  A    between atoms: C_3  and  C_5
REMARK    4  A    between atoms: C_3  and  C_24
REMARK    5  A    between atoms: C_3  and  N_54
REMARK    6  A    between atoms: C_5  and  N_6
REMARK    7  A    between atoms: C_7  and  C_9
REMARK    8  A    between atoms: C_12  and  N_18
REMARK    9  A    between atoms: C_13  and  N_15
REMARK                            x       y       z     vdW  Elec       q    Type
REMARK                         _______ _______ _______ _____ _____    ______ ____
ROOT
ATOM      1  N   UNL     1       1.961   1.911   1.173  0.00  0.00    -0.313 N 
ATOM      2  C   UNL     1       3.147   2.539   1.050  0.00  0.00    +0.244 C 
ATOM      3  O   UNL     1       3.639   3.104   2.009  0.00  0.00    -0.270 OA
ATOM      4  H   UNL     1       1.569   1.461   0.409  0.00  0.00    +0.149 HD
ENDROOT
BRANCH   2   5
ATOM      5  C   UNL     1       3.849   2.543  -0.248  0.00  0.00    +0.039 A 
ATOM      6  C   UNL     1       3.288   1.889  -1.349  0.00  0.00    +0.015 A 
ATOM      7  C   UNL     1       3.942   1.900  -2.560  0.00  0.00    +0.026 A 
ATOM      8  C   UNL     1       5.167   2.549  -2.685  0.00  0.00    +0.060 A 
ATOM      9  C   UNL     1       5.731   3.196  -1.589  0.00  0.00    +0.148 A 
ATOM     10  C   UNL     1       5.079   3.194  -0.377  0.00  0.00    +0.047 A 
BRANCH   8  11
ATOM     11  N   UNL     1       5.828   2.552  -3.908  0.00  0.00    -0.328 N 
ATOM     12  C   UNL     1       5.052   3.274  -4.925  0.00  0.00    +0.105 C 
ATOM     13  C   UNL     1       5.871   3.383  -6.212  0.00  0.00    +0.019 C 
ATOM     14  C   UNL     1       6.218   1.978  -6.711  0.00  0.00    +0.003 C 
ATOM     15  C   UNL     1       6.984   1.230  -5.616  0.00  0.00    +0.019 C 
ATOM     16  C   UNL     1       6.132   1.184  -4.346  0.00  0.00    +0.105 C 
ENDBRANCH   8  11
BRANCH   9  17
ATOM     17  N   UNL     1       7.033   3.886  -1.727  0.00  0.00    +0.058 N 
ATOM     18  O   UNL     1       7.527   4.452  -0.769  0.00  0.00    -0.126 OA
ATOM     19  O   UNL     1       7.611   3.887  -2.800  0.00  0.00    -0.126 OA
ENDBRANCH   9  17
ENDBRANCH   2   5
BRANCH   1  20
ATOM     20  C   UNL     1       1.265   1.908   2.462  0.00  0.00    +0.094 C 
BRANCH  20  21
ATOM     21  C   UNL     1       0.013   1.032   2.363  0.00  0.00    -0.014 C 
BRANCH  21  22
ATOM     22  C   UNL     1      -0.751   1.100   3.660  0.00  0.00    -0.022 A 
ATOM     23  C   UNL     1      -0.940   0.133   4.591  0.00  0.00    +0.009 A 
ATOM     24  C   UNL     1      -1.683   0.425   5.720  0.00  0.00    +0.008 A 
ATOM     25  C   UNL     1      -2.209   1.667   5.857  0.00  0.00    +0.045 A 
ATOM     26  S   UNL     1      -1.648   2.473   4.366  0.00  0.00    -0.103 S 
ENDBRANCH  21  22
BRANCH  21  29
ATOM     27  C   UNL     1      -1.191   2.929   1.460  0.00  0.00    -0.096 C 
ATOM     28  C   UNL     1      -2.042   0.686   1.130  0.00  0.00    -0.096 C 
ATOM     29  N   UNL     1      -0.822   1.514   1.243  0.00  0.00    +0.382 N 
ATOM     30  H   UNL     1      -0.286   1.440   0.371  0.00  0.00    -0.082 HD
ENDBRANCH  21  29
ENDBRANCH  20  21
ENDBRANCH   1  20
TORSDOF 7
