REMARK  Name = ZINC27165035
REMARK  10 active torsions:
REMARK  status: ('A' for Active; 'I' for Inactive)
REMARK    1  A    between atoms: C_1  and  C_2
REMARK    2  A    between atoms: C_6  and  O_27
REMARK    3  A    between atoms: C_12  and  C_13
REMARK    4  A    between atoms: C_13  and  C_14
REMARK    5  A    between atoms: C_14  and  C_15
REMARK    6  A    between atoms: N_17  and  C_18
REMARK    7  A    between atoms: N_17  and  C_19
REMARK    8  A    between atoms: C_19  and  C_21
REMARK    9  A    between atoms: C_19  and  C_22
REMARK   10  A    between atoms: O_27  and  C_28
REMARK                            x       y       z     vdW  Elec       q    Type
REMARK                         _______ _______ _______ _____ _____    ______ ____
ROOT
ATOM      1  C   UNL     1      -0.330   2.034  -0.090  0.00  0.00    +0.045 C 
ATOM      2  C   UNL     1      -0.040   0.555  -0.124  0.00  0.00    -0.030 A 
ATOM      3  C   UNL     1       0.044  -0.165  -1.396  0.00  0.00    +0.021 A 
ATOM      4  C   UNL     1      -0.144   0.498  -2.614  0.00  0.00    +0.015 A 
ATOM      5  C   UNL     1      -0.060  -0.197  -3.785  0.00  0.00    +0.046 A 
ATOM      6  C   UNL     1       0.211  -1.564  -3.776  0.00  0.00    +0.124 A 
ATOM      7  C   UNL     1       0.399  -2.237  -2.580  0.00  0.00    +0.092 A 
ATOM      8  C   UNL     1       0.317  -1.546  -1.381  0.00  0.00    +0.143 A 
ATOM      9  O   UNL     1       0.498  -2.182  -0.204  0.00  0.00    -0.422 OA
ATOM     10  C   UNL     1       0.423  -1.527   0.965  0.00  0.00    +0.341 A 
ATOM     11  O   UNL     1       0.593  -2.143   2.002  0.00  0.00    -0.245 OA
ATOM     12  C   UNL     1       0.157  -0.144   1.024  0.00  0.00    +0.041 A 
ENDROOT
BRANCH   6  13
ATOM     13  O   UNL     1       0.290  -2.242  -4.950  0.00  0.00    -0.495 OA
ATOM     14  C   UNL     1       0.086  -1.491  -6.148  0.00  0.00    +0.277 C 
ENDBRANCH   6  13
BRANCH  12  15
ATOM     15  C   UNL     1       0.087   0.556   2.356  0.00  0.00    +0.052 C 
BRANCH  15  16
ATOM     16  C   UNL     1      -1.321   0.406   2.938  0.00  0.00    +0.101 C 
BRANCH  16  17
ATOM     17  C   UNL     1      -1.391   1.107   4.270  0.00  0.00    +0.216 C 
ATOM     18  O   UNL     1      -0.411   1.670   4.712  0.00  0.00    -0.276 OA
ATOM     19  N   UNL     1      -2.542   1.107   4.972  0.00  0.00    -0.297 N 
ATOM     20  C   UNL     1      -3.724   0.426   4.439  0.00  0.00    +0.132 C 
BRANCH  19  21
ATOM     21  C   UNL     1      -2.610   1.787   6.267  0.00  0.00    +0.109 C 
ATOM     22  C   UNL     1      -3.132   0.815   7.327  0.00  0.00    +0.034 C 
BRANCH  21  23
ATOM     23  C   UNL     1      -3.541   2.968   6.166  0.00  0.00    +0.010 A 
ATOM     24  C   UNL     1      -3.356   4.240   6.595  0.00  0.00    +0.013 A 
ATOM     25  C   UNL     1      -4.359   5.169   6.392  0.00  0.00    +0.008 A 
ATOM     26  C   UNL     1      -5.499   4.780   5.769  0.00  0.00    +0.045 A 
ATOM     27  S   UNL     1      -5.171   3.055   5.443  0.00  0.00    -0.100 S 
ENDBRANCH  21  23
ENDBRANCH  19  21
ENDBRANCH  16  17
ENDBRANCH  15  16
ENDBRANCH  12  15
TORSDOF 6
