REMARK  Name = ZINC20745486
REMARK  6 active torsions:
REMARK  status: ('A' for Active; 'I' for Inactive)
REMARK    1  A    between atoms: C_4  and  C_7
REMARK    2  A    between atoms: C_9  and  C_12
REMARK    3  A    between atoms: C_12  and  C_13
REMARK    4  A    between atoms: N_15  and  C_16
REMARK    5  A    between atoms: C_16  and  C_17
REMARK    6  A    between atoms: C_20  and  C_23
REMARK                            x       y       z     vdW  Elec       q    Type
REMARK                         _______ _______ _______ _____ _____    ______ ____
ROOT
ATOM      1  C   UNL     1      -6.611   4.896   1.686  0.00  0.00    +0.219 C 
ATOM      2  O   UNL     1      -7.303   5.285   0.769  0.00  0.00    -0.275 OA
ATOM      3  N   UNL     1      -5.456   4.250   1.431  0.00  0.00    -0.311 N 
ATOM      4  H   UNL     1      -4.829   3.897   2.263  0.00  0.00    +0.149 HD
ENDROOT
BRANCH   1   5
ATOM      5  C   UNL     1      -7.043   5.133   3.110  0.00  0.00    +0.151 C 
BRANCH   5   8
ATOM      6  C   UNL     1      -9.626   7.673   2.467  0.00  0.00    +0.109 A 
ATOM      7  N   UNL     1      -8.481   7.005   2.475  0.00  0.00    -0.243 NA
ATOM      8  C   UNL     1      -8.359   5.869   3.120  0.00  0.00    +0.058 A 
ATOM      9  C   UNL     1      -9.422   5.354   3.793  0.00  0.00    +0.071 A 
ATOM     10  S   UNL     1     -10.656   6.607   3.468  0.00  0.00    -0.075 S 
BRANCH   6  14
ATOM     11  C   UNL     1     -10.590  11.351   0.574  0.00  0.00    +0.000 A 
ATOM     12  C   UNL     1     -11.552  10.683   1.311  0.00  0.00    +0.001 A 
ATOM     13  C   UNL     1     -11.245   9.488   1.929  0.00  0.00    +0.010 A 
ATOM     14  C   UNL     1      -9.962   8.953   1.808  0.00  0.00    +0.007 A 
ATOM     15  C   UNL     1      -8.995   9.635   1.068  0.00  0.00    +0.010 A 
ATOM     16  C   UNL     1      -9.316  10.826   0.451  0.00  0.00    +0.001 A 
ENDBRANCH   6  14
ENDBRANCH   5   8
ENDBRANCH   1   5
BRANCH   3  17
ATOM     17  C   UNL     1      -5.036   4.019   0.047  0.00  0.00    +0.139 C 
BRANCH  17  18
ATOM     18  C   UNL     1      -3.720   3.284   0.037  0.00  0.00    -0.030 A 
ATOM     19  C   UNL     1      -3.705   1.900   0.030  0.00  0.00    +0.006 A 
ATOM     20  C   UNL     1      -2.505   1.220   0.021  0.00  0.00    +0.015 A 
ATOM     21  C   UNL     1      -1.304   1.932   0.019  0.00  0.00    +0.063 A 
ATOM     22  C   UNL     1      -1.326   3.328   0.032  0.00  0.00    +0.015 A 
ATOM     23  C   UNL     1      -2.534   3.995   0.036  0.00  0.00    +0.006 A 
BRANCH  21  24
ATOM     24  C   UNL     1      -0.014   1.210   0.009  0.00  0.00    +0.387 C 
ATOM     25  O   UNL     1       0.002  -0.004   0.002  0.00  0.00    -0.241 OA
ATOM     26  O   UNL     1       1.143   1.900   0.001  0.00  0.00    -0.241 OA
ENDBRANCH  21  24
ENDBRANCH  17  18
ENDBRANCH   3  17
TORSDOF 6
