REMARK  Name = ZINC38684665
REMARK  16 active torsions:
REMARK  status: ('A' for Active; 'I' for Inactive)
REMARK    1  A    between atoms: C_1  and  C_2
REMARK    2  A    between atoms: C_2  and  C_3
REMARK    3  A    between atoms: C_2  and  C_4
REMARK    4  A    between atoms: C_4  and  C_5
REMARK    5  A    between atoms: C_5  and  O_6
REMARK    6  A    between atoms: O_6  and  C_7
REMARK    7  A    between atoms: C_11  and  C_13
REMARK    8  A    between atoms: C_18  and  O_27
REMARK    9  A    between atoms: C_22  and  N_26
REMARK   10  A    between atoms: C_23  and  C_24
REMARK   11  A    between atoms: O_27  and  C_28
REMARK   12  A    between atoms: C_28  and  C_30
REMARK   13  A    between atoms: C_30  and  O_31
REMARK   14  A    between atoms: O_31  and  C_32
REMARK   15  A    between atoms: C_35  and  O_38
REMARK   16  A    between atoms: O_38  and  C_39
REMARK                            x       y       z     vdW  Elec       q    Type
REMARK                         _______ _______ _______ _____ _____    ______ ____
ROOT
ATOM      1  C   UNL     1      -5.760  -6.456  -0.381  0.00  0.00    +0.098 C 
ATOM      2  C   UNL     1      -5.893  -7.390   0.792  0.00  0.00    +0.008 A 
ATOM      3  C   UNL     1      -5.973  -6.870   2.072  0.00  0.00    +0.012 A 
ATOM      4  C   UNL     1      -6.095  -7.711   3.159  0.00  0.00    +0.047 A 
ATOM      5  C   UNL     1      -6.140  -9.086   2.971  0.00  0.00    +0.135 A 
ATOM      6  C   UNL     1      -6.060  -9.610   1.691  0.00  0.00    +0.093 A 
ATOM      7  C   UNL     1      -5.936  -8.762   0.598  0.00  0.00    +0.138 A 
ATOM      8  O   UNL     1      -5.860  -9.291  -0.648  0.00  0.00    -0.441 OA
ATOM      9  C   UNL     1      -6.128  -8.525  -1.718  0.00  0.00    +0.199 C 
ATOM     10  C   UNL     1      -6.095  -7.176  -1.656  0.00  0.00    +0.098 C 
ENDROOT
BRANCH   1  15
ATOM     11  C   UNL     1      -2.789  -4.121  -0.424  0.00  0.00    +0.121 A 
ATOM     12  C   UNL     1      -1.740  -5.014  -0.589  0.00  0.00    +0.045 A 
ATOM     13  C   UNL     1      -1.996  -6.368  -0.685  0.00  0.00    +0.004 A 
ATOM     14  C   UNL     1      -3.297  -6.833  -0.617  0.00  0.00    +0.005 A 
ATOM     15  C   UNL     1      -4.343  -5.945  -0.454  0.00  0.00    -0.031 A 
ATOM     16  C   UNL     1      -4.092  -4.591  -0.351  0.00  0.00    +0.050 A 
BRANCH  11  17
ATOM     17  O   UNL     1      -2.539  -2.788  -0.329  0.00  0.00    -0.492 OA
BRANCH  17  18
ATOM     18  C   UNL     1      -1.173  -2.377  -0.412  0.00  0.00    +0.229 C 
BRANCH  18  19
ATOM     19  C   UNL     1      -1.091  -0.854  -0.285  0.00  0.00    +0.044 C 
BRANCH  19  21
ATOM     20  C   UNL     1       0.445   1.115  -0.373  0.00  0.00    +0.007 C 
ATOM     21  C   UNL     1       0.372  -0.413  -0.374  0.00  0.00    -0.014 C 
ATOM     22  C   UNL     1       1.144  -0.962   0.827  0.00  0.00    +0.007 C 
ENDBRANCH  19  21
ENDBRANCH  18  19
ENDBRANCH  17  18
ENDBRANCH  11  17
ENDBRANCH   1  15
BRANCH   9  23
ATOM     23  N   UNL     1      -6.441  -9.131  -2.909  0.00  0.00    -0.328 N 
ATOM     24  H   UNL     1      -6.467 -10.099  -2.969  0.00  0.00    +0.145 HD
ATOM     25  H   UNL     1      -6.637  -8.592  -3.692  0.00  0.00    +0.145 HD
ENDBRANCH   9  23
BRANCH  10  26
ATOM     26  C   UNL     1      -6.390  -6.417  -2.834  0.00  0.00    +0.101 C 
ATOM     27  N   UNL     1      -6.623  -5.815  -3.769  0.00  0.00    -0.191 NA
ENDBRANCH  10  26
BRANCH   5  28
ATOM     28  O   UNL     1      -6.260  -9.916   4.040  0.00  0.00    -0.423 OA
BRANCH  28  29
ATOM     29  C   UNL     1      -5.206 -10.681   4.367  0.00  0.00    +0.350 C 
ATOM     30  O   UNL     1      -4.157 -10.544   3.783  0.00  0.00    -0.247 OA
BRANCH  29  31
ATOM     31  C   UNL     1      -5.331 -11.709   5.461  0.00  0.00    +0.349 C 
BRANCH  31  32
ATOM     32  O   UNL     1      -4.085 -12.390   5.620  0.00  0.00    -0.481 OA
BRANCH  32  33
ATOM     33  C   UNL     1      -4.027 -13.357   6.574  0.00  0.00    +0.122 A 
ATOM     34  C   UNL     1      -5.149 -13.648   7.336  0.00  0.00    +0.049 A 
ATOM     35  C   UNL     1      -5.090 -14.630   8.305  0.00  0.00    +0.049 A 
ATOM     36  C   UNL     1      -3.909 -15.326   8.516  0.00  0.00    +0.120 A 
ATOM     37  C   UNL     1      -2.787 -15.036   7.753  0.00  0.00    +0.049 A 
ATOM     38  C   UNL     1      -2.847 -14.057   6.781  0.00  0.00    +0.049 A 
BRANCH  36  39
ATOM     39  O   UNL     1      -3.850 -16.293   9.471  0.00  0.00    -0.495 OA
ATOM     40  C   UNL     1      -2.602 -16.970   9.633  0.00  0.00    +0.277 C 
ENDBRANCH  36  39
ENDBRANCH  32  33
ENDBRANCH  31  32
ENDBRANCH  29  31
ENDBRANCH  28  29
ENDBRANCH   5  28
TORSDOF 13
