REMARK  Name = ZINC32923193
REMARK  7 active torsions:
REMARK  status: ('A' for Active; 'I' for Inactive)
REMARK    1  A    between atoms: C_2  and  C_3
REMARK    2  A    between atoms: C_3  and  N_4
REMARK    3  A    between atoms: C_5  and  C_20
REMARK    4  A    between atoms: N_7  and  C_10
REMARK    5  A    between atoms: C_10  and  N_11
REMARK    6  A    between atoms: N_11  and  C_12
REMARK    7  A    between atoms: N_11  and  C_17
REMARK                            x       y       z     vdW  Elec       q    Type
REMARK                         _______ _______ _______ _____ _____    ______ ____
ROOT
ATOM      1  N   UNL     1       4.961   6.437   0.825  0.00  0.00    -0.300 N 
ATOM      2  C   UNL     1       4.258   5.458   0.166  0.00  0.00    +0.177 A 
ATOM      3  N   UNL     1       4.683   5.388  -1.055  0.00  0.00    -0.154 NA
ATOM      4  N   UNL     1       5.700   6.339  -1.218  0.00  0.00    -0.257 N 
ATOM      5  C   UNL     1       5.852   6.971  -0.035  0.00  0.00    +0.177 A 
ATOM      6  S   UNL     1       6.966   8.225   0.309  0.00  0.00    -0.011 S 
ENDROOT
BRANCH   2   7
ATOM      7  C   UNL     1       3.167   4.609   0.764  0.00  0.00    +0.278 C 
ATOM      8  C   UNL     1       1.800   5.089   0.258  0.00  0.00    +0.281 C 
ATOM      9  O   UNL     1       0.790   4.254   0.833  0.00  0.00    -0.484 OA
ATOM     10  C   UNL     1       1.013   2.912   0.797  0.00  0.00    +0.162 A 
ATOM     11  C   UNL     1      -0.048   2.040   0.995  0.00  0.00    +0.049 A 
ATOM     12  C   UNL     1       0.163   0.675   0.962  0.00  0.00    +0.004 A 
ATOM     13  C   UNL     1       1.432   0.174   0.742  0.00  0.00    +0.004 A 
ATOM     14  C   UNL     1       2.493   1.037   0.542  0.00  0.00    +0.049 A 
ATOM     15  C   UNL     1       2.288   2.408   0.568  0.00  0.00    +0.163 A 
ATOM     16  O   UNL     1       3.341   3.246   0.362  0.00  0.00    -0.474 OA
ENDBRANCH   2   7
BRANCH   1  17
ATOM     17  C   UNL     1       4.777   6.831   2.223  0.00  0.00    +0.152 C 
BRANCH  17  19
ATOM     18  C   UNL     1       6.519   6.594   3.917  0.00  0.00    +0.005 C 
ATOM     19  C   UNL     1       5.680   6.005   3.102  0.00  0.00    -0.013 C 
ENDBRANCH  17  19
ENDBRANCH   1  17
BRANCH   4  20
ATOM     20  C   UNL     1       6.457   6.600  -2.445  0.00  0.00    +0.072 C 
BRANCH  20  21
ATOM     21  N   UNL     1       5.855   7.733  -3.160  0.00  0.00    +0.396 N 
ATOM     22  H   UNL     1       5.661   8.530  -2.428  0.00  0.00    -0.078 HD
BRANCH  21  23
ATOM     23  C   UNL     1       6.777   8.265  -4.173  0.00  0.00    -0.066 C 
ATOM     24  C   UNL     1       7.199   7.144  -5.144  0.00  0.00    -0.015 C 
ATOM     25  C   UNL     1       8.687   7.449  -5.452  0.00  0.00    -0.002 C 
ATOM     26  C   UNL     1       9.224   7.941  -4.085  0.00  0.00    -0.002 C 
ATOM     27  C   UNL     1       8.064   8.772  -3.499  0.00  0.00    -0.015 C 
ENDBRANCH  21  23
BRANCH  21  28
ATOM     28  C   UNL     1       4.572   7.352  -3.765  0.00  0.00    -0.066 C 
ATOM     29  C   UNL     1       3.448   8.391  -3.750  0.00  0.00    -0.017 C 
ATOM     30  C   UNL     1       3.376   7.171  -2.828  0.00  0.00    -0.017 C 
ENDBRANCH  21  28
ENDBRANCH  20  21
ENDBRANCH   4  20
TORSDOF 7
