REMARK  Name = ZINC23887992
REMARK  11 active torsions:
REMARK  status: ('A' for Active; 'I' for Inactive)
REMARK    1  A    between atoms: C_1  and  C_2
REMARK    2  A    between atoms: C_7  and  C_9
REMARK    3  A    between atoms: C_7  and  C_10
REMARK    4  A    between atoms: N_13  and  C_17
REMARK    5  A    between atoms: C_17  and  C_18
REMARK    6  A    between atoms: C_18  and  O_20
REMARK    7  A    between atoms: O_20  and  C_21
REMARK    8  A    between atoms: C_21  and  C_22
REMARK    9  A    between atoms: N_24  and  C_25
REMARK   10  A    between atoms: C_30  and  C_31
REMARK   11  A    between atoms: N_33  and  C_34
REMARK                            x       y       z     vdW  Elec       q    Type
REMARK                         _______ _______ _______ _____ _____    ______ ____
ROOT
ATOM      1  C   UNL     1       1.563  -4.660  -4.745  0.00  0.00    +0.326 C 
ATOM      2  O   UNL     1       1.647  -5.175  -3.655  0.00  0.00    -0.249 OA
ENDROOT
BRANCH   1   3
ATOM      3  C   UNL     1       1.415  -3.165  -4.864  0.00  0.00    +0.238 C 
BRANCH   3  15
ATOM      4  C   UNL     1       2.165   1.874   0.064  0.00  0.00    +0.007 C 
ATOM      5  C   UNL     1       1.804   0.394  -0.081  0.00  0.00    -0.011 C 
ATOM      6  C   UNL     1       2.347  -0.136  -1.410  0.00  0.00    +0.038 C 
ATOM      7  C   UNL     1       2.006  -1.616  -1.546  0.00  0.00    +0.113 C 
ATOM      8  C   UNL     1       2.598  -2.414  -0.391  0.00  0.00    +0.041 C 
ATOM      9  C   UNL     1       2.054  -1.876   0.935  0.00  0.00    -0.032 C 
ATOM     10  C   UNL     1       2.422  -0.397   1.073  0.00  0.00    +0.009 C 
ATOM     11  C   UNL     1       2.666  -2.664   2.095  0.00  0.00    +0.011 C 
ATOM     12  C   UNL     1       0.532  -2.027   0.961  0.00  0.00    +0.011 C 
ATOM     13  C   UNL     1       2.503  -2.153  -2.869  0.00  0.00    +0.247 C 
ATOM     14  O   UNL     1       3.650  -2.200  -3.257  0.00  0.00    -0.273 OA
ATOM     15  N   UNL     1       1.400  -2.568  -3.526  0.00  0.00    -0.213 N 
ATOM     16  C   UNL     1       0.291  -2.368  -2.804  0.00  0.00    +0.310 C 
ATOM     17  O   UNL     1      -0.825  -2.662  -3.184  0.00  0.00    -0.252 OA
ATOM     18  N   UNL     1       0.551  -1.804  -1.609  0.00  0.00    -0.285 N 
ATOM     19  H   UNL     1      -0.096  -1.569  -0.925  0.00  0.00    +0.151 HD
ENDBRANCH   3  15
ENDBRANCH   1   3
BRANCH   1  20
ATOM     20  O   UNL     1       1.601  -5.420  -5.851  0.00  0.00    -0.454 OA
BRANCH  20  21
ATOM     21  C   UNL     1       1.743  -6.830  -5.664  0.00  0.00    +0.328 C 
BRANCH  21  22
ATOM     22  C   UNL     1       1.766  -7.515  -7.007  0.00  0.00    +0.255 C 
ATOM     23  O   UNL     1       1.671  -6.860  -8.023  0.00  0.00    -0.272 OA
ATOM     24  N   UNL     1       1.893  -8.855  -7.078  0.00  0.00    -0.282 N 
ATOM     25  H   UNL     1       1.894  -9.385  -6.266  0.00  0.00    +0.155 HD
BRANCH  24  26
ATOM     26  C   UNL     1       2.023  -9.477  -8.317  0.00  0.00    +0.046 A 
ATOM     27  C   UNL     1       1.232  -9.076  -9.385  0.00  0.00    +0.024 A 
ATOM     28  C   UNL     1       1.362  -9.694 -10.612  0.00  0.00    +0.002 A 
ATOM     29  C   UNL     1       2.279 -10.718 -10.788  0.00  0.00    +0.001 A 
ATOM     30  C   UNL     1       3.073 -11.129  -9.739  0.00  0.00    +0.015 A 
ATOM     31  C   UNL     1       2.957 -10.509  -8.493  0.00  0.00    +0.058 A 
BRANCH  31  32
ATOM     32  C   UNL     1       3.807 -10.941  -7.367  0.00  0.00    +0.246 C 
ATOM     33  O   UNL     1       3.729 -10.373  -6.295  0.00  0.00    -0.270 OA
ATOM     34  N   UNL     1       4.670 -11.963  -7.528  0.00  0.00    -0.308 N 
ATOM     35  H   UNL     1       4.731 -12.416  -8.384  0.00  0.00    +0.149 HD
BRANCH  34  36
ATOM     36  C   UNL     1       5.514 -12.392  -6.410  0.00  0.00    +0.073 C 
ATOM     37  C   UNL     1       6.984 -12.691  -6.710  0.00  0.00    +0.024 C 
ATOM     38  C   UNL     1       6.014 -13.838  -6.416  0.00  0.00    +0.024 C 
ENDBRANCH  34  36
ENDBRANCH  31  32
ENDBRANCH  24  26
ENDBRANCH  21  22
ENDBRANCH  20  21
ENDBRANCH   1  20
TORSDOF 8
