REMARK  Name = ZINC09546546
REMARK  3 active torsions:
REMARK  status: ('A' for Active; 'I' for Inactive)
REMARK    1  A    between atoms: C_1  and  C_2
REMARK    2  A    between atoms: C_7  and  C_8
REMARK    3  A    between atoms: C_16  and  C_20
REMARK                            x       y       z     vdW  Elec       q    Type
REMARK                         _______ _______ _______ _____ _____    ______ ____
ROOT
ATOM      1  C   UNL     1       0.004  -0.326   2.130  0.00  0.00    +0.063 C 
ATOM      2  C   UNL     1       1.429  -0.695   2.554  0.00  0.00    +0.109 C 
ATOM      3  C   UNL     1       1.455  -2.002   3.293  0.00  0.00    +0.219 C 
ATOM      4  O   UNL     1       2.377  -2.767   3.102  0.00  0.00    -0.275 OA
ATOM      5  N   UNL     1       0.485  -2.353   4.164  0.00  0.00    -0.270 N 
ATOM      6  C   UNL     1      -0.661  -1.559   4.226  0.00  0.00    +0.125 A 
ATOM      7  C   UNL     1      -0.920  -0.593   3.291  0.00  0.00    +0.028 A 
ATOM      8  C   UNL     1      -2.125   0.025   3.631  0.00  0.00    +0.098 A 
ATOM      9  N   UNL     1      -2.588  -0.558   4.722  0.00  0.00    -0.172 NA
ATOM     10  N   UNL     1      -1.683  -1.565   5.104  0.00  0.00    -0.263 N 
ATOM     11  H   UNL     1      -1.777  -2.159   5.865  0.00  0.00    +0.190 HD
ATOM     12  H   UNL     1       0.581  -3.134   4.730  0.00  0.00    +0.156 HD
ENDROOT
BRANCH   1  19
ATOM     13  C   UNL     1      -0.510   0.923  -0.424  0.00  0.00    +0.044 C 
ATOM     14  C   UNL     1      -0.654  -0.570  -0.273  0.00  0.00    -0.047 A 
ATOM     15  C   UNL     1      -1.026  -1.342  -1.357  0.00  0.00    +0.003 A 
ATOM     16  C   UNL     1      -1.159  -2.711  -1.219  0.00  0.00    +0.000 A 
ATOM     17  C   UNL     1      -0.918  -3.308   0.005  0.00  0.00    +0.000 A 
ATOM     18  C   UNL     1      -0.545  -2.536   1.089  0.00  0.00    +0.004 A 
ATOM     19  C   UNL     1      -0.408  -1.167   0.949  0.00  0.00    -0.036 A 
ENDBRANCH   1  19
BRANCH   8  20
ATOM     20  C   UNL     1      -2.772   1.141   2.897  0.00  0.00    +0.002 A 
ATOM     21  C   UNL     1      -4.149   1.130   2.681  0.00  0.00    +0.010 A 
ATOM     22  C   UNL     1      -4.745   2.171   1.998  0.00  0.00    +0.001 A 
ATOM     23  C   UNL     1      -3.979   3.223   1.528  0.00  0.00    +0.000 A 
ATOM     24  C   UNL     1      -2.612   3.238   1.740  0.00  0.00    +0.001 A 
ATOM     25  C   UNL     1      -2.006   2.205   2.427  0.00  0.00    +0.010 A 
ENDBRANCH   8  20
TORSDOF 2
