REMARK  Name = ZINC57377550
REMARK  9 active torsions:
REMARK  status: ('A' for Active; 'I' for Inactive)
REMARK    1  A    between atoms: C_1  and  C_2
REMARK    2  A    between atoms: C_6  and  C_30
REMARK    3  A    between atoms: C_7  and  O_8
REMARK    4  A    between atoms: O_8  and  C_9
REMARK    5  A    between atoms: C_9  and  C_11
REMARK    6  A    between atoms: C_9  and  C_12
REMARK    7  A    between atoms: N_14  and  N_15
REMARK    8  A    between atoms: C_16  and  C_18
REMARK    9  A    between atoms: C_18  and  C_19
REMARK                            x       y       z     vdW  Elec       q    Type
REMARK                         _______ _______ _______ _____ _____    ______ ____
ROOT
ATOM      1  C   UNL     1      -1.535   1.219   3.514  0.00  0.00    +0.270 C 
ATOM      2  O   UNL     1      -0.646   1.993   3.798  0.00  0.00    -0.270 OA
ATOM      3  N   UNL     1      -2.780   1.420   3.988  0.00  0.00    -0.231 N 
ATOM      4  H   UNL     1      -3.492   0.801   3.761  0.00  0.00    +0.173 HD
ENDROOT
BRANCH   3   5
ATOM      5  N   UNL     1      -3.048   2.523   4.810  0.00  0.00    -0.234 N 
ATOM      6  C   UNL     1      -4.293   2.723   5.284  0.00  0.00    +0.233 C 
ATOM      7  O   UNL     1      -5.183   1.949   5.000  0.00  0.00    -0.274 OA
ATOM      8  H   UNL     1      -2.337   3.142   5.037  0.00  0.00    +0.173 HD
BRANCH   6   9
ATOM      9  C   UNL     1      -4.581   3.910   6.168  0.00  0.00    +0.146 C 
BRANCH   9  10
ATOM     10  C   UNL     1      -6.059   3.904   6.565  0.00  0.00    +0.216 C 
ATOM     11  C   UNL     1      -6.336   5.024   7.535  0.00  0.00    +0.007 A 
ATOM     12  C   UNL     1      -5.862   5.331   8.789  0.00  0.00    +0.008 A 
ATOM     13  C   UNL     1      -6.323   6.460   9.444  0.00  0.00    +0.000 A 
ATOM     14  C   UNL     1      -7.260   7.282   8.842  0.00  0.00    +0.001 A 
ATOM     15  C   UNL     1      -7.743   6.983   7.585  0.00  0.00    +0.015 A 
ATOM     16  C   UNL     1      -7.283   5.847   6.918  0.00  0.00    +0.066 A 
ATOM     17  C   UNL     1      -7.592   5.263   5.600  0.00  0.00    +0.340 C 
ATOM     18  O   UNL     1      -8.378   5.727   4.800  0.00  0.00    -0.245 OA
ATOM     19  O   UNL     1      -6.875   4.141   5.415  0.00  0.00    -0.453 OA
ENDBRANCH   9  10
ENDBRANCH   6   9
ENDBRANCH   3   5
BRANCH   1  20
ATOM     20  C   UNL     1      -1.247   0.033   2.630  0.00  0.00    +0.257 C 
ATOM     21  C   UNL     1      -1.567  -1.257   3.388  0.00  0.00    +0.062 C 
BRANCH  20  22
ATOM     22  O   UNL     1       0.133   0.038   2.259  0.00  0.00    -0.479 OA
BRANCH  22  29
ATOM     23  C   UNL     1       0.986  -2.654   2.228  0.00  0.00    +0.047 C 
ATOM     24  C   UNL     1       0.875  -1.822   0.976  0.00  0.00    -0.007 A 
ATOM     25  C   UNL     1       1.192  -2.374  -0.250  0.00  0.00    +0.027 A 
ATOM     26  C   UNL     1       1.091  -1.610  -1.400  0.00  0.00    +0.042 A 
ATOM     27  C   UNL     1       0.672  -0.293  -1.323  0.00  0.00    +0.027 A 
ATOM     28  C   UNL     1       0.355   0.262  -0.099  0.00  0.00    -0.007 A 
ATOM     29  C   UNL     1       0.450  -0.504   1.054  0.00  0.00    +0.127 A 
ATOM     30  C   UNL     1      -0.099   1.696  -0.016  0.00  0.00    +0.047 C 
ATOM     31 CL   UNL     1       1.490  -2.305  -2.940  0.00  0.00    -0.084 Cl
ENDBRANCH  22  29
ENDBRANCH  20  22
ENDBRANCH   1  20
TORSDOF 6
