REMARK  Name = ZINC13065153
REMARK  14 active torsions:
REMARK  status: ('A' for Active; 'I' for Inactive)
REMARK    1  A    between atoms: C_1  and  C_2
REMARK    2  A    between atoms: C_2  and  C_3
REMARK    3  A    between atoms: C_3  and  C_5
REMARK    4  A    between atoms: C_3  and  N_63
REMARK    5  A    between atoms: N_9  and  C_10
REMARK    6  A    between atoms: C_10  and  C_11
REMARK    7  A    between atoms: C_11  and  O_12
REMARK    8  A    between atoms: O_12  and  C_13
REMARK    9  A    between atoms: C_14  and  C_15
REMARK   10  A    between atoms: C_14  and  N_63
REMARK   11  A    between atoms: C_20  and  C_21
REMARK   12  A    between atoms: C_20  and  N_63
REMARK   13  A    between atoms: C_26  and  C_34
REMARK   14  A    between atoms: C_27  and  C_33
REMARK                            x       y       z     vdW  Elec       q    Type
REMARK                         _______ _______ _______ _____ _____    ______ ____
ROOT
ATOM      1  N   UNL     1       0.567   4.047  -1.329  0.00  0.00    +0.392 N 
ATOM      2  H   UNL     1      -0.200   3.421  -1.602  0.00  0.00    -0.080 HD
ENDROOT
BRANCH   1   3
ATOM      3  C   UNL     1       0.282   5.405  -1.839  0.00  0.00    +0.003 C 
BRANCH   3   4
ATOM      4  C   UNL     1      -0.383   5.283  -3.186  0.00  0.00    +0.138 A 
ATOM      5  N   UNL     1      -0.015   4.503  -4.173  0.00  0.00    -0.115 NA
ATOM      6  N   UNL     1      -0.834   4.685  -5.151  0.00  0.00    -0.023 NA
ATOM      7  N   UNL     1      -1.715   5.561  -4.813  0.00  0.00    -0.044 NA
ATOM      8  N   UNL     1      -1.474   5.950  -3.607  0.00  0.00    -0.229 N 
BRANCH   8   9
ATOM      9  C   UNL     1      -2.241   6.935  -2.840  0.00  0.00    +0.175 C 
BRANCH   9  10
ATOM     10  C   UNL     1      -1.666   8.332  -3.085  0.00  0.00    +0.183 C 
BRANCH  10  11
ATOM     11  O   UNL     1      -2.414   9.293  -2.337  0.00  0.00    -0.381 OA
ATOM     12  C   UNL     1      -1.957  10.637  -2.496  0.00  0.00    +0.194 C 
ENDBRANCH  10  11
ENDBRANCH   9  10
ENDBRANCH   8   9
ENDBRANCH   3   4
BRANCH   3  14
ATOM     13  C   UNL     1       2.186   6.442  -0.597  0.00  0.00    +0.002 C 
ATOM     14  C   UNL     1       1.579   6.205  -1.982  0.00  0.00    -0.011 C 
ENDBRANCH   3  14
ENDBRANCH   1   3
BRANCH   1  15
ATOM     15  C   UNL     1       1.829   3.543  -1.911  0.00  0.00    -0.034 C 
BRANCH  15  16
ATOM     16  C   UNL     1       1.877   2.047  -1.735  0.00  0.00    -0.027 A 
ATOM     17  C   UNL     1       1.434   1.075  -2.569  0.00  0.00    +0.009 A 
ATOM     18  C   UNL     1       1.587  -0.248  -2.198  0.00  0.00    +0.008 A 
ATOM     19  C   UNL     1       2.175  -0.534  -1.011  0.00  0.00    +0.045 A 
ATOM     20  S   UNL     1       2.542   1.095  -0.379  0.00  0.00    -0.103 S 
ENDBRANCH  15  16
ENDBRANCH   1  15
BRANCH   1  21
ATOM     21  C   UNL     1       0.664   4.072   0.145  0.00  0.00    -0.036 C 
BRANCH  21  22
ATOM     22  C   UNL     1      -0.728   4.085   0.721  0.00  0.00    +0.001 A 
ATOM     23  C   UNL     1      -1.341   2.916   1.034  0.00  0.00    +0.017 A 
ATOM     24  C   UNL     1      -2.694   2.963   1.591  0.00  0.00    -0.001 A 
ATOM     25  C   UNL     1      -3.377   1.791   1.932  0.00  0.00    +0.010 A 
ATOM     26  C   UNL     1      -4.639   1.868   2.449  0.00  0.00    +0.004 A 
ATOM     27  C   UNL     1      -5.250   3.100   2.639  0.00  0.00    -0.046 A 
ATOM     28  C   UNL     1      -4.596   4.268   2.310  0.00  0.00    -0.024 A 
ATOM     29  C   UNL     1      -3.310   4.214   1.782  0.00  0.00    +0.052 A 
ATOM     30  N   UNL     1      -2.633   5.366   1.444  0.00  0.00    -0.322 N 
ATOM     31  H   UNL     1      -3.059   6.227   1.577  0.00  0.00    +0.169 HD
ATOM     32  C   UNL     1      -1.390   5.313   0.933  0.00  0.00    +0.251 A 
ATOM     33  O   UNL     1      -0.823   6.352   0.640  0.00  0.00    -0.268 OA
ATOM     34  C   UNL     1      -5.271   5.599   2.523  0.00  0.00    +0.046 C 
ATOM     35  C   UNL     1      -6.643   3.162   3.212  0.00  0.00    +0.044 C 
ENDBRANCH  21  22
ENDBRANCH   1  21
TORSDOF 10
