REMARK  Name = ZINC04916503
REMARK  9 active torsions:
REMARK  status: ('A' for Active; 'I' for Inactive)
REMARK    1  A    between atoms: C_1  and  C_2
REMARK    2  A    between atoms: C_2  and  C_44
REMARK    3  A    between atoms: C_6  and  C_23
REMARK    4  A    between atoms: C_9  and  N_14
REMARK    5  A    between atoms: C_23  and  O_24
REMARK    6  A    between atoms: O_24  and  C_25
REMARK    7  A    between atoms: C_25  and  C_26
REMARK    8  A    between atoms: C_25  and  C_32
REMARK    9  A    between atoms: C_25  and  C_38
REMARK                            x       y       z     vdW  Elec       q    Type
REMARK                         _______ _______ _______ _____ _____    ______ ____
ROOT
ATOM      1  C   UNL     1      -0.124  -0.538  -0.774  0.00  0.00    +0.196 C 
ENDROOT
BRANCH   1   6
ATOM      2  C   UNL     1       0.802  -5.397  -2.230  0.00  0.00    +0.074 C 
ATOM      3  C   UNL     1       0.163  -5.168  -0.859  0.00  0.00    +0.166 C 
ATOM      4  O   UNL     1      -0.680  -3.974  -0.898  0.00  0.00    -0.341 OA
ATOM      5  C   UNL     1       0.207  -2.983  -0.450  0.00  0.00    +0.186 C 
ATOM      6  C   UNL     1      -0.148  -1.690   0.232  0.00  0.00    +0.178 C 
ATOM      7  O   UNL     1       0.873  -1.493   1.247  0.00  0.00    -0.346 OA
ATOM      8  C   UNL     1       1.723  -2.676   1.303  0.00  0.00    +0.255 C 
ATOM      9  C   UNL     1       0.818  -3.766   0.782  0.00  0.00    +0.203 C 
ATOM     10  O   UNL     1       1.201  -4.947   0.139  0.00  0.00    -0.339 OA
ATOM     11  C   UNL     1      -0.679  -6.385  -0.469  0.00  0.00    +0.074 C 
BRANCH   8  12
ATOM     12  N   UNL     1       2.895  -2.518   0.438  0.00  0.00    -0.271 N 
ATOM     13  C   UNL     1       3.595  -3.623   0.035  0.00  0.00    +0.098 A 
ATOM     14  C   UNL     1       4.672  -3.477  -0.765  0.00  0.00    +0.088 A 
ATOM     15  C   UNL     1       5.063  -2.176  -1.164  0.00  0.00    +0.254 A 
ATOM     16  O   UNL     1       6.033  -2.019  -1.883  0.00  0.00    -0.268 OA
ATOM     17  N   UNL     1       4.350  -1.112  -0.742  0.00  0.00    -0.275 N 
ATOM     18  H   UNL     1       4.619  -0.190  -1.019  0.00  0.00    +0.173 HD
ATOM     19  C   UNL     1       3.277  -1.287   0.052  0.00  0.00    +0.331 A 
ATOM     20  O   UNL     1       2.644  -0.318   0.426  0.00  0.00    -0.246 OA
ENDBRANCH   8  12
ENDBRANCH   1   6
BRANCH   1  21
ATOM     21  O   UNL     1      -0.595   0.655  -0.143  0.00  0.00    -0.357 OA
BRANCH  21  22
ATOM     22  C   UNL     1      -0.672   1.783  -1.017  0.00  0.00    +0.144 C 
BRANCH  22  23
ATOM     23  C   UNL     1       0.663   1.994  -1.684  0.00  0.00    -0.007 A 
ATOM     24  C   UNL     1       0.846   1.611  -3.000  0.00  0.00    +0.007 A 
ATOM     25  C   UNL     1       2.069   1.808  -3.613  0.00  0.00    +0.000 A 
ATOM     26  C   UNL     1       3.112   2.379  -2.908  0.00  0.00    +0.000 A 
ATOM     27  C   UNL     1       2.930   2.757  -1.590  0.00  0.00    +0.000 A 
ATOM     28  C   UNL     1       1.706   2.564  -0.978  0.00  0.00    +0.007 A 
ENDBRANCH  22  23
BRANCH  22  29
ATOM     29  C   UNL     1      -1.724   1.535  -2.066  0.00  0.00    -0.007 A 
ATOM     30  C   UNL     1      -1.857   2.406  -3.132  0.00  0.00    +0.007 A 
ATOM     31  C   UNL     1      -2.819   2.176  -4.097  0.00  0.00    +0.000 A 
ATOM     32  C   UNL     1      -3.656   1.081  -3.992  0.00  0.00    +0.000 A 
ATOM     33  C   UNL     1      -3.527   0.213  -2.924  0.00  0.00    +0.000 A 
ATOM     34  C   UNL     1      -2.562   0.440  -1.961  0.00  0.00    +0.007 A 
ENDBRANCH  22  29
BRANCH  22  35
ATOM     35  C   UNL     1      -1.035   3.011  -0.221  0.00  0.00    -0.007 A 
ATOM     36  C   UNL     1      -0.587   4.254  -0.626  0.00  0.00    +0.007 A 
ATOM     37  C   UNL     1      -0.923   5.380   0.101  0.00  0.00    +0.000 A 
ATOM     38  C   UNL     1      -1.701   5.262   1.238  0.00  0.00    +0.000 A 
ATOM     39  C   UNL     1      -2.145   4.018   1.646  0.00  0.00    +0.000 A 
ATOM     40  C   UNL     1      -1.812   2.892   0.916  0.00  0.00    +0.007 A 
ENDBRANCH  22  35
ENDBRANCH  21  22
ENDBRANCH   1  21
TORSDOF 7
