REMARK  Name = ZINC01946961
REMARK  7 active torsions:
REMARK  status: ('A' for Active; 'I' for Inactive)
REMARK    1  A    between atoms: N_9  and  C_12
REMARK    2  A    between atoms: C_15  and  C_18
REMARK    3  A    between atoms: C_18  and  O_20
REMARK    4  A    between atoms: O_20  and  C_21
REMARK    5  A    between atoms: C_21  and  C_22
REMARK    6  A    between atoms: N_24  and  C_25
REMARK    7  A    between atoms: C_30  and  C_31
REMARK                            x       y       z     vdW  Elec       q    Type
REMARK                         _______ _______ _______ _____ _____    ______ ____
ROOT
ATOM      1  C   UNL     1      -3.179  -7.188   0.022  0.00  0.00    +0.340 C 
ATOM      2  O   UNL     1      -4.394  -7.208   0.037  0.00  0.00    -0.245 OA
ENDROOT
BRANCH   1   6
ATOM      3  C   UNL     1      -1.116  -3.477   0.038  0.00  0.00    +0.045 A 
ATOM      4  C   UNL     1      -0.400  -4.668   0.009  0.00  0.00    +0.025 A 
ATOM      5  C   UNL     1      -1.065  -5.874   0.009  0.00  0.00    +0.017 A 
ATOM      6  C   UNL     1      -2.462  -5.899   0.028  0.00  0.00    +0.059 A 
ATOM      7  C   UNL     1      -3.179  -4.699   0.052  0.00  0.00    +0.017 A 
ATOM      8  C   UNL     1      -2.507  -3.497   0.058  0.00  0.00    +0.025 A 
BRANCH   3  17
ATOM      9  C   UNL     1       2.391   1.412   0.046  0.00  0.00    +0.001 A 
ATOM     10  C   UNL     1       1.183   2.083   0.071  0.00  0.00    +0.001 A 
ATOM     11  C   UNL     1      -0.011   1.380   0.079  0.00  0.00    +0.014 A 
ATOM     12  C   UNL     1       0.007  -0.006   0.063  0.00  0.00    +0.050 A 
ATOM     13  C   UNL     1       1.239  -0.690   0.038  0.00  0.00    +0.050 A 
ATOM     14  C   UNL     1       2.425   0.026   0.030  0.00  0.00    +0.014 A 
ATOM     15  C   UNL     1       0.902  -2.129   0.026  0.00  0.00    +0.258 C 
ATOM     16  O   UNL     1       1.700  -3.044   0.005  0.00  0.00    -0.269 OA
ATOM     17  N   UNL     1      -0.438  -2.256   0.043  0.00  0.00    -0.202 N 
ATOM     18  C   UNL     1      -1.037  -1.052   0.066  0.00  0.00    +0.258 C 
ATOM     19  O   UNL     1      -2.236  -0.857   0.085  0.00  0.00    -0.269 OA
ENDBRANCH   3  17
ENDBRANCH   1   6
BRANCH   1  20
ATOM     20  O   UNL     1      -2.486  -8.343  -0.002  0.00  0.00    -0.452 OA
BRANCH  20  21
ATOM     21  C   UNL     1      -3.257  -9.574  -0.006  0.00  0.00    +0.328 C 
BRANCH  21  22
ATOM     22  C   UNL     1      -2.320 -10.754  -0.033  0.00  0.00    +0.255 C 
ATOM     23  O   UNL     1      -1.120 -10.575  -0.047  0.00  0.00    -0.272 OA
ATOM     24  N   UNL     1      -2.815 -12.007  -0.042  0.00  0.00    -0.282 N 
ATOM     25  H   UNL     1      -3.771 -12.152   0.035  0.00  0.00    +0.155 HD
BRANCH  24  26
ATOM     26  C   UNL     1      -1.949 -13.100  -0.162  0.00  0.00    +0.045 A 
ATOM     27  C   UNL     1      -0.688 -13.056   0.418  0.00  0.00    +0.024 A 
ATOM     28  C   UNL     1       0.162 -14.139   0.302  0.00  0.00    +0.002 A 
ATOM     29  C   UNL     1      -0.238 -15.261  -0.400  0.00  0.00    +0.001 A 
ATOM     30  C   UNL     1      -1.490 -15.306  -0.983  0.00  0.00    +0.014 A 
ATOM     31  C   UNL     1      -2.347 -14.229  -0.867  0.00  0.00    +0.076 A 
BRANCH  31  32
ATOM     32  C   UNL     1      -3.712 -14.278  -1.504  0.00  0.00    +0.419 C 
ATOM     33  F   UNL     1      -3.880 -15.506  -2.151  0.00  0.00    -0.166 F 
ATOM     34  F   UNL     1      -4.693 -14.133  -0.517  0.00  0.00    -0.166 F 
ATOM     35  F   UNL     1      -3.830 -13.240  -2.434  0.00  0.00    -0.166 F 
ENDBRANCH  31  32
ENDBRANCH  24  26
ENDBRANCH  21  22
ENDBRANCH  20  21
ENDBRANCH   1  20
TORSDOF 7
