REMARK  Name = ZINC06300793
REMARK  8 active torsions:
REMARK  status: ('A' for Active; 'I' for Inactive)
REMARK    1  A    between atoms: C_1  and  C_2
REMARK    2  A    between atoms: C_4  and  C_40
REMARK    3  A    between atoms: C_9  and  C_14
REMARK    4  A    between atoms: C_14  and  C_16
REMARK    5  A    between atoms: C_14  and  N_69
REMARK    6  A    between atoms: N_20  and  C_21
REMARK    7  A    between atoms: C_21  and  C_22
REMARK    8  A    between atoms: C_30  and  C_33
REMARK                            x       y       z     vdW  Elec       q    Type
REMARK                         _______ _______ _______ _____ _____    ______ ____
ROOT
ATOM      1  C   UNL     1      -0.083   0.978   2.425  0.00  0.00    +0.039 C 
ENDROOT
BRANCH   1  10
ATOM      2  C   UNL     1       7.085  -1.041   2.823  0.00  0.00    +0.044 C 
ATOM      3  C   UNL     1       6.024   0.022   2.702  0.00  0.00    -0.050 A 
ATOM      4  C   UNL     1       6.395   1.357   2.608  0.00  0.00    +0.008 A 
ATOM      5  C   UNL     1       5.442   2.346   2.496  0.00  0.00    -0.026 A 
ATOM      6  C   UNL     1       4.093   2.005   2.479  0.00  0.00    +0.052 A 
ATOM      7  C   UNL     1       3.721   0.651   2.575  0.00  0.00    -0.001 A 
ATOM      8  C   UNL     1       4.706  -0.336   2.687  0.00  0.00    +0.013 A 
ATOM      9  C   UNL     1       2.299   0.303   2.562  0.00  0.00    +0.017 A 
ATOM     10  C   UNL     1       1.389   1.302   2.447  0.00  0.00    +0.011 A 
ATOM     11  C   UNL     1       1.815   2.645   2.354  0.00  0.00    +0.251 A 
ATOM     12  O   UNL     1       0.980   3.527   2.257  0.00  0.00    -0.268 OA
ATOM     13  N   UNL     1       3.118   2.974   2.370  0.00  0.00    -0.322 N 
ATOM     14  H   UNL     1       3.376   3.906   2.304  0.00  0.00    +0.169 HD
ATOM     15  C   UNL     1       5.859   3.790   2.394  0.00  0.00    +0.046 C 
ENDBRANCH   1  10
BRANCH   1  21
ATOM     16  C   UNL     1      -2.127   1.241   1.160  0.00  0.00    -0.072 C 
ATOM     17  C   UNL     1      -2.771   2.117   0.083  0.00  0.00    +0.017 C 
ATOM     18  C   UNL     1      -1.965   2.038  -1.184  0.00  0.00    -0.048 C 
ATOM     19  C   UNL     1      -0.733   1.580  -1.214  0.00  0.00    -0.041 C 
ATOM     20  C   UNL     1      -0.013   1.086   0.008  0.00  0.00    -0.049 C 
ATOM     21  N   UNL     1      -0.693   1.580   1.221  0.00  0.00    +0.392 N 
ATOM     22  H   UNL     1      -0.592   2.601   1.269  0.00  0.00    -0.080 HD
BRANCH  18  23
ATOM     23  C   UNL     1      -2.583   2.493  -2.447  0.00  0.00    -0.022 A 
ATOM     24  C   UNL     1      -2.930   3.834  -2.613  0.00  0.00    +0.011 A 
ATOM     25  C   UNL     1      -3.501   4.255  -3.796  0.00  0.00    +0.039 A 
ATOM     26  C   UNL     1      -3.740   3.346  -4.814  0.00  0.00    +0.123 A 
ATOM     27  C   UNL     1      -3.404   2.012  -4.652  0.00  0.00    +0.039 A 
ATOM     28  C   UNL     1      -2.827   1.582  -3.475  0.00  0.00    +0.011 A 
ATOM     29  F   UNL     1      -4.304   3.763  -5.969  0.00  0.00    -0.205 F 
ENDBRANCH  18  23
ENDBRANCH   1  21
BRANCH   1  30
ATOM     30  C   UNL     1      -0.743   1.557   3.650  0.00  0.00    +0.143 A 
ATOM     31  N   UNL     1      -1.028   2.819   3.863  0.00  0.00    -0.115 NA
ATOM     32  N   UNL     1      -1.586   2.910   5.021  0.00  0.00    -0.023 NA
ATOM     33  N   UNL     1      -1.663   1.740   5.553  0.00  0.00    -0.044 NA
ATOM     34  N   UNL     1      -1.159   0.878   4.736  0.00  0.00    -0.228 N 
BRANCH  34  35
ATOM     35  C   UNL     1      -1.055  -0.567   4.951  0.00  0.00    +0.178 C 
BRANCH  35  36
ATOM     36  C   UNL     1       0.275  -0.886   5.636  0.00  0.00    +0.140 C 
ATOM     37  C   UNL     1       0.382  -2.405   5.922  0.00  0.00    +0.035 C 
ATOM     38  C   UNL     1       1.923  -2.588   5.976  0.00  0.00    +0.031 C 
ATOM     39  C   UNL     1       2.411  -1.564   4.929  0.00  0.00    +0.160 C 
ATOM     40  O   UNL     1       1.373  -0.593   4.757  0.00  0.00    -0.375 OA
ENDBRANCH  35  36
ENDBRANCH  34  35
ENDBRANCH   1  30
TORSDOF 6
