REMARK  Name = ZINC24035372
REMARK  11 active torsions:
REMARK  status: ('A' for Active; 'I' for Inactive)
REMARK    1  A    between atoms: C_1  and  C_2
REMARK    2  A    between atoms: C_4  and  C_35
REMARK    3  A    between atoms: N_9  and  N_10
REMARK    4  A    between atoms: N_10  and  C_11
REMARK    5  A    between atoms: C_14  and  S_20
REMARK    6  A    between atoms: C_16  and  N_17
REMARK    7  A    between atoms: S_20  and  N_23
REMARK    8  A    between atoms: N_23  and  C_24
REMARK    9  A    between atoms: C_29  and  O_30
REMARK   10  A    between atoms: O_30  and  C_31
REMARK   11  A    between atoms: C_32  and  O_34
REMARK                            x       y       z     vdW  Elec       q    Type
REMARK                         _______ _______ _______ _____ _____    ______ ____
ROOT
ATOM      1  C   UNL     1       1.308   1.358   0.455  0.00  0.00    +0.079 A 
ATOM      2  C   UNL     1       2.599   0.861   0.320  0.00  0.00    +0.029 A 
ATOM      3  C   UNL     1       3.664   1.733   0.211  0.00  0.00    +0.031 A 
ATOM      4  C   UNL     1       3.449   3.099   0.248  0.00  0.00    +0.111 A 
ATOM      5  C   UNL     1       2.167   3.597   0.389  0.00  0.00    +0.063 A 
ATOM      6  C   UNL     1       1.096   2.731   0.492  0.00  0.00    +0.150 A 
ENDROOT
BRANCH   6   7
ATOM      7  N   UNL     1      -0.277   3.265   0.642  0.00  0.00    +0.058 N 
ATOM      8  O   UNL     1      -0.609   4.269   0.037  0.00  0.00    -0.126 OA
ATOM      9  O   UNL     1      -1.073   2.701   1.370  0.00  0.00    -0.126 OA
ENDBRANCH   6   7
BRANCH   4  10
ATOM     10  S   UNL     1       4.813   4.207   0.116  0.00  0.00    +0.073 S 
ATOM     11  O   UNL     1       5.847   3.500  -0.554  0.00  0.00    -0.150 OA
ATOM     12  O   UNL     1       4.292   5.436  -0.370  0.00  0.00    -0.150 OA
BRANCH  10  13
ATOM     13  N   UNL     1       5.357   4.498   1.653  0.00  0.00    -0.213 N 
ATOM     14  H   UNL     1       5.358   5.524   2.051  0.00  0.00    +0.174 HD
BRANCH  13  15
ATOM     15  C   UNL     1       5.817   3.440   2.445  0.00  0.00    +0.090 A 
ATOM     16  C   UNL     1       6.504   2.384   1.864  0.00  0.00    +0.028 A 
ATOM     17  C   UNL     1       6.962   1.342   2.649  0.00  0.00    +0.002 A 
ATOM     18  C   UNL     1       6.727   1.344   4.011  0.00  0.00    +0.004 A 
ATOM     19  C   UNL     1       6.038   2.391   4.597  0.00  0.00    +0.047 A 
ATOM     20  C   UNL     1       5.581   3.441   3.818  0.00  0.00    +0.142 A 
BRANCH  20  21
ATOM     21  O   UNL     1       4.902   4.470   4.392  0.00  0.00    -0.493 OA
ATOM     22  C   UNL     1       4.697   4.404   5.804  0.00  0.00    +0.277 C 
ENDBRANCH  20  21
ENDBRANCH  13  15
ENDBRANCH  10  13
ENDBRANCH   4  10
BRANCH   1  23
ATOM     23  N   UNL     1       0.228   0.481   0.560  0.00  0.00    -0.235 N 
ATOM     24  H   UNL     1      -0.784   0.873   0.739  0.00  0.00    +0.174 HD
BRANCH  23  33
ATOM     25  C   UNL     1       1.166  -6.401  -0.062  0.00  0.00    +0.044 C 
ATOM     26  C   UNL     1       0.087  -5.377   0.176  0.00  0.00    -0.049 A 
ATOM     27  C   UNL     1      -1.227  -5.785   0.350  0.00  0.00    +0.008 A 
ATOM     28  C   UNL     1      -2.228  -4.865   0.575  0.00  0.00    -0.024 A 
ATOM     29  C   UNL     1      -1.925  -3.499   0.621  0.00  0.00    +0.080 A 
ATOM     30  C   UNL     1      -0.587  -3.094   0.440  0.00  0.00    +0.033 A 
ATOM     31  C   UNL     1       0.410  -4.035   0.221  0.00  0.00    +0.015 A 
ATOM     32  C   UNL     1      -0.602  -1.618   0.546  0.00  0.00    +0.152 C 
ATOM     33  N   UNL     1       0.417  -0.790   0.448  0.00  0.00    -0.177 NA
ATOM     34  C   UNL     1      -2.017  -1.287   0.782  0.00  0.00    +0.241 C 
ATOM     35  N   UNL     1      -2.702  -2.402   0.811  0.00  0.00    -0.211 NA
ATOM     36  C   UNL     1      -3.650  -5.329   0.759  0.00  0.00    +0.046 C 
BRANCH  34  37
ATOM     37  O   UNL     1      -2.523  -0.040   0.941  0.00  0.00    -0.491 OA
ATOM     38  H   UNL     1      -3.601   0.098   1.113  0.00  0.00    +0.294 HD
ENDBRANCH  34  37
ENDBRANCH  23  33
ENDBRANCH   1  23
TORSDOF 8
