REMARK  Name = ZINC13500689
REMARK  12 active torsions:
REMARK  status: ('A' for Active; 'I' for Inactive)
REMARK    1  A    between atoms: C_1  and  C_2
REMARK    2  A    between atoms: C_2  and  C_3
REMARK    3  A    between atoms: C_2  and  C_4
REMARK    4  A    between atoms: C_4  and  C_6
REMARK    5  A    between atoms: C_4  and  N_73
REMARK    6  A    between atoms: N_10  and  C_11
REMARK    7  A    between atoms: C_11  and  C_12
REMARK    8  A    between atoms: C_15  and  O_18
REMARK    9  A    between atoms: O_18  and  C_19
REMARK   10  A    between atoms: C_20  and  C_21
REMARK   11  A    between atoms: C_20  and  N_73
REMARK   12  A    between atoms: C_36  and  N_73
REMARK                            x       y       z     vdW  Elec       q    Type
REMARK                         _______ _______ _______ _____ _____    ______ ____
ROOT
ATOM      1  N   UNL     1      -2.840   0.106  -2.048  0.00  0.00    +0.391 N 
ATOM      2  H   UNL     1      -2.675   0.930  -2.637  0.00  0.00    -0.080 HD
ENDROOT
BRANCH   1   3
ATOM      3  C   UNL     1      -2.175  -1.063  -2.661  0.00  0.00    -0.067 C 
ATOM      4  C   UNL     1      -2.495  -2.356  -1.883  0.00  0.00    -0.015 C 
ATOM      5  C   UNL     1      -1.175  -3.166  -1.933  0.00  0.00    -0.002 C 
ATOM      6  C   UNL     1      -0.093  -2.067  -1.788  0.00  0.00    -0.002 C 
ATOM      7  C   UNL     1      -0.648  -0.880  -2.601  0.00  0.00    -0.015 C 
ENDBRANCH   1   3
BRANCH   1   8
ATOM      8  C   UNL     1      -4.295  -0.134  -1.952  0.00  0.00    +0.006 C 
BRANCH   8   9
ATOM      9  C   UNL     1      -4.805  -0.612  -3.287  0.00  0.00    +0.139 A 
ATOM     10  N   UNL     1      -4.655  -0.013  -4.443  0.00  0.00    -0.115 NA
ATOM     11  N   UNL     1      -5.229  -0.734  -5.343  0.00  0.00    -0.023 NA
ATOM     12  N   UNL     1      -5.748  -1.774  -4.790  0.00  0.00    -0.044 NA
ATOM     13  N   UNL     1      -5.509  -1.735  -3.523  0.00  0.00    -0.226 N 
BRANCH  13  14
ATOM     14  C   UNL     1      -5.924  -2.727  -2.528  0.00  0.00    +0.182 C 
BRANCH  14  15
ATOM     15  C   UNL     1      -7.384  -2.535  -2.207  0.00  0.00    -0.026 A 
ATOM     16  C   UNL     1      -7.758  -1.751  -1.131  0.00  0.00    +0.009 A 
ATOM     17  C   UNL     1      -9.095  -1.569  -0.839  0.00  0.00    +0.046 A 
ATOM     18  C   UNL     1     -10.064  -2.183  -1.619  0.00  0.00    +0.120 A 
ATOM     19  C   UNL     1      -9.687  -2.974  -2.694  0.00  0.00    +0.046 A 
ATOM     20  C   UNL     1      -8.348  -3.148  -2.986  0.00  0.00    +0.009 A 
BRANCH  18  21
ATOM     21  O   UNL     1     -11.381  -2.010  -1.330  0.00  0.00    -0.495 OA
ATOM     22  C   UNL     1     -11.696  -1.183  -0.208  0.00  0.00    +0.277 C 
ENDBRANCH  18  21
ENDBRANCH  14  15
ENDBRANCH  13  14
ENDBRANCH   8   9
BRANCH   8  24
ATOM     23  C   UNL     1      -4.800   2.191  -2.715  0.00  0.00    +0.006 C 
ATOM     24  C   UNL     1      -4.987   1.180  -1.583  0.00  0.00    -0.024 C 
ATOM     25  C   UNL     1      -6.481   0.926  -1.367  0.00  0.00    +0.006 C 
ENDBRANCH   8  24
ENDBRANCH   1   8
BRANCH   1  26
ATOM     26  C   UNL     1      -2.280   0.357  -0.703  0.00  0.00    -0.036 C 
BRANCH  26  27
ATOM     27  C   UNL     1      -2.657  -0.754   0.243  0.00  0.00    +0.001 A 
ATOM     28  C   UNL     1      -1.722  -1.659   0.630  0.00  0.00    +0.017 A 
ATOM     29  C   UNL     1      -2.120  -2.728   1.544  0.00  0.00    +0.002 A 
ATOM     30  C   UNL     1      -1.200  -3.693   1.971  0.00  0.00    +0.059 A 
ATOM     31  C   UNL     1      -1.604  -4.688   2.834  0.00  0.00    +0.167 A 
ATOM     32  C   UNL     1      -2.930  -4.736   3.284  0.00  0.00    +0.168 A 
ATOM     33  C   UNL     1      -3.845  -3.788   2.866  0.00  0.00    +0.075 A 
ATOM     34  C   UNL     1      -3.454  -2.779   1.995  0.00  0.00    +0.053 A 
ATOM     35  N   UNL     1      -4.355  -1.825   1.567  0.00  0.00    -0.322 N 
ATOM     36  H   UNL     1      -5.273  -1.861   1.877  0.00  0.00    +0.169 HD
ATOM     37  C   UNL     1      -3.978  -0.847   0.726  0.00  0.00    +0.251 A 
ATOM     38  O   UNL     1      -4.801  -0.021   0.368  0.00  0.00    -0.268 OA
ATOM     39  O   UNL     1      -3.063  -5.806   4.121  0.00  0.00    -0.453 OA
ATOM     40  C   UNL     1      -1.724  -6.167   4.503  0.00  0.00    +0.466 C 
ATOM     41  O   UNL     1      -0.918  -5.729   3.393  0.00  0.00    -0.453 OA
ENDBRANCH  26  27
ENDBRANCH   1  26
TORSDOF 9
