REMARK  Name = ZINC02259287
REMARK  7 active torsions:
REMARK  status: ('A' for Active; 'I' for Inactive)
REMARK    1  A    between atoms: C_1  and  C_2
REMARK    2  A    between atoms: C_2  and  C_3
REMARK    3  A    between atoms: C_2  and  C_4
REMARK    4  A    between atoms: C_4  and  C_5
REMARK    5  A    between atoms: C_5  and  N_6
REMARK    6  A    between atoms: C_24  and  C_26
REMARK    7  A    between atoms: C_24  and  C_27
REMARK                            x       y       z     vdW  Elec       q    Type
REMARK                         _______ _______ _______ _____ _____    ______ ____
ROOT
ATOM      1  N   UNL     1      -4.437   3.031  -8.814  0.00  0.00    -0.327 N 
ATOM      2  C   UNL     1      -4.179   4.070  -7.932  0.00  0.00    +0.159 A 
ATOM      3  C   UNL     1      -3.568   3.839  -6.708  0.00  0.00    +0.083 A 
ATOM      4  C   UNL     1      -3.316   4.905  -5.831  0.00  0.00    +0.115 A 
ATOM      5  C   UNL     1      -2.663   4.548  -4.558  0.00  0.00    +0.037 A 
ATOM      6  C   UNL     1      -2.311   5.449  -3.503  0.00  0.00    -0.027 A 
ATOM      7  C   UNL     1      -1.732   4.945  -2.393  0.00  0.00    +0.004 A 
ATOM      8  C   UNL     1      -1.460   3.564  -2.313  0.00  0.00    +0.104 A 
ATOM      9  C   UNL     1      -2.371   3.191  -4.377  0.00  0.00    +0.089 A 
ATOM     10  S   UNL     1      -2.953   2.410  -5.863  0.00  0.00    -0.065 S 
ATOM     11  N   UNL     1      -0.839   3.061  -1.178  0.00  0.00    -0.312 N 
ATOM     12  C   UNL     1       0.099   1.983  -1.525  0.00  0.00    +0.134 C 
ATOM     13  C   UNL     1       0.803   1.498  -0.255  0.00  0.00    +0.178 C 
ATOM     14  O   UNL     1      -0.177   1.077   0.698  0.00  0.00    -0.377 OA
ATOM     15  C   UNL     1      -1.107   2.103   1.058  0.00  0.00    +0.178 C 
ATOM     16  C   UNL     1      -1.831   2.593  -0.199  0.00  0.00    +0.134 C 
ATOM     17  C   UNL     1      -1.336   5.737  -1.170  0.00  0.00    +0.108 C 
ATOM     18  S   UNL     1      -1.234   7.503  -1.570  0.00  0.00    -0.149 S 
ATOM     19  C   UNL     1      -2.753   7.748  -2.546  0.00  0.00    +0.015 C 
ATOM     20  C   UNL     1      -2.640   6.884  -3.794  0.00  0.00    +0.053 C 
ATOM     21  C   UNL     1      -2.883   9.220  -2.943  0.00  0.00    +0.023 C 
ATOM     22  C   UNL     1      -3.973   7.322  -1.727  0.00  0.00    +0.023 C 
ATOM     23  N   UNL     1      -3.704   6.123  -6.266  0.00  0.00    -0.128 NA
ATOM     24  N   UNL     1      -4.265   6.278  -7.406  0.00  0.00    -0.041 NA
ATOM     25  N   UNL     1      -4.510   5.327  -8.232  0.00  0.00    -0.113 NA
ATOM     26  H   UNL     1      -4.189   2.123  -8.579  0.00  0.00    +0.148 HD
ATOM     27  N   UNL     1      -1.770   2.670  -3.283  0.00  0.00    -0.337 N 
ATOM     28  H   UNL     1      -1.565   1.668  -3.192  0.00  0.00    +0.168 HD
ENDROOT
BRANCH   1  29
ATOM     29  C   UNL     1      -5.084   3.304 -10.100  0.00  0.00    +0.103 C 
BRANCH  29  30
ATOM     30  C   UNL     1      -5.251   1.996 -10.875  0.00  0.00    +0.021 C 
BRANCH  30  32
ATOM     31  C   UNL     1      -5.981   0.995 -13.045  0.00  0.00    +0.007 C 
ATOM     32  C   UNL     1      -5.927   2.281 -12.217  0.00  0.00    -0.016 C 
ATOM     33  C   UNL     1      -7.348   2.792 -11.975  0.00  0.00    +0.007 C 
ENDBRANCH  30  32
ENDBRANCH  29  30
ENDBRANCH   1  29
TORSDOF 3
