REMARK  Name = ZINC02150680
REMARK  14 active torsions:
REMARK  status: ('A' for Active; 'I' for Inactive)
REMARK    1  A    between atoms: C_1  and  C_2
REMARK    2  A    between atoms: C_2  and  C_3
REMARK    3  A    between atoms: C_3  and  C_4
REMARK    4  A    between atoms: C_13  and  O_15
REMARK    5  A    between atoms: O_15  and  C_16
REMARK    6  A    between atoms: C_16  and  C_18
REMARK    7  A    between atoms: C_18  and  C_20
REMARK    8  A    between atoms: C_18  and  N_31
REMARK    9  A    between atoms: C_20  and  C_21
REMARK   10  A    between atoms: C_32  and  O_34
REMARK   11  A    between atoms: O_34  and  C_35
REMARK   12  A    between atoms: C_35  and  C_36
REMARK   13  A    between atoms: C_35  and  C_37
REMARK   14  A    between atoms: C_35  and  C_38
REMARK                            x       y       z     vdW  Elec       q    Type
REMARK                         _______ _______ _______ _____ _____    ______ ____
ROOT
ATOM      1  C   UNL     1      -2.450   1.188   0.077  0.00  0.00    +0.189 C 
ENDROOT
BRANCH   1   2
ATOM      2  N   UNL     1      -1.236   2.005   0.131  0.00  0.00    -0.268 N 
ATOM      3  C   UNL     1      -0.026   1.412   0.176  0.00  0.00    +0.401 C 
ATOM      4  O   UNL     1       0.057   0.200   0.171  0.00  0.00    -0.226 OA
ATOM      5  H   UNL     1      -1.302   2.973   0.135  0.00  0.00    +0.153 HD
BRANCH   3   6
ATOM      6  O   UNL     1       1.091   2.163   0.220  0.00  0.00    -0.445 OA
BRANCH   6   7
ATOM      7  C   UNL     1       2.359   1.458   0.261  0.00  0.00    +0.107 C 
ATOM      8  C   UNL     1       2.498   0.587  -0.990  0.00  0.00    +0.055 C 
ATOM      9  C   UNL     1       3.505   2.470   0.308  0.00  0.00    +0.055 C 
ATOM     10  C   UNL     1       2.409   0.571   1.507  0.00  0.00    +0.055 C 
ENDBRANCH   6   7
ENDBRANCH   3   6
ENDBRANCH   1   2
BRANCH   1  11
ATOM     11  C   UNL     1      -2.520   0.310   1.299  0.00  0.00    +0.333 C 
ATOM     12  O   UNL     1      -1.520   0.081   1.937  0.00  0.00    -0.248 OA
BRANCH  11  13
ATOM     13  O   UNL     1      -3.695  -0.218   1.681  0.00  0.00    -0.423 OA
BRANCH  13  23
ATOM     14  C   UNL     1      -3.598  -3.775   5.991  0.00  0.00    -0.030 A 
ATOM     15  C   UNL     1      -3.501  -5.101   5.711  0.00  0.00    +0.096 A 
ATOM     16  C   UNL     1      -3.429  -5.531   4.370  0.00  0.00    +0.337 A 
ATOM     17  O   UNL     1      -3.341  -6.723   4.133  0.00  0.00    -0.245 OA
ATOM     18  O   UNL     1      -3.453  -4.661   3.348  0.00  0.00    -0.422 OA
ATOM     19  C   UNL     1      -3.549  -3.330   3.557  0.00  0.00    +0.143 A 
ATOM     20  C   UNL     1      -3.624  -2.832   4.871  0.00  0.00    +0.022 A 
ATOM     21  C   UNL     1      -3.723  -1.454   5.093  0.00  0.00    +0.035 A 
ATOM     22  C   UNL     1      -3.745  -0.595   4.030  0.00  0.00    +0.084 A 
ATOM     23  C   UNL     1      -3.671  -1.084   2.727  0.00  0.00    +0.153 A 
ATOM     24  C   UNL     1      -3.578  -2.446   2.490  0.00  0.00    +0.094 A 
ATOM     25 CL   UNL     1      -3.868   1.114   4.305  0.00  0.00    -0.080 Cl
BRANCH  14  26
ATOM     26  C   UNL     1      -3.677  -3.289   7.415  0.00  0.00    +0.036 C 
BRANCH  26  28
ATOM     27  C   UNL     1      -5.223  -2.607   9.255  0.00  0.00    +0.004 C 
ATOM     28  C   UNL     1      -5.143  -3.101   7.809  0.00  0.00    +0.001 C 
ENDBRANCH  26  28
ENDBRANCH  14  26
ENDBRANCH  13  23
ENDBRANCH  11  13
ENDBRANCH   1  11
BRANCH   1  29
ATOM     29  C   UNL     1      -2.421   0.313  -1.178  0.00  0.00    +0.071 C 
BRANCH  29  30
ATOM     30  C   UNL     1      -2.475   1.190  -2.403  0.00  0.00    -0.020 A 
ATOM     31  C   UNL     1      -3.573   1.522  -3.099  0.00  0.00    +0.087 A 
ATOM     32  N   UNL     1      -3.234   2.334  -4.147  0.00  0.00    -0.360 N 
ATOM     33  H   UNL     1      -3.858   2.704  -4.790  0.00  0.00    +0.165 HD
ATOM     34  C   UNL     1      -1.873   2.544  -4.155  0.00  0.00    +0.047 A 
ATOM     35  C   UNL     1      -1.338   1.836  -3.063  0.00  0.00    +0.003 A 
ATOM     36  C   UNL     1       0.036   1.867  -2.819  0.00  0.00    +0.010 A 
ATOM     37  C   UNL     1       0.856   2.585  -3.643  0.00  0.00    +0.001 A 
ATOM     38  C   UNL     1       0.333   3.285  -4.722  0.00  0.00    +0.002 A 
ATOM     39  C   UNL     1      -1.020   3.268  -4.981  0.00  0.00    +0.026 A 
ENDBRANCH  29  30
ENDBRANCH   1  29
TORSDOF 10
