REMARK  Name = ZINC22425378
REMARK  11 active torsions:
REMARK  status: ('A' for Active; 'I' for Inactive)
REMARK    1  A    between atoms: C_1  and  C_2
REMARK    2  A    between atoms: C_2  and  C_3
REMARK    3  A    between atoms: C_3  and  C_5
REMARK    4  A    between atoms: C_3  and  C_12
REMARK    5  A    between atoms: C_5  and  C_6
REMARK    6  A    between atoms: C_12  and  N_13
REMARK    7  A    between atoms: C_14  and  C_16
REMARK    8  A    between atoms: C_16  and  N_17
REMARK    9  A    between atoms: N_17  and  C_18
REMARK   10  A    between atoms: N_17  and  S_25
REMARK   11  A    between atoms: S_25  and  C_28
REMARK                            x       y       z     vdW  Elec       q    Type
REMARK                         _______ _______ _______ _____ _____    ______ ____
ROOT
ATOM      1  N   UNL     1       4.040  -1.279  -1.276  0.00  0.00    -0.194 N 
ENDROOT
BRANCH   1   2
ATOM      2  C   UNL     1       5.006  -0.511  -1.932  0.00  0.00    +0.055 A 
ATOM      3  C   UNL     1       5.729  -1.055  -2.986  0.00  0.00    +0.025 A 
ATOM      4  C   UNL     1       6.683  -0.294  -3.633  0.00  0.00    +0.005 A 
ATOM      5  C   UNL     1       6.920   1.008  -3.233  0.00  0.00    +0.038 A 
ATOM      6  C   UNL     1       6.201   1.554  -2.183  0.00  0.00    +0.125 A 
ATOM      7  C   UNL     1       5.241   0.798  -1.534  0.00  0.00    +0.063 A 
ATOM      8  F   UNL     1       6.434   2.827  -1.795  0.00  0.00    -0.205 F 
ENDBRANCH   1   2
BRANCH   1   9
ATOM      9  S   UNL     1       4.209  -1.621   0.335  0.00  0.00    +0.075 S 
ATOM     10  O   UNL     1       5.589  -1.473   0.640  0.00  0.00    -0.150 OA
ATOM     11  O   UNL     1       3.503  -2.833   0.569  0.00  0.00    -0.150 OA
BRANCH   9  12
ATOM     12  C   UNL     1       3.357  -0.363   1.227  0.00  0.00    +0.112 A 
ATOM     13  C   UNL     1       2.011  -0.506   1.507  0.00  0.00    +0.032 A 
ATOM     14  C   UNL     1       1.340   0.480   2.205  0.00  0.00    +0.051 A 
ATOM     15  C   UNL     1       2.015   1.616   2.626  0.00  0.00    +0.162 A 
ATOM     16  C   UNL     1       3.369   1.759   2.347  0.00  0.00    +0.164 A 
ATOM     17  C   UNL     1       4.037   0.766   1.645  0.00  0.00    +0.078 A 
ATOM     18  O   UNL     1       4.052   2.861   2.758  0.00  0.00    -0.485 OA
ATOM     19  C   UNL     1       3.271   4.002   3.130  0.00  0.00    +0.270 C 
ATOM     20  C   UNL     1       2.128   3.526   4.038  0.00  0.00    +0.270 C 
ATOM     21  O   UNL     1       1.338   2.582   3.306  0.00  0.00    -0.485 OA
ENDBRANCH   9  12
ENDBRANCH   1   9
BRANCH   1  22
ATOM     22  C   UNL     1       2.879  -1.781  -2.014  0.00  0.00    +0.227 C 
BRANCH  22  24
ATOM     23  N   UNL     1       0.640  -0.962  -2.675  0.00  0.00    -0.314 N 
ATOM     24  C   UNL     1       1.807  -0.722  -2.046  0.00  0.00    +0.232 C 
ATOM     25  O   UNL     1       1.995   0.347  -1.504  0.00  0.00    -0.274 OA
ATOM     26  H   UNL     1       0.469  -1.932  -3.165  0.00  0.00    +0.149 HD
BRANCH  23  27
ATOM     27  C   UNL     1      -0.402   0.068  -2.705  0.00  0.00    +0.108 C 
BRANCH  27  28
ATOM     28  C   UNL     1      -1.561  -0.405  -3.585  0.00  0.00    +0.010 C 
BRANCH  28  30
ATOM     29  C   UNL     1      -0.500   0.806  -5.496  0.00  0.00    +0.004 C 
ATOM     30  C   UNL     1      -1.083  -0.531  -5.033  0.00  0.00    +0.002 C 
ENDBRANCH  28  30
BRANCH  28  31
ATOM     31  C   UNL     1      -2.703   0.610  -3.512  0.00  0.00    +0.040 C 
BRANCH  31  32
ATOM     32  C   UNL     1      -3.890   0.086  -4.279  0.00  0.00    -0.047 A 
ATOM     33  C   UNL     1      -4.030   0.382  -5.622  0.00  0.00    +0.003 A 
ATOM     34  C   UNL     1      -5.116  -0.102  -6.327  0.00  0.00    +0.000 A 
ATOM     35  C   UNL     1      -6.067  -0.874  -5.687  0.00  0.00    +0.000 A 
ATOM     36  C   UNL     1      -5.931  -1.165  -4.342  0.00  0.00    +0.000 A 
ATOM     37  C   UNL     1      -4.842  -0.685  -3.638  0.00  0.00    +0.003 A 
ENDBRANCH  31  32
ENDBRANCH  28  31
ENDBRANCH  27  28
ENDBRANCH  23  27
ENDBRANCH  22  24
ENDBRANCH   1  22
TORSDOF 10
