REMARK  Name = ZINC67419416
REMARK  5 active torsions:
REMARK  status: ('A' for Active; 'I' for Inactive)
REMARK    1  A    between atoms: C_1  and  C_2
REMARK    2  A    between atoms: C_4  and  C_7
REMARK    3  A    between atoms: C_7  and  C_9
REMARK    4  A    between atoms: C_7  and  N_10
REMARK    5  A    between atoms: C_17  and  C_21
REMARK                            x       y       z     vdW  Elec       q    Type
REMARK                         _______ _______ _______ _____ _____    ______ ____
ROOT
ATOM      1  N   UNL     1       1.232  -4.981  -3.436  0.00  0.00    -0.288 N 
ATOM      2  C   UNL     1       1.586  -5.036  -2.136  0.00  0.00    +0.303 C 
ATOM      3  O   UNL     1       1.152  -4.214  -1.352  0.00  0.00    -0.253 OA
ATOM      4  N   UNL     1       2.422  -6.002  -1.706  0.00  0.00    -0.286 N 
ATOM      5  C   UNL     1       2.700  -6.104  -0.260  0.00  0.00    +0.109 C 
ATOM      6  C   UNL     1       4.188  -6.372   0.028  0.00  0.00    +0.020 C 
ATOM      7  C   UNL     1       5.051  -5.550  -0.898  0.00  0.00    +0.010 C 
ATOM      8  C   UNL     1       5.371  -6.365  -2.147  0.00  0.00    +0.021 C 
ATOM      9  C   UNL     1       4.341  -6.298  -3.195  0.00  0.00    +0.027 C 
ATOM     10  C   UNL     1       3.005  -6.898  -2.679  0.00  0.00    +0.110 C 
ATOM     11  H   UNL     1       1.636  -5.589  -4.074  0.00  0.00    +0.151 HD
ENDROOT
BRANCH   8  12
ATOM     12  C   UNL     1       6.670  -5.865  -2.724  0.00  0.00    -0.044 A 
ATOM     13  C   UNL     1       6.787  -4.547  -3.124  0.00  0.00    +0.004 A 
ATOM     14  C   UNL     1       7.979  -4.089  -3.653  0.00  0.00    +0.000 A 
ATOM     15  C   UNL     1       9.054  -4.948  -3.783  0.00  0.00    +0.000 A 
ATOM     16  C   UNL     1       8.937  -6.266  -3.383  0.00  0.00    +0.000 A 
ATOM     17  C   UNL     1       7.747  -6.724  -2.850  0.00  0.00    +0.004 A 
ENDBRANCH   8  12
BRANCH   1  18
ATOM     18  C   UNL     1       0.238  -4.002  -3.883  0.00  0.00    +0.160 C 
ATOM     19  C   UNL     1       0.929  -2.667  -4.166  0.00  0.00    +0.038 C 
BRANCH  18  23
ATOM     20  C   UNL     1      -3.308  -5.143  -7.232  0.00  0.00    +0.091 C 
ATOM     21  C   UNL     1      -1.949  -4.998  -6.597  0.00  0.00    +0.169 A 
ATOM     22  N   UNL     1      -1.706  -4.478  -5.389  0.00  0.00    -0.195 NA
ATOM     23  C   UNL     1      -0.426  -4.500  -5.141  0.00  0.00    +0.247 A 
ATOM     24  O   UNL     1       0.196  -5.042  -6.195  0.00  0.00    -0.336 OA
ATOM     25  N   UNL     1      -0.820  -5.365  -7.133  0.00  0.00    -0.062 NA
ENDBRANCH  18  23
ENDBRANCH   1  18
TORSDOF 3
