REMARK  Name = ZINC12521264
REMARK  12 active torsions:
REMARK  status: ('A' for Active; 'I' for Inactive)
REMARK    1  A    between atoms: C_1  and  O_2
REMARK    2  A    between atoms: O_2  and  C_3
REMARK    3  A    between atoms: C_6  and  C_13
REMARK    4  A    between atoms: C_7  and  O_11
REMARK    5  A    between atoms: C_8  and  O_9
REMARK    6  A    between atoms: O_9  and  C_10
REMARK    7  A    between atoms: O_11  and  C_12
REMARK    8  A    between atoms: N_15  and  N_16
REMARK    9  A    between atoms: C_17  and  C_19
REMARK   10  A    between atoms: C_24  and  N_25
REMARK   11  A    between atoms: N_25  and  S_26
REMARK   12  A    between atoms: S_26  and  C_29
REMARK                            x       y       z     vdW  Elec       q    Type
REMARK                         _______ _______ _______ _____ _____    ______ ____
ROOT
ATOM      1  N   UNL     1      -0.047   1.126   0.428  0.00  0.00    -0.230 N 
ATOM      2  C   UNL     1      -1.136   1.915   0.324  0.00  0.00    +0.262 C 
ATOM      3  O   UNL     1      -2.247   1.437   0.451  0.00  0.00    -0.269 OA
ATOM      4  H   UNL     1       0.839   1.507   0.323  0.00  0.00    +0.173 HD
ENDROOT
BRANCH   2   5
ATOM      5  C   UNL     1      -0.979   3.356   0.058  0.00  0.00    +0.060 A 
ATOM      6  C   UNL     1       0.295   3.910  -0.088  0.00  0.00    +0.015 A 
ATOM      7  C   UNL     1       0.435   5.258  -0.336  0.00  0.00    +0.001 A 
ATOM      8  C   UNL     1      -0.683   6.069  -0.444  0.00  0.00    +0.002 A 
ATOM      9  C   UNL     1      -1.949   5.538  -0.302  0.00  0.00    +0.025 A 
ATOM     10  C   UNL     1      -2.110   4.180  -0.056  0.00  0.00    +0.060 A 
BRANCH  10  11
ATOM     11  N   UNL     1      -3.382   3.641   0.081  0.00  0.00    -0.215 N 
ATOM     12  H   UNL     1      -3.539   2.921   0.711  0.00  0.00    +0.174 HD
BRANCH  11  13
ATOM     13  S   UNL     1      -4.633   4.229  -0.832  0.00  0.00    +0.079 S 
ATOM     14  O   UNL     1      -5.754   3.397  -0.569  0.00  0.00    -0.149 OA
ATOM     15  O   UNL     1      -4.662   5.635  -0.625  0.00  0.00    -0.149 OA
BRANCH  13  16
ATOM     16  C   UNL     1      -4.206   3.978  -2.523  0.00  0.00    +0.146 A 
ATOM     17  C   UNL     1      -4.461   2.911  -3.319  0.00  0.00    +0.036 A 
ATOM     18  C   UNL     1      -4.026   2.933  -4.631  0.00  0.00    +0.010 A 
ATOM     19  C   UNL     1      -3.358   4.022  -5.083  0.00  0.00    +0.047 A 
ATOM     20  S   UNL     1      -3.332   5.067  -3.636  0.00  0.00    -0.077 S 
ENDBRANCH  13  16
ENDBRANCH  11  13
ENDBRANCH  10  11
ENDBRANCH   2   5
BRANCH   1  23
ATOM     21  C   UNL     1       0.892  -1.033   0.778  0.00  0.00    +0.264 C 
ATOM     22  O   UNL     1       2.003  -0.556   0.647  0.00  0.00    -0.269 OA
ATOM     23  N   UNL     1      -0.196  -0.244   0.681  0.00  0.00    -0.230 N 
ATOM     24  H   UNL     1      -1.082  -0.624   0.785  0.00  0.00    +0.173 HD
BRANCH  21  28
ATOM     25  C   UNL     1       0.435  -5.189   1.546  0.00  0.00    +0.165 A 
ATOM     26  C   UNL     1      -0.685  -4.370   1.444  0.00  0.00    +0.050 A 
ATOM     27  C   UNL     1      -0.541  -3.024   1.202  0.00  0.00    +0.020 A 
ATOM     28  C   UNL     1       0.736  -2.473   1.044  0.00  0.00    +0.084 A 
ATOM     29  C   UNL     1       1.866  -3.297   1.147  0.00  0.00    +0.177 A 
ATOM     30  C   UNL     1       1.709  -4.653   1.397  0.00  0.00    +0.204 A 
BRANCH  25  32
ATOM     31  C   UNL     1      -1.054  -7.001   1.933  0.00  0.00    +0.277 C 
ATOM     32  O   UNL     1       0.283  -6.516   1.791  0.00  0.00    -0.491 OA
ENDBRANCH  25  32
BRANCH  30  33
ATOM     33  O   UNL     1       2.802  -5.458   1.498  0.00  0.00    -0.488 OA
ATOM     34  C   UNL     1       3.311  -5.699   2.812  0.00  0.00    +0.277 C 
ENDBRANCH  30  33
BRANCH  29  35
ATOM     35  O   UNL     1       3.109  -2.770   1.002  0.00  0.00    -0.491 OA
ATOM     36  C   UNL     1       3.702  -2.856  -0.295  0.00  0.00    +0.277 C 
ENDBRANCH  29  35
ENDBRANCH  21  28
ENDBRANCH   1  23
TORSDOF 9
