REMARK  Name = ZINC06631946
REMARK  7 active torsions:
REMARK  status: ('A' for Active; 'I' for Inactive)
REMARK    1  A    between atoms: C_1  and  C_2
REMARK    2  A    between atoms: C_2  and  C_3
REMARK    3  A    between atoms: C_3  and  C_5
REMARK    4  A    between atoms: C_3  and  N_6
REMARK    5  A    between atoms: C_7  and  C_9
REMARK    6  A    between atoms: C_14  and  C_28
REMARK    7  A    between atoms: C_17  and  C_20
REMARK                            x       y       z     vdW  Elec       q    Type
REMARK                         _______ _______ _______ _____ _____    ______ ____
ROOT
ATOM      1  C   UNL     1       2.161  -0.731   2.826  0.00  0.00    +0.149 A 
ATOM      2  C   UNL     1       1.173  -1.735   2.941  0.00  0.00    +0.078 A 
ATOM      3  C   UNL     1       0.301  -1.566   1.928  0.00  0.00    +0.119 A 
ATOM      4  N   UNL     1       0.711  -0.492   1.189  0.00  0.00    -0.238 N 
ATOM      5  N   UNL     1       1.874   0.010   1.770  0.00  0.00    -0.164 NA
ATOM      6  C   UNL     1       0.002  -0.004   0.002  0.00  0.00    +0.215 C 
ATOM      7  C   UNL     1      -1.435  -0.537   0.028  0.00  0.00    +0.063 C 
ATOM      8  C   UNL     1      -1.426  -2.049   0.276  0.00  0.00    +0.104 C 
ATOM      9  N   UNL     1      -0.842  -2.304   1.607  0.00  0.00    -0.322 N 
ATOM     10  H   UNL     1      -1.228  -2.946   2.224  0.00  0.00    +0.148 HD
ENDROOT
BRANCH   8  11
ATOM     11  C   UNL     1      -2.837  -2.578   0.233  0.00  0.00    -0.026 A 
ATOM     12  C   UNL     1      -3.301  -3.218  -0.901  0.00  0.00    +0.007 A 
ATOM     13  C   UNL     1      -4.595  -3.703  -0.941  0.00  0.00    +0.022 A 
ATOM     14  C   UNL     1      -5.426  -3.547   0.153  0.00  0.00    +0.059 A 
ATOM     15  C   UNL     1      -4.962  -2.906   1.289  0.00  0.00    +0.060 A 
ATOM     16  C   UNL     1      -3.664  -2.426   1.330  0.00  0.00    +0.027 A 
ATOM     17 CL   UNL     1      -6.004  -2.710   2.664  0.00  0.00    -0.082 Cl
ATOM     18 CL   UNL     1      -7.051  -4.156   0.103  0.00  0.00    -0.082 Cl
ENDBRANCH   8  11
BRANCH   1  20
ATOM     19  N   UNL     1       4.188   0.461   3.507  0.00  0.00    -0.307 N 
ATOM     20  C   UNL     1       3.315  -0.542   3.730  0.00  0.00    +0.264 C 
ATOM     21  O   UNL     1       3.476  -1.290   4.674  0.00  0.00    -0.268 OA
ATOM     22  H   UNL     1       4.059   1.058   2.754  0.00  0.00    +0.149 HD
BRANCH  19  23
ATOM     23  C   UNL     1       5.332   0.648   4.403  0.00  0.00    +0.070 C 
ATOM     24  C   UNL     1       4.902   1.486   5.610  0.00  0.00    +0.028 C 
BRANCH  23  26
ATOM     25  C   UNL     1       6.968   0.477   2.523  0.00  0.00    +0.005 C 
ATOM     26  C   UNL     1       6.454   1.370   3.654  0.00  0.00    +0.018 C 
ENDBRANCH  23  26
ENDBRANCH  19  23
ENDBRANCH   1  20
BRANCH   6  27
ATOM     27  C   UNL     1      -0.019   1.526   0.010  0.00  0.00    +0.412 C 
ATOM     28  F   UNL     1       1.294   2.010   0.001  0.00  0.00    -0.168 F 
ATOM     29  F   UNL     1      -0.695   1.989  -1.123  0.00  0.00    -0.168 F 
ATOM     30  F   UNL     1      -0.673   1.977   1.161  0.00  0.00    -0.168 F 
ENDBRANCH   6  27
TORSDOF 5
