REMARK  Name = ZINC59252021
REMARK  8 active torsions:
REMARK  status: ('A' for Active; 'I' for Inactive)
REMARK    1  A    between atoms: C_1  and  C_2
REMARK    2  A    between atoms: C_6  and  C_30
REMARK    3  A    between atoms: C_8  and  N_11
REMARK    4  A    between atoms: C_12  and  C_14
REMARK    5  A    between atoms: C_17  and  S_20
REMARK    6  A    between atoms: S_20  and  N_23
REMARK    7  A    between atoms: C_30  and  C_31
REMARK    8  A    between atoms: C_30  and  C_32
REMARK                            x       y       z     vdW  Elec       q    Type
REMARK                         _______ _______ _______ _____ _____    ______ ____
ROOT
ATOM      1  C   UNL     1       1.325   3.616   2.800  0.00  0.00    +0.037 A 
ATOM      2  C   UNL     1       0.145   4.303   2.508  0.00  0.00    +0.015 A 
ATOM      3  C   UNL     1       0.133   5.682   2.518  0.00  0.00    +0.029 A 
ATOM      4  C   UNL     1       1.287   6.385   2.816  0.00  0.00    +0.106 A 
ATOM      5  C   UNL     1       2.460   5.711   3.106  0.00  0.00    +0.029 A 
ATOM      6  C   UNL     1       2.484   4.331   3.105  0.00  0.00    +0.015 A 
ENDROOT
BRANCH   1   8
ATOM      7  N   UNL     1       0.224   1.450   2.497  0.00  0.00    -0.308 N 
ATOM      8  C   UNL     1       1.345   2.138   2.792  0.00  0.00    +0.244 C 
ATOM      9  O   UNL     1       2.372   1.543   3.051  0.00  0.00    -0.270 OA
ATOM     10  H   UNL     1      -0.596   1.925   2.290  0.00  0.00    +0.149 HD
BRANCH   7  16
ATOM     11  C   UNL     1       0.240   1.529  -0.001  0.00  0.00    +0.007 C 
ATOM     12  C   UNL     1       0.261  -0.001  -0.010  0.00  0.00    -0.012 C 
ATOM     13  C   UNL     1      -1.175  -0.530  -0.022  0.00  0.00    +0.004 C 
ATOM     14  C   UNL     1      -1.911  -0.037   1.224  0.00  0.00    +0.006 C 
ATOM     15  C   UNL     1      -1.192  -0.544   2.476  0.00  0.00    +0.012 C 
ATOM     16  C   UNL     1       0.244  -0.015   2.489  0.00  0.00    +0.077 C 
ATOM     17  C   UNL     1       0.980  -0.508   1.242  0.00  0.00    +0.026 C 
BRANCH  15  18
ATOM     18  C   UNL     1      -1.929  -0.051   3.723  0.00  0.00    -0.012 C 
ATOM     19  C   UNL     1      -3.364  -0.580   3.710  0.00  0.00    +0.007 C 
ATOM     20  C   UNL     1      -1.209  -0.558   4.974  0.00  0.00    +0.007 C 
ENDBRANCH  15  18
ENDBRANCH   7  16
ENDBRANCH   1   8
BRANCH   4  21
ATOM     21  S   UNL     1       1.263   8.147   2.825  0.00  0.00    +0.061 S 
ATOM     22  O   UNL     1       2.600   8.572   2.599  0.00  0.00    -0.153 OA
ATOM     23  O   UNL     1       0.185   8.543   1.989  0.00  0.00    -0.153 OA
BRANCH  21  24
ATOM     24  N   UNL     1       0.869   8.623   4.362  0.00  0.00    -0.166 NA
ATOM     25  C   UNL     1      -0.533   8.822   4.766  0.00  0.00    +0.128 C 
ATOM     26  C   UNL     1      -0.848   7.840   5.896  0.00  0.00    +0.121 C 
ATOM     27  N   UNL     1       0.206   7.852   6.901  0.00  0.00    -0.313 N 
ATOM     28  C   UNL     1       1.455   8.266   6.683  0.00  0.00    +0.229 C 
ATOM     29  O   UNL     1       2.266   8.154   7.578  0.00  0.00    -0.274 OA
ATOM     30  C   UNL     1       1.904   8.857   5.379  0.00  0.00    +0.205 C 
ATOM     31  H   UNL     1      -0.016   7.538   7.792  0.00  0.00    +0.149 HD
ENDBRANCH  21  24
ENDBRANCH   4  21
TORSDOF 5
