REMARK  Name = ZINC06108731
REMARK  6 active torsions:
REMARK  status: ('A' for Active; 'I' for Inactive)
REMARK    1  A    between atoms: C_1  and  C_2
REMARK    2  A    between atoms: C_2  and  C_4
REMARK    3  A    between atoms: C_2  and  N_9
REMARK    4  A    between atoms: C_10  and  C_12
REMARK    5  A    between atoms: C_12  and  S_13
REMARK    6  A    between atoms: S_13  and  C_14
REMARK                            x       y       z     vdW  Elec       q    Type
REMARK                         _______ _______ _______ _____ _____    ______ ____
ROOT
ATOM      1  C   UNL     1       1.105   2.028  -0.178  0.00  0.00    +0.191 A 
ATOM      2  N   UNL     1      -0.011   1.307  -0.165  0.00  0.00    -0.207 NA
ATOM      3  C   UNL     1       0.002  -0.004   0.002  0.00  0.00    +0.129 A 
ATOM      4  C   UNL     1       1.247  -0.671   0.174  0.00  0.00    +0.051 A 
ATOM      5  C   UNL     1       1.500  -2.100   0.374  0.00  0.00    -0.025 A 
ATOM      6  C   UNL     1       2.786  -2.481   0.512  0.00  0.00    -0.004 A 
ATOM      7  S   UNL     1       3.727  -0.983   0.388  0.00  0.00    -0.073 S 
ATOM      8  C   UNL     1       2.388   0.155   0.149  0.00  0.00    +0.115 A 
ATOM      9  N   UNL     1       2.293   1.460  -0.022  0.00  0.00    -0.214 NA
ATOM     10  C   UNL     1       3.304  -3.870   0.726  0.00  0.00    +0.043 C 
ATOM     11  C   UNL     1       2.128  -4.768   1.137  0.00  0.00    +0.005 C 
ATOM     12  C   UNL     1       0.961  -4.518   0.178  0.00  0.00    +0.005 C 
ATOM     13  C   UNL     1       0.373  -3.129   0.425  0.00  0.00    +0.037 C 
ATOM     14  N   UNL     1      -1.181  -0.720   0.009  0.00  0.00    -0.343 N 
ATOM     15  H   UNL     1      -1.994  -0.317  -0.337  0.00  0.00    +0.144 HD
ATOM     16  H   UNL     1      -1.200  -1.624   0.359  0.00  0.00    +0.144 HD
ENDROOT
BRANCH   1  17
ATOM     17  S   UNL     1       1.004   3.772  -0.406  0.00  0.00    -0.077 S 
BRANCH  17  18
ATOM     18  C   UNL     1      -0.789   3.967  -0.557  0.00  0.00    +0.173 C 
BRANCH  18  20
ATOM     19  N   UNL     1      -2.405   5.808  -0.903  0.00  0.00    -0.308 N 
ATOM     20  C   UNL     1      -1.121   5.422  -0.764  0.00  0.00    +0.224 C 
ATOM     21  O   UNL     1      -0.232   6.247  -0.806  0.00  0.00    -0.275 OA
ATOM     22  H   UNL     1      -3.115   5.148  -0.870  0.00  0.00    +0.149 HD
BRANCH  19  24
ATOM     23  C   UNL     1      -2.817   7.924   0.252  0.00  0.00    +0.033 C 
ATOM     24  C   UNL     1      -2.727   7.222  -1.105  0.00  0.00    +0.107 C 
BRANCH  24  25
ATOM     25  C   UNL     1      -4.049   7.339  -1.820  0.00  0.00    +0.010 A 
ATOM     26  C   UNL     1      -4.416   8.201  -2.799  0.00  0.00    +0.013 A 
ATOM     27  C   UNL     1      -5.696   8.123  -3.316  0.00  0.00    +0.008 A 
ATOM     28  C   UNL     1      -6.549   7.193  -2.820  0.00  0.00    +0.045 A 
ATOM     29  S   UNL     1      -5.539   6.384  -1.590  0.00  0.00    -0.100 S 
ENDBRANCH  24  25
ENDBRANCH  19  24
ENDBRANCH  18  20
ENDBRANCH  17  18
ENDBRANCH   1  17
TORSDOF 5
