REMARK  Name = ZINC14465622
REMARK  6 active torsions:
REMARK  status: ('A' for Active; 'I' for Inactive)
REMARK    1  A    between atoms: C_1  and  C_2
REMARK    2  A    between atoms: C_2  and  C_3
REMARK    3  A    between atoms: C_2  and  C_4
REMARK    4  A    between atoms: C_4  and  C_5
REMARK    5  A    between atoms: N_7  and  C_8
REMARK    6  A    between atoms: C_21  and  C_24
REMARK                            x       y       z     vdW  Elec       q    Type
REMARK                         _______ _______ _______ _____ _____    ______ ____
ROOT
ATOM      1  C   UNL     1      -3.079   2.487  -0.631  0.00  0.00    +0.034 A 
ATOM      2  C   UNL     1      -2.599   1.191  -0.497  0.00  0.00    +0.025 A 
ATOM      3  C   UNL     1      -3.480   0.133  -0.417  0.00  0.00    +0.025 A 
ATOM      4  C   UNL     1      -4.851   0.352  -0.482  0.00  0.00    +0.031 A 
ATOM      5  C   UNL     1      -5.330   1.661  -0.610  0.00  0.00    -0.018 A 
ATOM      6  C   UNL     1      -4.447   2.715  -0.690  0.00  0.00    +0.029 A 
ATOM      7  C   UNL     1      -6.797   1.851  -0.634  0.00  0.00    +0.049 C 
ATOM      8  C   UNL     1      -7.425   3.019  -1.302  0.00  0.00    -0.023 C 
ATOM      9  C   UNL     1      -8.613   2.653  -1.768  0.00  0.00    -0.030 C 
ATOM     10  C   UNL     1      -8.859   1.173  -1.468  0.00  0.00    +0.033 C 
ATOM     11  C   UNL     1      -7.425   0.634  -1.377  0.00  0.00    +0.029 C 
ATOM     12  C   UNL     1      -7.190  -0.560  -0.469  0.00  0.00    +0.105 C 
ATOM     13  N   UNL     1      -5.723  -0.745  -0.426  0.00  0.00    -0.336 N 
ATOM     14  H   UNL     1      -5.358  -1.641  -0.357  0.00  0.00    +0.147 HD
ENDROOT
BRANCH  12  15
ATOM     15  C   UNL     1      -7.720  -0.275   0.913  0.00  0.00    -0.027 A 
ATOM     16  C   UNL     1      -6.897   0.297   1.864  0.00  0.00    +0.007 A 
ATOM     17  C   UNL     1      -7.384   0.563   3.130  0.00  0.00    +0.020 A 
ATOM     18  C   UNL     1      -8.693   0.246   3.448  0.00  0.00    +0.041 A 
ATOM     19  C   UNL     1      -9.515  -0.332   2.497  0.00  0.00    +0.020 A 
ATOM     20  C   UNL     1      -9.028  -0.592   1.230  0.00  0.00    +0.007 A 
ATOM     21 CL   UNL     1      -9.303   0.573   5.040  0.00  0.00    -0.084 Cl
ENDBRANCH  12  15
BRANCH   1  24
ATOM     22  C   UNL     1      -1.018   3.522  -0.036  0.00  0.00    +0.217 C 
ATOM     23  O   UNL     1      -0.786   2.600   0.717  0.00  0.00    -0.275 OA
ATOM     24  N   UNL     1      -2.184   3.563  -0.712  0.00  0.00    -0.285 N 
ATOM     25  H   UNL     1      -2.403   4.336  -1.255  0.00  0.00    +0.155 HD
BRANCH  22  26
ATOM     26  C   UNL     1      -0.001   4.619  -0.221  0.00  0.00    +0.099 C 
BRANCH  26  28
ATOM     27  C   UNL     1       2.306   5.375   0.369  0.00  0.00    +0.008 C 
ATOM     28  C   UNL     1       1.224   4.330   0.649  0.00  0.00    -0.008 C 
ATOM     29  C   UNL     1       0.827   4.390   2.125  0.00  0.00    +0.008 C 
ENDBRANCH  26  28
ENDBRANCH  22  26
ENDBRANCH   1  24
TORSDOF 4
