REMARK  Name = ZINC13077983
REMARK  11 active torsions:
REMARK  status: ('A' for Active; 'I' for Inactive)
REMARK    1  A    between atoms: C_1  and  C_2
REMARK    2  A    between atoms: C_3  and  C_7
REMARK    3  A    between atoms: C_10  and  S_31
REMARK    4  A    between atoms: N_11  and  N_12
REMARK    5  A    between atoms: C_13  and  C_14
REMARK    6  A    between atoms: C_17  and  N_23
REMARK    7  A    between atoms: C_18  and  N_20
REMARK    8  A    between atoms: N_23  and  C_24
REMARK    9  A    between atoms: N_23  and  C_25
REMARK   10  A    between atoms: S_31  and  C_32
REMARK   11  A    between atoms: C_32  and  C_33
REMARK                            x       y       z     vdW  Elec       q    Type
REMARK                         _______ _______ _______ _____ _____    ______ ____
ROOT
ATOM      1  N   UNL     1      -3.634   3.205   0.053  0.00  0.00    -0.170 NA
ATOM      2  C   UNL     1      -2.517   3.867   0.047  0.00  0.00    +0.141 C 
ENDROOT
BRANCH   2   3
ATOM      3  C   UNL     1      -1.233   3.145   0.031  0.00  0.00    -0.003 A 
ATOM      4  C   UNL     1      -1.215   1.747   0.017  0.00  0.00    +0.011 A 
ATOM      5  C   UNL     1      -0.013   1.076   0.008  0.00  0.00    +0.026 A 
ATOM      6  C   UNL     1       1.183   1.787   0.000  0.00  0.00    +0.064 A 
ATOM      7  C   UNL     1       1.169   3.178   0.008  0.00  0.00    +0.148 A 
ATOM      8  C   UNL     1      -0.029   3.856   0.024  0.00  0.00    +0.044 A 
BRANCH   7   9
ATOM      9  N   UNL     1       2.444   3.930   0.001  0.00  0.00    +0.058 N 
ATOM     10  O   UNL     1       2.432   5.247   0.009  0.00  0.00    -0.126 OA
ATOM     11  O   UNL     1       3.591   3.283  -0.013  0.00  0.00    -0.126 OA
ENDBRANCH   7   9
BRANCH   6  12
ATOM     12  N   UNL     1       2.399   1.104  -0.015  0.00  0.00    -0.301 N 
ATOM     13  C   UNL     1       3.025   0.752  -1.292  0.00  0.00    +0.135 C 
BRANCH  12  14
ATOM     14  C   UNL     1       3.019   0.755   1.187  0.00  0.00    +0.034 A 
ATOM     15  C   UNL     1       2.429   1.093   2.399  0.00  0.00    +0.023 A 
ATOM     16  C   UNL     1       3.043   0.743   3.585  0.00  0.00    +0.002 A 
ATOM     17  C   UNL     1       4.249   0.065   3.568  0.00  0.00    +0.000 A 
ATOM     18  C   UNL     1       4.841  -0.268   2.364  0.00  0.00    +0.002 A 
ATOM     19  C   UNL     1       4.230   0.074   1.174  0.00  0.00    +0.023 A 
ENDBRANCH  12  14
ENDBRANCH   6  12
ENDBRANCH   2   3
BRANCH   1  24
ATOM     20  C   UNL     1      -5.584   4.302  -1.021  0.00  0.00    +0.189 A 
ATOM     21  N   UNL     1      -6.700   4.929  -0.552  0.00  0.00    -0.126 NA
ATOM     22  N   UNL     1      -6.687   4.921   0.734  0.00  0.00    -0.120 NA
ATOM     23  C   UNL     1      -5.565   4.283   1.174  0.00  0.00    +0.213 A 
ATOM     24  N   UNL     1      -4.855   3.892   0.069  0.00  0.00    -0.187 N 
BRANCH  20  27
ATOM     25  C   UNL     1      -7.294   5.249  -3.509  0.00  0.00    +0.087 C 
ATOM     26  C   UNL     1      -5.977   4.517  -3.511  0.00  0.00    +0.113 A 
ATOM     27  C   UNL     1      -5.243   4.110  -2.369  0.00  0.00    +0.062 A 
ATOM     28  C   UNL     1      -4.051   3.439  -2.904  0.00  0.00    +0.053 A 
ATOM     29  C   UNL     1      -4.157   3.500  -4.240  0.00  0.00    +0.196 A 
ATOM     30  O   UNL     1      -5.290   4.137  -4.586  0.00  0.00    -0.467 OA
ENDBRANCH  20  27
BRANCH  23  31
ATOM     31  S   UNL     1      -5.122   4.023   2.807  0.00  0.00    -0.073 S 
BRANCH  31  32
ATOM     32  C   UNL     1      -6.524   4.806   3.642  0.00  0.00    +0.202 C 
BRANCH  32  33
ATOM     33  C   UNL     1      -6.346   4.696   5.134  0.00  0.00    +0.366 C 
ATOM     34  O   UNL     1      -5.371   4.145   5.587  0.00  0.00    -0.245 OA
ATOM     35  O   UNL     1      -7.270   5.210   5.960  0.00  0.00    -0.245 OA
ENDBRANCH  32  33
ENDBRANCH  31  32
ENDBRANCH  23  31
ENDBRANCH   1  24
TORSDOF 9
