REMARK  Name = ZINC51097734
REMARK  10 active torsions:
REMARK  status: ('A' for Active; 'I' for Inactive)
REMARK    1  A    between atoms: C_1  and  C_2
REMARK    2  A    between atoms: C_5  and  C_9
REMARK    3  A    between atoms: C_7  and  C_8
REMARK    4  A    between atoms: C_9  and  C_11
REMARK    5  A    between atoms: C_9  and  N_12
REMARK    6  A    between atoms: C_13  and  C_15
REMARK    7  A    between atoms: C_15  and  N_16
REMARK    8  A    between atoms: C_19  and  N_22
REMARK    9  A    between atoms: C_23  and  C_25
REMARK   10  A    between atoms: C_28  and  C_30
REMARK                            x       y       z     vdW  Elec       q    Type
REMARK                         _______ _______ _______ _____ _____    ______ ____
ROOT
ATOM      1  N   UNL     1       2.933  -7.788  -1.759  0.00  0.00    +0.385 N 
ATOM      2  C   UNL     1       1.808  -8.731  -1.735  0.00  0.00    -0.076 C 
ATOM      3  C   UNL     1       2.306 -10.114  -1.309  0.00  0.00    +0.004 C 
ATOM      4  C   UNL     1       3.360 -10.601  -2.308  0.00  0.00    +0.070 C 
ATOM      5  C   UNL     1       4.493  -9.573  -2.381  0.00  0.00    +0.004 C 
ATOM      6  C   UNL     1       3.914  -8.210  -2.766  0.00  0.00    -0.076 C 
ATOM      7  H   UNL     1       3.372  -7.768  -0.851  0.00  0.00    -0.081 HD
ENDROOT
BRANCH   4   8
ATOM      8  N   UNL     1       3.896 -11.890  -1.865  0.00  0.00    -0.306 N 
ATOM      9  C   UNL     1       4.427 -12.743  -2.763  0.00  0.00    +0.280 C 
ATOM     10  O   UNL     1       4.462 -12.442  -3.942  0.00  0.00    -0.267 OA
ATOM     11  H   UNL     1       3.869 -12.130  -0.925  0.00  0.00    +0.149 HD
BRANCH   9  12
ATOM     12  C   UNL     1       4.964 -14.034  -2.320  0.00  0.00    +0.189 A 
ATOM     13  C   UNL     1       5.532 -14.984  -3.119  0.00  0.00    +0.055 A 
ATOM     14  C   UNL     1       5.902 -16.048  -2.282  0.00  0.00    +0.045 A 
ATOM     15  C   UNL     1       5.549 -15.704  -1.023  0.00  0.00    +0.103 A 
ATOM     16  O   UNL     1       4.988 -14.489  -1.050  0.00  0.00    -0.455 OA
ATOM     17  C   UNL     1       5.756 -16.549   0.207  0.00  0.00    +0.086 C 
ENDBRANCH   9  12
ENDBRANCH   4   8
BRANCH   1  18
ATOM     18  C   UNL     1       2.437  -6.446  -2.092  0.00  0.00    +0.019 C 
BRANCH  18  20
ATOM     19  N   UNL     1       0.948  -4.746  -1.087  0.00  0.00    -0.310 N 
ATOM     20  C   UNL     1       1.524  -5.962  -0.996  0.00  0.00    +0.197 C 
ATOM     21  O   UNL     1       1.306  -6.665  -0.033  0.00  0.00    -0.278 OA
ATOM     22  H   UNL     1       1.121  -4.184  -1.858  0.00  0.00    +0.149 HD
BRANCH  19  23
ATOM     23  C   UNL     1       0.059  -4.275  -0.021  0.00  0.00    +0.100 C 
ATOM     24  C   UNL     1      -1.356  -4.802  -0.267  0.00  0.00    +0.033 C 
BRANCH  23  29
ATOM     25  C   UNL     1      -0.018   1.503   0.010  0.00  0.00    +0.044 C 
ATOM     26  C   UNL     1       0.002  -0.004   0.002  0.00  0.00    -0.048 A 
ATOM     27  C   UNL     1       0.006  -0.689  -1.199  0.00  0.00    +0.004 A 
ATOM     28  C   UNL     1       0.025  -2.071  -1.207  0.00  0.00    +0.006 A 
ATOM     29  C   UNL     1       0.040  -2.768  -0.013  0.00  0.00    -0.027 A 
ATOM     30  C   UNL     1       0.037  -2.084   1.188  0.00  0.00    +0.009 A 
ATOM     31  C   UNL     1       0.023  -0.702   1.195  0.00  0.00    -0.047 A 
ATOM     32  C   UNL     1       0.025   0.045   2.504  0.00  0.00    +0.044 C 
ENDBRANCH  23  29
ENDBRANCH  19  23
ENDBRANCH  18  20
ENDBRANCH   1  18
TORSDOF 6
