REMARK  Name = ZINC59427667
REMARK  8 active torsions:
REMARK  status: ('A' for Active; 'I' for Inactive)
REMARK    1  A    between atoms: C_4  and  C_7
REMARK    2  A    between atoms: C_9  and  C_27
REMARK    3  A    between atoms: C_10  and  C_21
REMARK    4  A    between atoms: N_11  and  C_12
REMARK    5  A    between atoms: C_15  and  N_18
REMARK    6  A    between atoms: N_28  and  N_29
REMARK    7  A    between atoms: C_30  and  C_32
REMARK    8  A    between atoms: C_35  and  O_38
REMARK                            x       y       z     vdW  Elec       q    Type
REMARK                         _______ _______ _______ _____ _____    ______ ____
ROOT
ATOM      1  C   UNL     1       3.735  -0.681  -0.365  0.00  0.00    +0.055 A 
ATOM      2  C   UNL     1       4.915  -0.062   0.039  0.00  0.00    +0.038 A 
ATOM      3  C   UNL     1       5.841  -1.061   0.336  0.00  0.00    +0.021 A 
ATOM      4  C   UNL     1       5.149  -2.354   0.086  0.00  0.00    +0.063 A 
ATOM      5  N   UNL     1       3.887  -2.054  -0.327  0.00  0.00    -0.308 N 
ENDROOT
BRANCH   1   9
ATOM      6  C   UNL     1       0.197   1.345  -1.521  0.00  0.00    +0.000 A 
ATOM      7  C   UNL     1       0.415   0.044  -1.947  0.00  0.00    +0.001 A 
ATOM      8  C   UNL     1       1.562  -0.622  -1.577  0.00  0.00    +0.010 A 
ATOM      9  C   UNL     1       2.511   0.020  -0.765  0.00  0.00    -0.001 A 
ATOM     10  C   UNL     1       2.280   1.339  -0.339  0.00  0.00    +0.010 A 
ATOM     11  C   UNL     1       1.128   1.988  -0.720  0.00  0.00    +0.001 A 
ENDBRANCH   1   9
BRANCH   5  12
ATOM     12  C   UNL     1       2.901  -2.988  -0.664  0.00  0.00    +0.047 A 
ATOM     13  C   UNL     1       1.766  -3.117   0.126  0.00  0.00    +0.028 A 
ATOM     14  C   UNL     1       0.794  -4.040  -0.210  0.00  0.00    +0.035 A 
ATOM     15  C   UNL     1       0.951  -4.835  -1.330  0.00  0.00    +0.126 A 
ATOM     16  C   UNL     1       2.080  -4.709  -2.119  0.00  0.00    +0.035 A 
ATOM     17  C   UNL     1       3.053  -3.784  -1.792  0.00  0.00    +0.028 A 
BRANCH  15  18
ATOM     18  N   UNL     1      -0.092  -5.823  -1.686  0.00  0.00    +0.056 N 
ATOM     19  O   UNL     1      -1.167  -5.944  -0.936  0.00  0.00    -0.126 OA
ATOM     20  O   UNL     1       0.056  -6.581  -2.753  0.00  0.00    -0.126 OA
ENDBRANCH  15  18
ENDBRANCH   5  12
BRANCH   4  21
ATOM     21  C   UNL     1       5.696  -3.647   0.251  0.00  0.00    -0.001 A 
ATOM     22  C   UNL     1       5.046  -4.593   1.070  0.00  0.00    +0.010 A 
ATOM     23  C   UNL     1       5.584  -5.839   1.221  0.00  0.00    +0.001 A 
ATOM     24  C   UNL     1       6.765  -6.175   0.574  0.00  0.00    +0.000 A 
ATOM     25  C   UNL     1       7.413  -5.252  -0.235  0.00  0.00    +0.001 A 
ATOM     26  C   UNL     1       6.891  -4.002  -0.407  0.00  0.00    +0.010 A 
ENDBRANCH   4  21
BRANCH   3  27
ATOM     27  C   UNL     1       7.164  -0.882   0.782  0.00  0.00    +0.140 C 
ATOM     28  N   UNL     1       7.925  -1.929   1.022  0.00  0.00    -0.187 NA
BRANCH  28  29
ATOM     29  N   UNL     1       9.137  -1.766   1.430  0.00  0.00    -0.203 N 
ATOM     30  C   UNL     1       9.916  -2.838   1.676  0.00  0.00    +0.263 C 
ATOM     31  O   UNL     1       9.476  -3.959   1.513  0.00  0.00    -0.268 OA
ATOM     32  H   UNL     1       9.489  -0.871   1.561  0.00  0.00    +0.178 HD
BRANCH  30  33
ATOM     33  C   UNL     1      11.302  -2.651   2.143  0.00  0.00    +0.039 A 
ATOM     34  C   UNL     1      11.809  -1.362   2.337  0.00  0.00    +0.016 A 
ATOM     35  C   UNL     1      13.103  -1.191   2.773  0.00  0.00    +0.046 A 
ATOM     36  C   UNL     1      13.907  -2.299   3.021  0.00  0.00    +0.117 A 
ATOM     37  C   UNL     1      13.407  -3.582   2.829  0.00  0.00    +0.046 A 
ATOM     38  C   UNL     1      12.112  -3.761   2.399  0.00  0.00    +0.016 A 
BRANCH  36  39
ATOM     39  O   UNL     1      15.182  -2.126   3.450  0.00  0.00    -0.507 OA
ATOM     40  H   UNL     1      15.273  -2.092   4.412  0.00  0.00    +0.292 HD
ENDBRANCH  36  39
ENDBRANCH  30  33
ENDBRANCH  28  29
ENDBRANCH   3  27
TORSDOF 8
