REMARK  Name = ZINC20617061
REMARK  4 active torsions:
REMARK  status: ('A' for Active; 'I' for Inactive)
REMARK    1  A    between atoms: C_1  and  N_2
REMARK    2  A    between atoms: C_6  and  C_8
REMARK    3  A    between atoms: C_14  and  C_16
REMARK    4  A    between atoms: C_22  and  C_24
REMARK                            x       y       z     vdW  Elec       q    Type
REMARK                         _______ _______ _______ _____ _____    ______ ____
ROOT
ATOM      1  C   UNL     1      -3.783  -0.325   0.038  0.00  0.00    +0.256 C 
ATOM      2  O   UNL     1      -4.043  -1.514   0.035  0.00  0.00    -0.269 OA
ATOM      3  N   UNL     1      -4.779   0.583   0.053  0.00  0.00    -0.259 N 
ATOM      4  C   UNL     1      -6.102   0.161   0.064  0.00  0.00    +0.188 A 
ATOM      5  N   UNL     1      -6.606  -1.067   0.057  0.00  0.00    -0.125 NA
ATOM      6  N   UNL     1      -7.849  -1.278   0.075  0.00  0.00    -0.140 NA
ATOM      7  C   UNL     1      -8.728  -0.283   0.089  0.00  0.00    +0.134 A 
ATOM      8  S   UNL     1      -7.615   1.119   0.084  0.00  0.00    -0.030 S 
ATOM      9  H   UNL     1      -4.545   1.657   0.056  0.00  0.00    +0.157 HD
ENDROOT
BRANCH   1  15
ATOM     10  C   UNL     1       1.671   3.251   0.003  0.00  0.00    +0.173 C 
ATOM     11  N   UNL     1       1.253   1.847   0.000  0.00  0.00    -0.260 N 
ATOM     12  C   UNL     1      -0.017   1.399   0.010  0.00  0.00    +0.107 A 
ATOM     13  C   UNL     1       0.002  -0.004   0.002  0.00  0.00    +0.040 A 
ATOM     14  C   UNL     1      -1.252  -0.635   0.011  0.00  0.00    +0.033 A 
ATOM     15  C   UNL     1      -2.387   0.120   0.026  0.00  0.00    +0.077 A 
ATOM     16  S   UNL     1      -1.748   1.787   0.034  0.00  0.00    -0.064 S 
ATOM     17  C   UNL     1       1.392  -0.353  -0.013  0.00  0.00    +0.173 A 
ATOM     18  N   UNL     1       2.103   0.734  -0.015  0.00  0.00    -0.166 NA
BRANCH  17  19
ATOM     19  C   UNL     1       1.940  -1.757  -0.027  0.00  0.00    +0.437 C 
ATOM     20  F   UNL     1       2.097  -2.183  -1.350  0.00  0.00    -0.164 F 
ATOM     21  F   UNL     1       3.180  -1.779   0.620  0.00  0.00    -0.164 F 
ATOM     22  F   UNL     1       1.052  -2.611   0.636  0.00  0.00    -0.164 F 
ENDBRANCH  17  19
ENDBRANCH   1  15
BRANCH   7  23
ATOM     23  C   UNL     1     -10.206  -0.323   0.104  0.00  0.00    +0.009 A 
ATOM     24  C   UNL     1     -10.938   0.865   0.123  0.00  0.00    +0.010 A 
ATOM     25  C   UNL     1     -12.317   0.822   0.131  0.00  0.00    +0.001 A 
ATOM     26  C   UNL     1     -12.974  -0.396   0.132  0.00  0.00    +0.000 A 
ATOM     27  C   UNL     1     -12.254  -1.577   0.119  0.00  0.00    +0.001 A 
ATOM     28  C   UNL     1     -10.875  -1.548   0.105  0.00  0.00    +0.010 A 
ENDBRANCH   7  23
TORSDOF 3
