REMARK  Name = ZINC45925227
REMARK  8 active torsions:
REMARK  status: ('A' for Active; 'I' for Inactive)
REMARK    1  A    between atoms: C_5  and  S_6
REMARK    2  A    between atoms: S_6  and  C_9
REMARK    3  A    between atoms: C_12  and  S_16
REMARK    4  A    between atoms: C_14  and  N_15
REMARK    5  A    between atoms: S_16  and  C_17
REMARK    6  A    between atoms: C_17  and  C_18
REMARK    7  A    between atoms: N_20  and  C_21
REMARK    8  A    between atoms: C_21  and  C_22
REMARK                            x       y       z     vdW  Elec       q    Type
REMARK                         _______ _______ _______ _____ _____    ______ ____
ROOT
ATOM      1  C   UNL     1      -1.769  -1.456  -1.671  0.00  0.00    +0.152 A 
ATOM      2  C   UNL     1      -1.620  -2.722  -2.204  0.00  0.00    +0.144 A 
ATOM      3  N   UNL     1      -1.942  -2.934  -3.471  0.00  0.00    -0.228 NA
ATOM      4  C   UNL     1      -2.404  -1.950  -4.230  0.00  0.00    +0.190 A 
ATOM      5  N   UNL     1      -2.562  -0.723  -3.757  0.00  0.00    -0.205 NA
ATOM      6  C   UNL     1      -2.264  -0.441  -2.493  0.00  0.00    +0.146 A 
ENDROOT
BRANCH   1   7
ATOM      7  S   UNL     1      -1.352  -1.132   0.010  0.00  0.00    +0.036 S 
ATOM      8  O   UNL     1      -0.861  -2.352   0.549  0.00  0.00    -0.164 OA
ATOM      9  O   UNL     1      -2.455  -0.438   0.576  0.00  0.00    -0.164 OA
BRANCH   7  14
ATOM     10  C   UNL     1      -0.016   1.351   0.009  0.00  0.00    +0.036 A 
ATOM     11  C   UNL     1       1.183   2.038   0.002  0.00  0.00    +0.025 A 
ATOM     12  C   UNL     1       2.343   1.335  -0.013  0.00  0.00    +0.057 A 
ATOM     13  S   UNL     1       1.753  -0.350  -0.017  0.00  0.00    -0.063 S 
ATOM     14  C   UNL     1       0.002  -0.004   0.002  0.00  0.00    +0.132 A 
ATOM     15 BR   UNL     1       4.123   1.974  -0.027  0.00  0.00    -0.043 Br
ENDBRANCH   7  14
ENDBRANCH   1   7
BRANCH   6  16
ATOM     16  N   UNL     1      -2.435   0.842  -1.999  0.00  0.00    -0.342 N 
ATOM     17  H   UNL     1      -2.211   1.040  -1.076  0.00  0.00    +0.144 HD
ATOM     18  H   UNL     1      -2.779   1.541  -2.576  0.00  0.00    +0.144 HD
ENDBRANCH   6  16
BRANCH   4  19
ATOM     19  S   UNL     1      -2.819  -2.283  -5.910  0.00  0.00    -0.077 S 
BRANCH  19  20
ATOM     20  C   UNL     1      -2.450  -4.048  -6.112  0.00  0.00    +0.173 C 
BRANCH  20  21
ATOM     21  C   UNL     1      -2.764  -4.468  -7.524  0.00  0.00    +0.223 C 
ATOM     22  O   UNL     1      -3.195  -3.658  -8.317  0.00  0.00    -0.275 OA
ATOM     23  N   UNL     1      -2.567  -5.746  -7.907  0.00  0.00    -0.312 N 
ATOM     24  H   UNL     1      -2.223  -6.394  -7.273  0.00  0.00    +0.149 HD
BRANCH  23  25
ATOM     25  C   UNL     1      -2.873  -6.155  -9.280  0.00  0.00    +0.135 C 
BRANCH  25  26
ATOM     26  C   UNL     1      -2.562  -7.643  -9.450  0.00  0.00    +0.135 C 
ATOM     27  C   UNL     1      -2.766  -8.056 -10.924  0.00  0.00    +0.035 C 
ATOM     28  C   UNL     1      -3.414  -9.460 -10.786  0.00  0.00    +0.031 C 
ATOM     29  C   UNL     1      -4.256  -9.271  -9.499  0.00  0.00    +0.160 C 
ATOM     30  O   UNL     1      -3.461  -8.421  -8.652  0.00  0.00    -0.375 OA
ENDBRANCH  25  26
ENDBRANCH  23  25
ENDBRANCH  20  21
ENDBRANCH  19  20
ENDBRANCH   4  19
TORSDOF 8
