REMARK  Name = ZINC15783402
REMARK  7 active torsions:
REMARK  status: ('A' for Active; 'I' for Inactive)
REMARK    1  A    between atoms: C_1  and  C_2
REMARK    2  A    between atoms: C_2  and  C_3
REMARK    3  A    between atoms: C_3  and  C_4
REMARK    4  A    between atoms: C_18  and  S_19
REMARK    5  A    between atoms: S_19  and  C_20
REMARK    6  A    between atoms: C_20  and  C_21
REMARK    7  A    between atoms: N_23  and  C_24
REMARK                            x       y       z     vdW  Elec       q    Type
REMARK                         _______ _______ _______ _____ _____    ______ ____
ROOT
ATOM      1  C   UNL     1       4.587  -4.190  -0.074  0.00  0.00    +0.194 C 
ATOM      2  C   UNL     1       3.868  -2.858  -0.057  0.00  0.00    +0.251 C 
ATOM      3  O   UNL     1       4.369  -1.754  -0.047  0.00  0.00    -0.272 OA
ATOM      4  N   UNL     1       2.549  -3.159  -0.053  0.00  0.00    -0.200 N 
ATOM      5  C   UNL     1       2.370  -4.532  -0.067  0.00  0.00    +0.139 C 
ATOM      6  N   UNL     1       3.501  -5.180  -0.080  0.00  0.00    -0.255 NA
ATOM      7  C   UNL     1       0.978  -5.033  -0.065  0.00  0.00    +0.041 A 
ATOM      8  C   UNL     1       0.697  -6.395  -0.078  0.00  0.00    +0.013 A 
ATOM      9  C   UNL     1      -0.616  -6.818  -0.075  0.00  0.00    +0.001 A 
ATOM     10  C   UNL     1      -1.653  -5.896  -0.059  0.00  0.00    +0.002 A 
ATOM     11  C   UNL     1      -1.393  -4.543  -0.047  0.00  0.00    +0.028 A 
ATOM     12  C   UNL     1      -0.071  -4.092  -0.049  0.00  0.00    +0.077 A 
ATOM     13  N   UNL     1       0.221  -2.767  -0.032  0.00  0.00    -0.225 NA
ATOM     14  C   UNL     1       1.450  -2.326  -0.038  0.00  0.00    +0.169 C 
ENDROOT
BRANCH   1  15
ATOM     15  C   UNL     1       5.454  -4.352   1.176  0.00  0.00    +0.036 C 
BRANCH  15  17
ATOM     16  C   UNL     1       7.056  -5.854   2.367  0.00  0.00    +0.004 C 
ATOM     17  C   UNL     1       6.188  -5.693   1.117  0.00  0.00    -0.001 C 
ENDBRANCH  15  17
ENDBRANCH   1  15
BRANCH  14  18
ATOM     18  S   UNL     1       1.716  -0.584  -0.020  0.00  0.00    -0.080 S 
BRANCH  18  19
ATOM     19  C   UNL     1       0.002  -0.004  -0.005  0.00  0.00    +0.173 C 
BRANCH  19  20
ATOM     20  C   UNL     1      -0.018   1.503   0.012  0.00  0.00    +0.227 C 
ATOM     21  O   UNL     1       1.024   2.123   0.013  0.00  0.00    -0.275 OA
ATOM     22  N   UNL     1      -1.195   2.161   0.019  0.00  0.00    -0.285 N 
ATOM     23  H   UNL     1      -2.027   1.668  -0.053  0.00  0.00    +0.155 HD
BRANCH  22  24
ATOM     24  C   UNL     1      -1.215   3.556   0.133  0.00  0.00    +0.033 A 
ATOM     25  C   UNL     1      -2.239   4.181   0.833  0.00  0.00    +0.025 A 
ATOM     26  C   UNL     1      -2.254   5.558   0.947  0.00  0.00    +0.022 A 
ATOM     27  C   UNL     1      -1.257   6.314   0.356  0.00  0.00    +0.041 A 
ATOM     28  C   UNL     1      -0.239   5.693  -0.346  0.00  0.00    +0.022 A 
ATOM     29  C   UNL     1      -0.216   4.316  -0.459  0.00  0.00    +0.025 A 
ATOM     30 CL   UNL     1      -1.283   8.044   0.496  0.00  0.00    -0.084 Cl
ENDBRANCH  22  24
ENDBRANCH  19  20
ENDBRANCH  18  19
ENDBRANCH  14  18
TORSDOF 6
