REMARK  Name = ZINC13467057
REMARK  4 active torsions:
REMARK  status: ('A' for Active; 'I' for Inactive)
REMARK    1  A    between atoms: C_1  and  C_2
REMARK    2  A    between atoms: N_14  and  N_15
REMARK    3  A    between atoms: C_22  and  C_29
REMARK    4  A    between atoms: C_25  and  O_28
REMARK                            x       y       z     vdW  Elec       q    Type
REMARK                         _______ _______ _______ _____ _____    ______ ____
ROOT
ATOM      1  C   UNL     1       1.490   3.012  -2.914  0.00  0.00    +0.018 C 
ATOM      2  C   UNL     1       1.412   1.526  -2.558  0.00  0.00    +0.011 C 
ATOM      3  C   UNL     1      -0.033   1.024  -2.479  0.00  0.00    +0.013 C 
ATOM      4  C   UNL     1      -0.731   1.593  -1.248  0.00  0.00    +0.005 C 
ATOM      5  C   UNL     1      -0.013   1.086   0.008  0.00  0.00    +0.003 C 
ATOM      6  C   UNL     1       1.419   1.613  -0.003  0.00  0.00    +0.001 C 
ATOM      7  C   UNL     1       2.163   1.209  -1.253  0.00  0.00    +0.005 C 
ATOM      8  C   UNL     1       2.387  -0.313  -1.343  0.00  0.00    +0.010 C 
ATOM      9  C   UNL     1       2.708  -0.530  -2.840  0.00  0.00    +0.053 C 
ATOM     10  C   UNL     1       2.122   0.650  -3.590  0.00  0.00    +0.043 C 
ATOM     11  N   UNL     1       2.205   0.871  -4.848  0.00  0.00    -0.187 NA
ATOM     12  C   UNL     1       2.150   1.069   1.231  0.00  0.00    +0.031 C 
ATOM     13  C   UNL     1       1.382   1.440   2.466  0.00  0.00    -0.027 C 
ATOM     14  C   UNL     1       0.099   1.653   2.465  0.00  0.00    -0.065 C 
ATOM     15  C   UNL     1      -0.762   1.574   1.236  0.00  0.00    -0.008 C 
ATOM     16  C   UNL     1      -1.959   0.659   1.520  0.00  0.00    +0.014 C 
ATOM     17  C   UNL     1      -2.693   1.159   2.766  0.00  0.00    +0.032 C 
ATOM     18  C   UNL     1      -1.768   1.074   3.981  0.00  0.00    +0.119 C 
ATOM     19  C   UNL     1      -0.573   2.012   3.779  0.00  0.00    +0.062 C 
ATOM     20  C   UNL     1      -1.304   2.974   0.939  0.00  0.00    +0.016 C 
ENDROOT
BRANCH  11  21
ATOM     21  N   UNL     1       2.893  -0.028  -5.673  0.00  0.00    -0.191 N 
ATOM     22  C   UNL     1       2.981   0.204  -6.997  0.00  0.00    +0.317 C 
ATOM     23  O   UNL     1       3.578  -0.577  -7.713  0.00  0.00    -0.251 OA
ATOM     24  N   UNL     1       2.406   1.302  -7.529  0.00  0.00    -0.312 N 
ATOM     25  H   UNL     1       3.306  -0.818  -5.290  0.00  0.00    +0.179 HD
ATOM     26  H   UNL     1       1.930   1.925  -6.957  0.00  0.00    +0.147 HD
ATOM     27  H   UNL     1       2.470   1.469  -8.482  0.00  0.00    +0.147 HD
ENDBRANCH  11  21
BRANCH  18  28
ATOM     28  O   UNL     1      -2.485   1.462   5.154  0.00  0.00    -0.391 OA
ATOM     29  H   UNL     1      -1.959   1.433   5.965  0.00  0.00    +0.210 HD
ENDBRANCH  18  28
TORSDOF 2
