REMARK  Name = ZINC20579631
REMARK  5 active torsions:
REMARK  status: ('A' for Active; 'I' for Inactive)
REMARK    1  A    between atoms: C_3  and  C_10
REMARK    2  A    between atoms: C_5  and  N_7
REMARK    3  A    between atoms: C_11  and  C_12
REMARK    4  A    between atoms: C_18  and  C_20
REMARK    5  A    between atoms: N_25  and  C_27
REMARK                            x       y       z     vdW  Elec       q    Type
REMARK                         _______ _______ _______ _____ _____    ______ ____
ROOT
ATOM      1  C   UNL     1       1.014   7.479   0.058  0.00  0.00    +0.243 C 
ATOM      2  O   UNL     1      -0.043   8.082   0.080  0.00  0.00    -0.270 OA
ATOM      3  N   UNL     1       2.177   8.161   0.037  0.00  0.00    -0.260 N 
ATOM      4  C   UNL     1       2.169   9.550   0.041  0.00  0.00    +0.188 A 
ATOM      5  N   UNL     1       1.149  10.397   0.057  0.00  0.00    -0.126 NA
ATOM      6  N   UNL     1       1.321  11.646   0.061  0.00  0.00    -0.144 NA
ATOM      7  C   UNL     1       2.522  12.189   0.039  0.00  0.00    +0.109 A 
ATOM      8  S   UNL     1       3.532  10.710   0.017  0.00  0.00    -0.035 S 
ATOM      9  H   UNL     1       3.133   7.617   0.017  0.00  0.00    +0.157 HD
ENDROOT
BRANCH   7  10
ATOM     10  C   UNL     1       2.929  13.640   0.034  0.00  0.00    +0.073 C 
ATOM     11  C   UNL     1       2.314  14.391   1.238  0.00  0.00    +0.108 C 
ATOM     12  C   UNL     1       1.972  15.758   0.685  0.00  0.00    +0.220 C 
ATOM     13  O   UNL     1       1.730  16.738   1.358  0.00  0.00    -0.275 OA
ATOM     14  N   UNL     1       1.976  15.728  -0.658  0.00  0.00    -0.271 N 
ATOM     15  C   UNL     1       2.298  14.387  -1.161  0.00  0.00    +0.124 C 
BRANCH  14  16
ATOM     16  C   UNL     1       1.708  16.834  -1.474  0.00  0.00    +0.036 A 
ATOM     17  C   UNL     1       1.291  18.031  -0.907  0.00  0.00    +0.025 A 
ATOM     18  C   UNL     1       1.032  19.122  -1.713  0.00  0.00    +0.022 A 
ATOM     19  C   UNL     1       1.177  19.020  -3.086  0.00  0.00    +0.041 A 
ATOM     20  C   UNL     1       1.587  17.826  -3.653  0.00  0.00    +0.022 A 
ATOM     21  C   UNL     1       1.852  16.734  -2.851  0.00  0.00    +0.025 A 
ATOM     22 CL   UNL     1       0.844  20.391  -4.097  0.00  0.00    -0.084 Cl
ENDBRANCH  14  16
ENDBRANCH   7  10
BRANCH   1  24
ATOM     23  C   UNL     1      -0.140   5.335   0.076  0.00  0.00    +0.013 C 
ATOM     24  C   UNL     1       1.024   6.016   0.054  0.00  0.00    +0.068 C 
BRANCH  23  27
ATOM     25  C   UNL     1       1.082   1.788   0.043  0.00  0.00    +0.003 A 
ATOM     26  C   UNL     1       1.082   3.167   0.046  0.00  0.00    +0.008 A 
ATOM     27  C   UNL     1      -0.131   3.863   0.072  0.00  0.00    -0.023 A 
ATOM     28  C   UNL     1      -1.335   3.152   0.093  0.00  0.00    +0.040 A 
ATOM     29  C   UNL     1      -1.319   1.774   0.084  0.00  0.00    +0.127 A 
ATOM     30  C   UNL     1      -0.114   1.093   0.064  0.00  0.00    +0.033 A 
BRANCH  29  31
ATOM     31  N   UNL     1      -2.593   1.020   0.101  0.00  0.00    +0.056 N 
ATOM     32  O   UNL     1      -2.580  -0.198   0.097  0.00  0.00    -0.126 OA
ATOM     33  O   UNL     1      -3.654   1.618   0.118  0.00  0.00    -0.126 OA
ENDBRANCH  29  31
ENDBRANCH  23  27
ENDBRANCH   1  24
TORSDOF 5
