REMARK  Name = ZINC08013101
REMARK  8 active torsions:
REMARK  status: ('A' for Active; 'I' for Inactive)
REMARK    1  A    between atoms: C_1  and  C_2
REMARK    2  A    between atoms: C_2  and  C_3
REMARK    3  A    between atoms: C_3  and  C_4
REMARK    4  A    between atoms: N_12  and  C_13
REMARK    5  A    between atoms: C_13  and  C_14
REMARK    6  A    between atoms: N_16  and  C_17
REMARK    7  A    between atoms: N_16  and  C_19
REMARK    8  A    between atoms: C_17  and  C_18
REMARK                            x       y       z     vdW  Elec       q    Type
REMARK                         _______ _______ _______ _____ _____    ______ ____
ROOT
ATOM      1  C   UNL     1       1.765  -2.949  -3.377  0.00  0.00    +0.111 A 
ATOM      2  N   UNL     1       1.463  -4.201  -3.559  0.00  0.00    -0.232 NA
ATOM      3  C   UNL     1       0.284  -4.294  -4.226  0.00  0.00    +0.089 A 
ATOM      4  C   UNL     1      -0.487  -5.369  -4.676  0.00  0.00    +0.030 A 
ATOM      5  C   UNL     1      -1.661  -5.137  -5.335  0.00  0.00    +0.002 A 
ATOM      6  C   UNL     1      -2.098  -3.840  -5.566  0.00  0.00    +0.002 A 
ATOM      7  C   UNL     1      -1.355  -2.764  -5.130  0.00  0.00    +0.028 A 
ATOM      8  C   UNL     1      -0.160  -2.981  -4.458  0.00  0.00    +0.069 A 
ATOM      9  N   UNL     1       0.797  -2.153  -3.906  0.00  0.00    -0.319 N 
ENDROOT
BRANCH   1  10
ATOM     10  C   UNL     1       3.005  -2.453  -2.678  0.00  0.00    +0.074 C 
BRANCH  10  12
ATOM     11  C   UNL     1       3.979  -1.798  -0.473  0.00  0.00    +0.004 C 
ATOM     12  C   UNL     1       2.721  -2.302  -1.182  0.00  0.00    +0.004 C 
ENDBRANCH  10  12
ENDBRANCH   1  10
BRANCH   9  13
ATOM     13  C   UNL     1       0.777  -0.688  -3.898  0.00  0.00    +0.219 C 
BRANCH  13  14
ATOM     14  C   UNL     1       0.072  -0.202  -2.659  0.00  0.00    +0.236 C 
ATOM     15  O   UNL     1      -0.370  -1.000  -1.860  0.00  0.00    -0.274 OA
ATOM     16  N   UNL     1      -0.067   1.120  -2.437  0.00  0.00    -0.297 N 
BRANCH  16  17
ATOM     17  C   UNL     1      -0.753   1.593  -1.232  0.00  0.00    +0.076 C 
ATOM     18  C   UNL     1      -0.013   1.086   0.008  0.00  0.00    +0.022 C 
ATOM     19  C   UNL     1      -0.729   1.579   1.267  0.00  0.00    +0.002 C 
ATOM     20  C   UNL     1      -2.164   1.050   1.278  0.00  0.00    +0.000 C 
ATOM     21  C   UNL     1      -2.904   1.556   0.038  0.00  0.00    +0.002 C 
ATOM     22  C   UNL     1      -2.188   1.063  -1.221  0.00  0.00    +0.022 C 
ENDBRANCH  16  17
BRANCH  16  23
ATOM     23  C   UNL     1       0.468   2.085  -3.401  0.00  0.00    +0.105 C 
ATOM     24  C   UNL     1       1.910   2.434  -3.027  0.00  0.00    +0.024 C 
ENDBRANCH  16  23
ENDBRANCH  13  14
ENDBRANCH   9  13
TORSDOF 6
