REMARK  Name = ZINC35591821
REMARK  13 active torsions:
REMARK  status: ('A' for Active; 'I' for Inactive)
REMARK    1  A    between atoms: C_1  and  C_2
REMARK    2  A    between atoms: C_7  and  C_8
REMARK    3  A    between atoms: C_8  and  O_9
REMARK    4  A    between atoms: O_9  and  C_10
REMARK    5  A    between atoms: C_10  and  C_33
REMARK    6  A    between atoms: C_16  and  O_19
REMARK    7  A    between atoms: O_19  and  C_20
REMARK    8  A    between atoms: C_20  and  C_21
REMARK    9  A    between atoms: C_29  and  C_31
REMARK   10  A    between atoms: C_29  and  C_32
REMARK   11  A    between atoms: N_35  and  C_36
REMARK   12  A    between atoms: C_36  and  C_37
REMARK   13  A    between atoms: C_36  and  C_38
REMARK                            x       y       z     vdW  Elec       q    Type
REMARK                         _______ _______ _______ _____ _____    ______ ____
ROOT
ATOM      1  C   UNL     1      -0.003  -0.370   4.917  0.00  0.00    +0.150 C 
ATOM      2  C   UNL     1       0.185  -1.404   6.024  0.00  0.00    +0.079 C 
ATOM      3  C   UNL     1       0.156  -0.740   7.402  0.00  0.00    +0.156 C 
ATOM      4  C   UNL     1       1.165   0.421   7.471  0.00  0.00    +0.179 C 
ATOM      5  C   UNL     1       1.077   1.366   6.298  0.00  0.00    +0.153 C 
ATOM      6  C   UNL     1       1.165   0.621   4.974  0.00  0.00    +0.079 C 
ATOM      7  O   UNL     1       2.425  -0.267   7.535  0.00  0.00    -0.341 OA
ATOM      8  C   UNL     1       2.154  -1.408   8.375  0.00  0.00    +0.165 C 
ATOM      9  O   UNL     1       0.732  -1.700   8.328  0.00  0.00    -0.343 OA
ATOM     10  C   UNL     1       2.942  -2.618   7.869  0.00  0.00    +0.074 C 
ATOM     11  C   UNL     1       2.565  -1.096   9.815  0.00  0.00    +0.074 C 
ENDROOT
BRANCH   1  12
ATOM     12  C   UNL     1      -1.302   0.366   5.122  0.00  0.00    +0.245 C 
ATOM     13  O   UNL     1      -1.809   0.406   6.223  0.00  0.00    -0.273 OA
ATOM     14  N   UNL     1      -1.901   0.979   4.081  0.00  0.00    -0.311 N 
ATOM     15  H   UNL     1      -1.461   1.006   3.217  0.00  0.00    +0.149 HD
BRANCH  14  16
ATOM     16  C   UNL     1      -3.215   1.602   4.255  0.00  0.00    +0.067 C 
ATOM     17  C   UNL     1      -3.396   2.709   3.215  0.00  0.00    +0.027 C 
ATOM     18  C   UNL     1      -4.308   0.548   4.074  0.00  0.00    +0.027 C 
ENDBRANCH  14  16
ENDBRANCH   1  12
BRANCH   1  19
ATOM     19  O   UNL     1      -0.016  -1.024   3.647  0.00  0.00    -0.359 OA
BRANCH  19  20
ATOM     20  C   UNL     1       1.136  -1.830   3.396  0.00  0.00    +0.196 C 
BRANCH  20  27
ATOM     21  C   UNL     1       3.215  -3.595   2.441  0.00  0.00    +0.044 C 
ATOM     22  C   UNL     1       1.966  -3.390   1.623  0.00  0.00    -0.045 A 
ATOM     23  C   UNL     1       1.813  -4.051   0.419  0.00  0.00    +0.004 A 
ATOM     24  C   UNL     1       0.667  -3.864  -0.332  0.00  0.00    +0.000 A 
ATOM     25  C   UNL     1      -0.325  -3.015   0.123  0.00  0.00    +0.000 A 
ATOM     26  C   UNL     1      -0.172  -2.355   1.327  0.00  0.00    +0.006 A 
ATOM     27  C   UNL     1       0.972  -2.546   2.080  0.00  0.00    -0.019 A 
ENDBRANCH  20  27
ENDBRANCH  19  20
ENDBRANCH   1  19
BRANCH   5  28
ATOM     28  O   UNL     1       2.155   2.300   6.369  0.00  0.00    -0.369 OA
BRANCH  28  29
ATOM     29  C   UNL     1       1.856   3.577   5.800  0.00  0.00    +0.198 C 
BRANCH  29  30
ATOM     30  C   UNL     1       3.058   4.478   5.930  0.00  0.00    +0.013 A 
ATOM     31  C   UNL     1       4.213   4.008   6.525  0.00  0.00    +0.009 A 
ATOM     32  C   UNL     1       5.315   4.834   6.643  0.00  0.00    +0.001 A 
ATOM     33  C   UNL     1       5.263   6.131   6.167  0.00  0.00    +0.003 A 
ATOM     34  C   UNL     1       4.109   6.603   5.571  0.00  0.00    +0.039 A 
ATOM     35  C   UNL     1       3.006   5.774   5.447  0.00  0.00    +0.129 A 
ATOM     36  F   UNL     1       1.878   6.233   4.861  0.00  0.00    -0.205 F 
ENDBRANCH  29  30
ENDBRANCH  28  29
ENDBRANCH   5  28
TORSDOF 8
