REMARK  Name = ZINC12040111
REMARK  13 active torsions:
REMARK  status: ('A' for Active; 'I' for Inactive)
REMARK    1  A    between atoms: C_1  and  N_2
REMARK    2  A    between atoms: C_4  and  C_7
REMARK    3  A    between atoms: C_7  and  C_8
REMARK    4  A    between atoms: C_8  and  N_61
REMARK    5  A    between atoms: C_9  and  N_61
REMARK    6  A    between atoms: C_10  and  C_11
REMARK    7  A    between atoms: C_10  and  N_61
REMARK    8  A    between atoms: C_15  and  N_24
REMARK    9  A    between atoms: C_16  and  C_20
REMARK   10  A    between atoms: C_20  and  O_22
REMARK   11  A    between atoms: O_22  and  C_23
REMARK   12  A    between atoms: C_25  and  C_27
REMARK   13  A    between atoms: C_27  and  C_28
REMARK                            x       y       z     vdW  Elec       q    Type
REMARK                         _______ _______ _______ _____ _____    ______ ____
ROOT
ATOM      1  C   UNL     1      -1.954  -5.422   2.446  0.00  0.00    +0.026 A 
ATOM      2  C   UNL     1      -1.362  -4.972   3.618  0.00  0.00    +0.022 A 
ATOM      3  C   UNL     1      -0.283  -4.122   3.570  0.00  0.00    +0.014 A 
ATOM      4  C   UNL     1       0.213  -3.711   2.306  0.00  0.00    +0.030 A 
ATOM      5  C   UNL     1       1.329  -2.827   2.013  0.00  0.00    +0.064 A 
ATOM      6  C   UNL     1       1.630  -2.570   0.694  0.00  0.00    +0.120 A 
ATOM      7  S   UNL     1       0.408  -3.511  -0.200  0.00  0.00    -0.060 S 
ATOM      8  C   UNL     1      -0.460  -4.225   1.175  0.00  0.00    +0.111 A 
ATOM      9  N   UNL     1      -1.490  -5.038   1.273  0.00  0.00    -0.246 NA
ENDROOT
BRANCH   5  10
ATOM     10  N   UNL     1       2.074  -2.255   3.039  0.00  0.00    -0.284 N 
ATOM     11  C   UNL     1       3.022  -2.978   3.667  0.00  0.00    +0.222 C 
ATOM     12  O   UNL     1       3.298  -4.091   3.271  0.00  0.00    -0.275 OA
ATOM     13  H   UNL     1       1.912  -1.336   3.302  0.00  0.00    +0.155 HD
BRANCH  11  14
ATOM     14  C   UNL     1       3.740  -2.405   4.862  0.00  0.00    +0.131 C 
BRANCH  14  15
ATOM     15  C   UNL     1       4.742  -3.406   5.374  0.00  0.00    -0.038 A 
ATOM     16  C   UNL     1       4.370  -4.326   6.337  0.00  0.00    +0.007 A 
ATOM     17  C   UNL     1       5.287  -5.248   6.804  0.00  0.00    +0.038 A 
ATOM     18  C   UNL     1       6.582  -5.244   6.316  0.00  0.00    +0.123 A 
ATOM     19  C   UNL     1       6.956  -4.319   5.355  0.00  0.00    +0.038 A 
ATOM     20  C   UNL     1       6.036  -3.401   4.885  0.00  0.00    +0.007 A 
ATOM     21  F   UNL     1       7.481  -6.142   6.775  0.00  0.00    -0.205 F 
ENDBRANCH  14  15
ENDBRANCH  11  14
ENDBRANCH   5  10
BRANCH   6  22
ATOM     22  C   UNL     1       2.661  -1.748   0.172  0.00  0.00    +0.348 C 
ATOM     23  O   UNL     1       3.433  -1.187   0.926  0.00  0.00    -0.244 OA
BRANCH  22  24
ATOM     24  O   UNL     1       2.785  -1.588  -1.163  0.00  0.00    -0.464 OA
ATOM     25  C   UNL     1       3.846  -0.746  -1.619  0.00  0.00    +0.280 C 
ENDBRANCH  22  24
ENDBRANCH   6  22
BRANCH   1  26
ATOM     26  C   UNL     1      -3.135  -6.355   2.515  0.00  0.00    -0.023 C 
BRANCH  26  28
ATOM     27  C   UNL     1      -4.514  -4.938   1.117  0.00  0.00    -0.096 C 
ATOM     28  N   UNL     1      -4.378  -5.556   2.453  0.00  0.00    +0.382 N 
ATOM     29  H   UNL     1      -4.333  -4.814   3.161  0.00  0.00    -0.082 HD
BRANCH  28  30
ATOM     30  C   UNL     1      -5.546  -6.417   2.733  0.00  0.00    -0.074 C 
BRANCH  30  31
ATOM     31  C   UNL     1      -6.785  -5.533   2.884  0.00  0.00    +0.020 C 
BRANCH  31  35
ATOM     32  C   UNL     1     -10.862  -8.403   2.367  0.00  0.00    +0.172 C 
ATOM     33  N   UNL     1      -9.758  -7.644   2.960  0.00  0.00    -0.274 N 
ATOM     34  C   UNL     1      -8.821  -6.946   2.284  0.00  0.00    +0.111 A 
ATOM     35  C   UNL     1      -7.983  -6.394   3.192  0.00  0.00    -0.012 A 
ATOM     36  C   UNL     1      -8.428  -6.760   4.466  0.00  0.00    +0.138 A 
ATOM     37  N   UNL     1      -9.492  -7.509   4.329  0.00  0.00    -0.180 NA
ENDBRANCH  31  35
ENDBRANCH  30  31
ENDBRANCH  28  30
ENDBRANCH  26  28
ENDBRANCH   1  26
TORSDOF 10
