REMARK  Name = ZINC12631609
REMARK  13 active torsions:
REMARK  status: ('A' for Active; 'I' for Inactive)
REMARK    1  A    between atoms: C_1  and  C_2
REMARK    2  A    between atoms: C_2  and  O_3
REMARK    3  A    between atoms: O_3  and  C_4
REMARK    4  A    between atoms: C_4  and  C_5
REMARK    5  A    between atoms: C_5  and  N_6
REMARK    6  A    between atoms: C_10  and  S_28
REMARK    7  A    between atoms: N_15  and  C_16
REMARK    8  A    between atoms: C_16  and  C_18
REMARK    9  A    between atoms: C_18  and  S_19
REMARK   10  A    between atoms: S_19  and  C_20
REMARK   11  A    between atoms: C_23  and  O_26
REMARK   12  A    between atoms: O_26  and  C_27
REMARK   13  A    between atoms: S_28  and  N_31
REMARK                            x       y       z     vdW  Elec       q    Type
REMARK                         _______ _______ _______ _____ _____    ______ ____
ROOT
ATOM      1  N   UNL     1       1.386  -2.005  -0.007  0.00  0.00    -0.319 N 
ATOM      2  C   UNL     1       2.672  -2.510   0.019  0.00  0.00    +0.058 A 
ATOM      3  C   UNL     1       3.081  -3.853   0.038  0.00  0.00    +0.029 A 
ATOM      4  C   UNL     1       4.415  -4.181   0.063  0.00  0.00    +0.030 A 
ATOM      5  C   UNL     1       5.396  -3.203   0.069  0.00  0.00    +0.106 A 
ATOM      6  C   UNL     1       5.021  -1.871   0.050  0.00  0.00    +0.045 A 
ATOM      7  C   UNL     1       3.687  -1.541   0.026  0.00  0.00    +0.041 A 
ATOM      8  S   UNL     1       2.788  -0.011  -0.011  0.00  0.00    -0.052 S 
ATOM      9  C   UNL     1       1.181  -0.661  -0.023  0.00  0.00    +0.167 A 
ATOM     10  N   UNL     1       0.024  -0.003  -0.048  0.00  0.00    -0.156 NA
ENDROOT
BRANCH   5  11
ATOM     11  S   UNL     1       7.100  -3.649   0.102  0.00  0.00    +0.056 S 
ATOM     12  O   UNL     1       7.799  -2.542   0.653  0.00  0.00    -0.153 OA
ATOM     13  O   UNL     1       7.168  -4.951   0.667  0.00  0.00    -0.153 OA
BRANCH  11  14
ATOM     14  N   UNL     1       7.599  -3.789  -1.471  0.00  0.00    -0.204 NA
ATOM     15  H   UNL     1       8.521  -3.598  -1.706  0.00  0.00    +0.144 HD
ATOM     16  H   UNL     1       6.970  -4.063  -2.157  0.00  0.00    +0.144 HD
ENDBRANCH  11  14
ENDBRANCH   5  11
BRANCH  10  17
ATOM     17  C   UNL     1       0.016   1.326  -0.061  0.00  0.00    +0.249 C 
ATOM     18  O   UNL     1       1.065   1.941  -0.051  0.00  0.00    -0.273 OA
BRANCH  17  19
ATOM     19  C   UNL     1      -1.293   2.071  -0.096  0.00  0.00    +0.172 C 
BRANCH  19  20
ATOM     20  S   UNL     1      -0.973   3.857  -0.107  0.00  0.00    -0.116 S 
BRANCH  20  21
ATOM     21  C   UNL     1      -2.580   4.578  -0.148  0.00  0.00    +0.009 A 
ATOM     22  C   UNL     1      -3.706   3.766  -0.169  0.00  0.00    +0.018 A 
ATOM     23  C   UNL     1      -4.965   4.332  -0.196  0.00  0.00    +0.047 A 
ATOM     24  C   UNL     1      -5.105   5.712  -0.212  0.00  0.00    +0.120 A 
ATOM     25  C   UNL     1      -3.981   6.525  -0.197  0.00  0.00    +0.047 A 
ATOM     26  C   UNL     1      -2.721   5.960  -0.164  0.00  0.00    +0.018 A 
BRANCH  24  27
ATOM     27  O   UNL     1      -6.346   6.269  -0.244  0.00  0.00    -0.495 OA
ATOM     28  C   UNL     1      -7.459   5.373  -0.259  0.00  0.00    +0.277 C 
ENDBRANCH  24  27
ENDBRANCH  20  21
ENDBRANCH  19  20
ENDBRANCH  17  19
ENDBRANCH  10  17
BRANCH   1  29
ATOM     29  C   UNL     1       0.241  -2.919  -0.015  0.00  0.00    +0.152 C 
BRANCH  29  30
ATOM     30  C   UNL     1      -0.891  -2.327   0.826  0.00  0.00    +0.181 C 
BRANCH  30  31
ATOM     31  O   UNL     1      -1.954  -3.276   0.929  0.00  0.00    -0.378 OA
BRANCH  31  33
ATOM     32  C   UNL     1      -4.140  -3.910   1.742  0.00  0.00    +0.034 C 
ATOM     33  C   UNL     1      -3.068  -2.820   1.700  0.00  0.00    +0.156 C 
ENDBRANCH  31  33
ENDBRANCH  30  31
ENDBRANCH  29  30
ENDBRANCH   1  29
TORSDOF 11
