REMARK  Name = ZINC39916073
REMARK  5 active torsions:
REMARK  status: ('A' for Active; 'I' for Inactive)
REMARK    1  A    between atoms: C_4  and  C_7
REMARK    2  A    between atoms: C_7  and  C_8
REMARK    3  A    between atoms: C_7  and  S_14
REMARK    4  A    between atoms: S_14  and  C_15
REMARK    5  A    between atoms: C_22  and  C_26
REMARK                            x       y       z     vdW  Elec       q    Type
REMARK                         _______ _______ _______ _____ _____    ______ ____
ROOT
ATOM      1  C   UNL     1       5.200  -2.688  -1.619  0.00  0.00    +0.167 C 
ATOM      2  N   UNL     1       6.131  -2.403  -0.728  0.00  0.00    -0.223 NA
ATOM      3  C   UNL     1       7.269  -3.258  -1.067  0.00  0.00    +0.284 C 
ATOM      4  N   UNL     1       8.584  -2.631  -0.974  0.00  0.00    -0.312 N 
ATOM      5  C   UNL     1       9.596  -3.266  -1.664  0.00  0.00    +0.015 C 
ATOM      6  C   UNL     1       9.319  -4.185  -2.617  0.00  0.00    +0.035 C 
ATOM      7  C   UNL     1       7.887  -4.536  -2.984  0.00  0.00    +0.142 C 
ATOM      8  N   UNL     1       7.020  -3.470  -2.530  0.00  0.00    -0.176 NA
ATOM      9  N   UNL     1       5.667  -3.650  -2.511  0.00  0.00    -0.253 N 
ATOM     10  C   UNL     1      10.348  -4.844  -3.307  0.00  0.00    +0.163 C 
ATOM     11  O   UNL     1      10.066  -5.673  -4.150  0.00  0.00    -0.292 OA
ATOM     12  C   UNL     1      11.793  -4.543  -3.019  0.00  0.00    +0.080 C 
ATOM     13  C   UNL     1      11.913  -3.092  -2.541  0.00  0.00    +0.014 C 
ATOM     14  C   UNL     1      11.018  -2.909  -1.314  0.00  0.00    +0.051 C 
ATOM     15  H   UNL     1       8.736  -1.821  -0.462  0.00  0.00    +0.149 HD
ATOM     16  H   UNL     1       5.146  -4.300  -3.009  0.00  0.00    +0.169 HD
ENDROOT
BRANCH   7  17
ATOM     17  C   UNL     1       7.485  -5.818  -2.302  0.00  0.00    -0.026 C 
ATOM     18  C   UNL     1       6.515  -5.979  -1.403  0.00  0.00    +0.020 C 
ATOM     19  C   UNL     1       6.457  -7.382  -0.994  0.00  0.00    +0.078 C 
ATOM     20  N   UNL     1       7.351  -8.083  -1.608  0.00  0.00    -0.386 N 
ATOM     21  C   UNL     1       8.095  -7.188  -2.503  0.00  0.00    +0.145 C 
ATOM     22  H   UNL     1       7.503  -9.034  -1.499  0.00  0.00    +0.159 HD
ENDBRANCH   7  17
BRANCH   1  23
ATOM     23  S   UNL     1       3.595  -1.963  -1.667  0.00  0.00    -0.077 S 
BRANCH  23  24
ATOM     24  C   UNL     1       3.595  -0.805  -0.270  0.00  0.00    +0.114 C 
BRANCH  24  28
ATOM     25  C   UNL     1      -0.051   1.421  -0.270  0.00  0.00    +0.000 A 
ATOM     26  C   UNL     1       1.163   2.082  -0.229  0.00  0.00    +0.000 A 
ATOM     27  C   UNL     1       2.342   1.361  -0.229  0.00  0.00    +0.005 A 
ATOM     28  C   UNL     1       2.309  -0.020  -0.269  0.00  0.00    -0.030 A 
ATOM     29  C   UNL     1       1.095  -0.680  -0.309  0.00  0.00    +0.005 A 
ATOM     30  C   UNL     1      -0.085   0.040  -0.311  0.00  0.00    +0.000 A 
ENDBRANCH  24  28
BRANCH  24  31
ATOM     31  C   UNL     1       3.714  -1.575   1.020  0.00  0.00    -0.030 A 
ATOM     32  C   UNL     1       2.862  -2.634   1.274  0.00  0.00    +0.005 A 
ATOM     33  C   UNL     1       2.972  -3.340   2.457  0.00  0.00    +0.000 A 
ATOM     34  C   UNL     1       3.933  -2.988   3.386  0.00  0.00    +0.000 A 
ATOM     35  C   UNL     1       4.785  -1.929   3.132  0.00  0.00    +0.000 A 
ATOM     36  C   UNL     1       4.678  -1.226   1.946  0.00  0.00    +0.005 A 
ENDBRANCH  24  31
ENDBRANCH  23  24
ENDBRANCH   1  23
TORSDOF 5
