REMARK  Name = ZINC13598487
REMARK  1 active torsions:
REMARK  status: ('A' for Active; 'I' for Inactive)
REMARK    1  A    between atoms: C_19  and  C_21
REMARK                            x       y       z     vdW  Elec       q    Type
REMARK                         _______ _______ _______ _____ _____    ______ ____
ROOT
ATOM      1  C   UNL     1      -0.017   1.395   0.010  0.00  0.00    +0.001 A 
ATOM      2  C   UNL     1       1.142   2.135   0.003  0.00  0.00    +0.001 A 
ATOM      3  C   UNL     1       2.403   1.534  -0.012  0.00  0.00    +0.010 A 
ATOM      4  C   UNL     1       2.439   0.148  -0.018  0.00  0.00    +0.007 A 
ATOM      5  C   UNL     1       1.243  -0.612  -0.012  0.00  0.00    +0.031 A 
ATOM      6  C   UNL     1       0.002  -0.004   0.002  0.00  0.00    +0.012 A 
ATOM      7  C   UNL     1       1.643  -2.036  -0.024  0.00  0.00    +0.193 C 
ATOM      8  C   UNL     1       3.055  -2.080  -0.034  0.00  0.00    +0.034 C 
ATOM      9  C   UNL     1       3.556  -0.802  -0.029  0.00  0.00    +0.048 C 
ATOM     10  N   UNL     1       4.910  -0.558  -0.030  0.00  0.00    -0.300 N 
ATOM     11  C   UNL     1       5.766  -1.600   0.267  0.00  0.00    +0.112 A 
ATOM     12  C   UNL     1       5.356  -2.896   0.277  0.00  0.00    +0.069 A 
ATOM     13  C   UNL     1       6.293  -3.903   0.601  0.00  0.00    +0.280 A 
ATOM     14  N   UNL     1       7.560  -3.569   0.888  0.00  0.00    -0.177 NA
ATOM     15  C   UNL     1       7.947  -2.311   0.871  0.00  0.00    +0.195 A 
ATOM     16  N   UNL     1       7.076  -1.313   0.564  0.00  0.00    -0.316 N 
ATOM     17  N   UNL     1       9.248  -2.003   1.167  0.00  0.00    -0.329 N 
ATOM     18  O   UNL     1       5.950  -5.077   0.619  0.00  0.00    -0.265 OA
ATOM     19  C   UNL     1       3.940  -3.299  -0.049  0.00  0.00    +0.093 C 
ATOM     20  O   UNL     1       0.894  -2.994  -0.023  0.00  0.00    -0.287 OA
ATOM     21  H   UNL     1       9.876  -2.709   1.386  0.00  0.00    +0.145 HD
ATOM     22  H   UNL     1       9.542  -1.079   1.157  0.00  0.00    +0.145 HD
ATOM     23  H   UNL     1       5.256   0.325  -0.235  0.00  0.00    +0.154 HD
ATOM     24  H   UNL     1       7.382  -0.392   0.555  0.00  0.00    +0.170 HD
ENDROOT
BRANCH  19  25
ATOM     25  C   UNL     1       3.900  -3.932  -1.416  0.00  0.00    -0.035 A 
ATOM     26  C   UNL     1       4.312  -3.213  -2.522  0.00  0.00    +0.007 A 
ATOM     27  C   UNL     1       4.276  -3.793  -3.776  0.00  0.00    +0.038 A 
ATOM     28  C   UNL     1       3.828  -5.095  -3.924  0.00  0.00    +0.123 A 
ATOM     29  C   UNL     1       3.416  -5.814  -2.815  0.00  0.00    +0.038 A 
ATOM     30  C   UNL     1       3.458  -5.234  -1.561  0.00  0.00    +0.007 A 
ATOM     31  F   UNL     1       3.792  -5.662  -5.150  0.00  0.00    -0.205 F 
ENDBRANCH  19  25
TORSDOF 1
