REMARK  Name = ZINC08836175
REMARK  8 active torsions:
REMARK  status: ('A' for Active; 'I' for Inactive)
REMARK    1  A    between atoms: C_1  and  C_2
REMARK    2  A    between atoms: C_2  and  C_3
REMARK    3  A    between atoms: C_2  and  C_4
REMARK    4  A    between atoms: C_4  and  N_5
REMARK    5  A    between atoms: C_6  and  C_8
REMARK    6  A    between atoms: N_19  and  N_22
REMARK    7  A    between atoms: C_20  and  N_21
REMARK    8  A    between atoms: C_23  and  C_24
REMARK                            x       y       z     vdW  Elec       q    Type
REMARK                         _______ _______ _______ _____ _____    ______ ____
ROOT
ATOM      1  C   UNL     1      -6.706   5.595   0.876  0.00  0.00    +0.105 A 
ATOM      2  C   UNL     1      -6.772   5.632  -0.594  0.00  0.00    +0.124 A 
ATOM      3  C   UNL     1      -5.560   4.948  -1.055  0.00  0.00    +0.183 A 
ATOM      4  N   UNL     1      -5.339   4.822  -2.346  0.00  0.00    -0.224 NA
ATOM      5  C   UNL     1      -6.219   5.318  -3.225  0.00  0.00    +0.092 A 
ATOM      6  C   UNL     1      -5.990   5.189  -4.607  0.00  0.00    +0.030 A 
ATOM      7  C   UNL     1      -6.890   5.696  -5.493  0.00  0.00    +0.002 A 
ATOM      8  C   UNL     1      -8.041   6.347  -5.052  0.00  0.00    +0.002 A 
ATOM      9  C   UNL     1      -8.296   6.492  -3.724  0.00  0.00    +0.030 A 
ATOM     10  C   UNL     1      -7.390   5.980  -2.777  0.00  0.00    +0.090 A 
ATOM     11  N   UNL     1      -7.631   6.117  -1.468  0.00  0.00    -0.241 NA
ATOM     12  N   UNL     1      -4.865   4.556   0.073  0.00  0.00    -0.198 N 
ATOM     13  C   UNL     1      -5.532   4.926   1.203  0.00  0.00    +0.134 A 
ENDROOT
BRANCH   1  15
ATOM     14  N   UNL     1      -7.564   7.420   2.239  0.00  0.00    -0.311 N 
ATOM     15  C   UNL     1      -7.686   6.148   1.809  0.00  0.00    +0.250 C 
ATOM     16  O   UNL     1      -8.612   5.460   2.198  0.00  0.00    -0.270 OA
ATOM     17  H   UNL     1      -6.826   7.968   1.929  0.00  0.00    +0.149 HD
BRANCH  14  18
ATOM     18  C   UNL     1      -8.546   7.974   3.174  0.00  0.00    +0.107 C 
BRANCH  18  20
ATOM     19  C   UNL     1      -8.298  10.276   2.234  0.00  0.00    +0.009 C 
ATOM     20  C   UNL     1      -8.179   9.424   3.499  0.00  0.00    -0.000 C 
ATOM     21  C   UNL     1      -9.130   9.963   4.569  0.00  0.00    +0.009 C 
ENDBRANCH  18  20
ENDBRANCH  14  18
ENDBRANCH   1  15
BRANCH  13  22
ATOM     22  N   UNL     1      -5.103   4.677   2.482  0.00  0.00    -0.342 N 
ATOM     23  H   UNL     1      -4.269   4.205   2.631  0.00  0.00    +0.144 HD
ATOM     24  H   UNL     1      -5.634   4.973   3.238  0.00  0.00    +0.144 HD
ENDBRANCH  13  22
BRANCH  12  25
ATOM     25  N   UNL     1      -3.645   3.867   0.058  0.00  0.00    -0.171 NA
ATOM     26  C   UNL     1      -2.527   4.526   0.051  0.00  0.00    +0.141 C 
BRANCH  26  27
ATOM     27  C   UNL     1      -1.243   3.801   0.034  0.00  0.00    -0.004 A 
ATOM     28  C   UNL     1      -0.038   4.508   0.026  0.00  0.00    +0.011 A 
ATOM     29  C   UNL     1       1.159   3.825   0.011  0.00  0.00    +0.022 A 
ATOM     30  C   UNL     1       1.170   2.440   0.004  0.00  0.00    +0.059 A 
ATOM     31  C   UNL     1      -0.021   1.732   0.012  0.00  0.00    +0.060 A 
ATOM     32  C   UNL     1      -1.227   2.404   0.021  0.00  0.00    +0.031 A 
ATOM     33 CL   UNL     1       0.002  -0.004   0.002  0.00  0.00    -0.082 Cl
ATOM     34 CL   UNL     1       2.682   1.587  -0.015  0.00  0.00    -0.082 Cl
ENDBRANCH  26  27
ENDBRANCH  12  25
TORSDOF 6
