REMARK  Name = ZINC36678316
REMARK  6 active torsions:
REMARK  status: ('A' for Active; 'I' for Inactive)
REMARK    1  A    between atoms: C_1  and  C_2
REMARK    2  A    between atoms: C_2  and  C_3
REMARK    3  A    between atoms: C_3  and  C_5
REMARK    4  A    between atoms: C_3  and  N_10
REMARK    5  A    between atoms: C_5  and  C_6
REMARK    6  A    between atoms: N_7  and  O_8
REMARK                            x       y       z     vdW  Elec       q    Type
REMARK                         _______ _______ _______ _____ _____    ______ ____
ROOT
ATOM      1  C   UNL     1      -1.456  -0.440   0.110  0.00  0.00    -0.062 C 
ENDROOT
BRANCH   1   2
ATOM      2  N   UNL     1      -2.172  -0.204   1.371  0.00  0.00    +0.382 N 
ATOM      3  C   UNL     1      -2.184   1.236   1.662  0.00  0.00    -0.078 C 
ATOM      4  C   UNL     1      -3.223   1.550   2.738  0.00  0.00    -0.019 C 
ATOM      5  C   UNL     1      -2.674   1.146   4.111  0.00  0.00    -0.002 C 
ATOM      6  C   UNL     1      -2.727  -0.378   4.229  0.00  0.00    -0.000 C 
ATOM      7  C   UNL     1      -4.068  -0.875   3.688  0.00  0.00    -0.002 C 
ATOM      8  C   UNL     1      -3.841  -1.670   2.405  0.00  0.00    -0.019 C 
ATOM      9  C   UNL     1      -3.549  -0.703   1.251  0.00  0.00    -0.078 C 
ATOM     10  H   UNL     1      -1.703  -0.692   2.119  0.00  0.00    -0.081 HD
ENDBRANCH   1   2
BRANCH   1  12
ATOM     11  C   UNL     1      -3.466   0.097  -1.275  0.00  0.00    +0.002 C 
ATOM     12  C   UNL     1      -2.016   0.483  -0.975  0.00  0.00    -0.018 C 
ENDBRANCH   1  12
BRANCH   1  13
ATOM     13  C   UNL     1       0.033  -0.151   0.307  0.00  0.00    +0.059 C 
BRANCH  13  14
ATOM     14  C   UNL     1       0.611  -1.137   1.289  0.00  0.00    +0.130 C 
ATOM     15  N   UNL     1      -0.117  -2.108   1.733  0.00  0.00    -0.077 NA
ATOM     16  N   UNL     1       1.914  -1.003   1.714  0.00  0.00    -0.344 N 
ATOM     17  H   UNL     1       2.460  -0.274   1.380  0.00  0.00    +0.143 HD
ATOM     18  H   UNL     1       2.285  -1.638   2.346  0.00  0.00    +0.143 HD
BRANCH  15  19
ATOM     19  O   UNL     1       0.426  -3.034   2.656  0.00  0.00    -0.408 OA
ATOM     20  H   UNL     1      -0.193  -3.725   2.930  0.00  0.00    +0.328 HD
ENDBRANCH  15  19
ENDBRANCH  13  14
ENDBRANCH   1  13
TORSDOF 5
