REMARK  Name = ZINC64871202
REMARK  5 active torsions:
REMARK  status: ('A' for Active; 'I' for Inactive)
REMARK    1  A    between atoms: C_3  and  C_11
REMARK    2  A    between atoms: C_5  and  C_7
REMARK    3  A    between atoms: C_14  and  C_18
REMARK    4  A    between atoms: N_28  and  C_31
REMARK    5  A    between atoms: C_31  and  C_32
REMARK                            x       y       z     vdW  Elec       q    Type
REMARK                         _______ _______ _______ _____ _____    ______ ____
ROOT
ATOM      1  C   UNL     1       4.566   4.558  -2.663  0.00  0.00    -0.000 A 
ATOM      2  C   UNL     1       3.365   4.529  -3.355  0.00  0.00    +0.008 A 
ATOM      3  C   UNL     1       3.165   5.355  -4.441  0.00  0.00    +0.016 A 
ATOM      4  C   UNL     1       4.180   6.222  -4.840  0.00  0.00    +0.063 A 
ATOM      5  C   UNL     1       5.398   6.250  -4.138  0.00  0.00    +0.056 A 
ATOM      6  C   UNL     1       5.578   5.416  -3.045  0.00  0.00    +0.034 A 
ATOM      7  N   UNL     1       6.390   7.124  -4.557  0.00  0.00    -0.307 N 
ATOM      8  H   UNL     1       7.236   7.154  -4.082  0.00  0.00    +0.170 HD
ATOM      9  C   UNL     1       6.192   7.928  -5.616  0.00  0.00    +0.330 A 
ATOM     10  O   UNL     1       7.088   8.679  -5.952  0.00  0.00    -0.246 OA
ATOM     11  N   UNL     1       5.048   7.938  -6.318  0.00  0.00    -0.256 N 
ATOM     12  C   UNL     1       4.019   7.126  -5.993  0.00  0.00    +0.265 A 
ATOM     13  O   UNL     1       2.986   7.141  -6.634  0.00  0.00    -0.267 OA
ENDROOT
BRANCH   1  16
ATOM     14  C   UNL     1       5.168   3.614   0.825  0.00  0.00    +0.180 C 
ATOM     15  N   UNL     1       5.542   4.337  -0.414  0.00  0.00    -0.265 NA
ATOM     16  C   UNL     1       4.767   3.648  -1.479  0.00  0.00    +0.242 C 
ATOM     17  O   UNL     1       3.505   3.355  -0.837  0.00  0.00    -0.274 OA
ATOM     18  N   UNL     1       3.861   2.981   0.545  0.00  0.00    -0.177 NA
ATOM     19  H   UNL     1       5.287   5.311  -0.355  0.00  0.00    +0.127 HD
ATOM     20  H   UNL     1       3.159   3.296   1.198  0.00  0.00    +0.156 HD
BRANCH  14  23
ATOM     21  C   UNL     1       5.707   6.609   3.060  0.00  0.00    +0.001 A 
ATOM     22  C   UNL     1       5.824   5.721   2.007  0.00  0.00    +0.006 A 
ATOM     23  C   UNL     1       5.040   4.582   1.973  0.00  0.00    -0.014 A 
ATOM     24  C   UNL     1       4.140   4.332   2.992  0.00  0.00    +0.019 A 
ATOM     25  C   UNL     1       4.023   5.220   4.045  0.00  0.00    +0.055 A 
ATOM     26  C   UNL     1       4.806   6.359   4.078  0.00  0.00    +0.012 A 
BRANCH  25  27
ATOM     27  C   UNL     1       3.041   4.947   5.155  0.00  0.00    +0.417 C 
ATOM     28  F   UNL     1       3.667   4.202   6.159  0.00  0.00    -0.166 F 
ATOM     29  F   UNL     1       2.591   6.160   5.687  0.00  0.00    -0.166 F 
ATOM     30  F   UNL     1       1.954   4.228   4.649  0.00  0.00    -0.166 F 
ENDBRANCH  25  27
ENDBRANCH  14  23
ENDBRANCH   1  16
BRANCH  11  31
ATOM     31  C   UNL     1       4.914   8.847  -7.460  0.00  0.00    +0.165 C 
BRANCH  31  32
ATOM     32  C   UNL     1       5.388   8.154  -8.711  0.00  0.00    -0.027 A 
ATOM     33  C   UNL     1       6.715   8.239  -9.088  0.00  0.00    +0.007 A 
ATOM     34  C   UNL     1       7.150   7.604 -10.236  0.00  0.00    +0.020 A 
ATOM     35  C   UNL     1       6.257   6.883 -11.008  0.00  0.00    +0.041 A 
ATOM     36  C   UNL     1       4.929   6.798 -10.630  0.00  0.00    +0.020 A 
ATOM     37  C   UNL     1       4.496   7.428  -9.479  0.00  0.00    +0.007 A 
ATOM     38 CL   UNL     1       6.803   6.086 -12.450  0.00  0.00    -0.084 Cl
ENDBRANCH  31  32
ENDBRANCH  11  31
TORSDOF 5
