REMARK  Name = ZINC15002481
REMARK  11 active torsions:
REMARK  status: ('A' for Active; 'I' for Inactive)
REMARK    1  A    between atoms: C_1  and  C_2
REMARK    2  A    between atoms: C_2  and  C_3
REMARK    3  A    between atoms: C_2  and  C_4
REMARK    4  A    between atoms: C_4  and  C_5
REMARK    5  A    between atoms: C_5  and  N_6
REMARK    6  A    between atoms: C_17  and  N_61
REMARK    7  A    between atoms: C_21  and  C_22
REMARK    8  A    between atoms: C_21  and  N_61
REMARK    9  A    between atoms: C_22  and  C_23
REMARK   10  A    between atoms: C_26  and  S_29
REMARK   11  A    between atoms: S_29  and  N_32
REMARK                            x       y       z     vdW  Elec       q    Type
REMARK                         _______ _______ _______ _____ _____    ______ ____
ROOT
ATOM      1  N   UNL     1      -0.949   3.663   0.030  0.00  0.00    -0.299 N 
ATOM      2  C   UNL     1       0.304   4.186   0.021  0.00  0.00    +0.203 A 
ATOM      3  N   UNL     1       1.358   3.414   0.007  0.00  0.00    -0.230 NA
ATOM      4  C   UNL     1       1.236   2.090   0.002  0.00  0.00    +0.116 A 
ATOM      5  C   UNL     1      -0.018   1.458   0.010  0.00  0.00    +0.076 A 
ATOM      6  C   UNL     1      -1.153   2.333   0.031  0.00  0.00    +0.262 A 
ATOM      7  O   UNL     1      -2.285   1.879   0.045  0.00  0.00    -0.267 OA
ATOM      8  C   UNL     1       0.002  -0.004   0.002  0.00  0.00    -0.023 A 
ATOM      9  C   UNL     1       1.213  -0.600  -0.013  0.00  0.00    -0.006 A 
ATOM     10  S   UNL     1       2.381   0.734  -0.017  0.00  0.00    -0.073 S 
ATOM     11  C   UNL     1       1.501  -2.070  -0.024  0.00  0.00    +0.027 C 
ATOM     12  C   UNL     1       0.209  -2.814  -0.391  0.00  0.00    -0.067 C 
ATOM     13  C   UNL     1      -0.936  -2.259   0.461  0.00  0.00    -0.011 C 
ATOM     14  C   UNL     1      -1.276  -0.838   0.011  0.00  0.00    +0.035 C 
ENDROOT
BRANCH  12  15
ATOM     15  N   UNL     1       0.370  -4.253  -0.112  0.00  0.00    +0.381 N 
ATOM     16  H   UNL     1      -0.553  -4.671   0.054  0.00  0.00    -0.086 HD
ATOM     17  H   UNL     1       0.956  -4.373   0.723  0.00  0.00    -0.086 HD
BRANCH  15  18
ATOM     18  C   UNL     1       1.011  -4.928  -1.257  0.00  0.00    -0.078 C 
BRANCH  18  19
ATOM     19  C   UNL     1       1.165  -6.417  -0.939  0.00  0.00    +0.016 C 
BRANCH  19  20
ATOM     20  C   UNL     1       1.819  -7.114  -2.104  0.00  0.00    -0.049 A 
ATOM     21  C   UNL     1       1.042  -7.652  -3.113  0.00  0.00    +0.005 A 
ATOM     22  C   UNL     1       1.642  -8.288  -4.183  0.00  0.00    +0.029 A 
ATOM     23  C   UNL     1       3.019  -8.394  -4.240  0.00  0.00    +0.105 A 
ATOM     24  C   UNL     1       3.796  -7.861  -3.229  0.00  0.00    +0.029 A 
ATOM     25  C   UNL     1       3.196  -7.221  -2.160  0.00  0.00    +0.005 A 
BRANCH  23  26
ATOM     26  S   UNL     1       3.784  -9.208  -5.603  0.00  0.00    +0.056 S 
ATOM     27  O   UNL     1       2.866  -9.140  -6.685  0.00  0.00    -0.153 OA
ATOM     28  O   UNL     1       5.106  -8.695  -5.692  0.00  0.00    -0.153 OA
BRANCH  26  29
ATOM     29  N   UNL     1       3.924 -10.809  -5.201  0.00  0.00    -0.204 NA
ATOM     30  H   UNL     1       3.605 -11.122  -4.340  0.00  0.00    +0.144 HD
ATOM     31  H   UNL     1       4.325 -11.433  -5.826  0.00  0.00    +0.144 HD
ENDBRANCH  26  29
ENDBRANCH  23  26
ENDBRANCH  19  20
ENDBRANCH  18  19
ENDBRANCH  15  18
ENDBRANCH  12  15
BRANCH   1  32
ATOM     32  C   UNL     1      -2.103   4.566   0.045  0.00  0.00    +0.126 C 
BRANCH  32  33
ATOM     33  C   UNL     1      -2.518   4.887  -1.392  0.00  0.00    +0.024 C 
BRANCH  33  35
ATOM     34  C   UNL     1      -3.313   7.171  -0.764  0.00  0.00    +0.007 C 
ATOM     35  C   UNL     1      -3.723   5.830  -1.377  0.00  0.00    -0.016 C 
ATOM     36  C   UNL     1      -4.215   6.052  -2.808  0.00  0.00    +0.007 C 
ENDBRANCH  33  35
ENDBRANCH  32  33
ENDBRANCH   1  32
TORSDOF 9
