REMARK  Name = ZINC13064775
REMARK  14 active torsions:
REMARK  status: ('A' for Active; 'I' for Inactive)
REMARK    1  A    between atoms: C_1  and  C_2
REMARK    2  A    between atoms: C_2  and  C_3
REMARK    3  A    between atoms: C_3  and  C_5
REMARK    4  A    between atoms: C_3  and  N_65
REMARK    5  A    between atoms: N_9  and  C_10
REMARK    6  A    between atoms: C_10  and  C_11
REMARK    7  A    between atoms: C_10  and  C_12
REMARK    8  A    between atoms: C_10  and  C_13
REMARK    9  A    between atoms: C_14  and  C_15
REMARK   10  A    between atoms: C_14  and  N_65
REMARK   11  A    between atoms: C_20  and  C_21
REMARK   12  A    between atoms: C_20  and  N_65
REMARK   13  A    between atoms: C_24  and  C_34
REMARK   14  A    between atoms: C_26  and  C_33
REMARK                            x       y       z     vdW  Elec       q    Type
REMARK                         _______ _______ _______ _____ _____    ______ ____
ROOT
ATOM      1  N   UNL     1      -1.898  -2.211  -0.618  0.00  0.00    +0.394 N 
ATOM      2  H   UNL     1      -1.722  -2.176  -1.629  0.00  0.00    -0.080 HD
ENDROOT
BRANCH   1   3
ATOM      3  C   UNL     1      -1.888  -0.834  -0.081  0.00  0.00    +0.003 C 
BRANCH   3   4
ATOM      4  C   UNL     1      -0.663  -0.122  -0.596  0.00  0.00    +0.139 A 
ATOM      5  N   UNL     1       0.537  -0.629  -0.733  0.00  0.00    -0.115 NA
ATOM      6  N   UNL     1       1.307   0.291  -1.202  0.00  0.00    -0.023 NA
ATOM      7  N   UNL     1       0.629   1.373  -1.368  0.00  0.00    -0.043 NA
ATOM      8  N   UNL     1      -0.591   1.158  -1.005  0.00  0.00    -0.226 N 
BRANCH   8   9
ATOM      9  C   UNL     1      -1.691   2.125  -1.039  0.00  0.00    +0.059 C 
ATOM     10  C   UNL     1      -3.023   1.388  -0.882  0.00  0.00    +0.036 C 
ATOM     11  C   UNL     1      -1.525   3.127   0.105  0.00  0.00    +0.036 C 
ATOM     12  C   UNL     1      -1.675   2.870  -2.375  0.00  0.00    +0.036 C 
ENDBRANCH   8   9
ENDBRANCH   3   4
BRANCH   3  14
ATOM     13  C   UNL     1      -1.897   0.579   1.980  0.00  0.00    +0.002 C 
ATOM     14  C   UNL     1      -1.859  -0.855   1.449  0.00  0.00    -0.011 C 
ENDBRANCH   3  14
ENDBRANCH   1   3
BRANCH   1  15
ATOM     15  C   UNL     1      -0.838  -3.013   0.028  0.00  0.00    -0.002 C 
BRANCH  15  16
ATOM     16  C   UNL     1      -0.626  -4.270  -0.775  0.00  0.00    +0.089 A 
ATOM     17  C   UNL     1       0.286  -4.437  -1.750  0.00  0.00    +0.042 A 
ATOM     18  C   UNL     1       0.137  -5.759  -2.229  0.00  0.00    +0.041 A 
ATOM     19  C   UNL     1      -0.857  -6.321  -1.518  0.00  0.00    +0.195 A 
ATOM     20  O   UNL     1      -1.311  -5.417  -0.635  0.00  0.00    -0.470 OA
ENDBRANCH  15  16
ENDBRANCH   1  15
BRANCH   1  21
ATOM     21  C   UNL     1      -3.217  -2.835  -0.382  0.00  0.00    -0.036 C 
BRANCH  21  22
ATOM     22  C   UNL     1      -4.192  -2.303  -1.401  0.00  0.00    +0.001 A 
ATOM     23  C   UNL     1      -4.393  -2.978  -2.560  0.00  0.00    +0.017 A 
ATOM     24  C   UNL     1      -5.346  -2.435  -3.529  0.00  0.00    +0.002 A 
ATOM     25  C   UNL     1      -5.596  -3.087  -4.742  0.00  0.00    -0.041 A 
ATOM     26  C   UNL     1      -6.492  -2.554  -5.625  0.00  0.00    +0.007 A 
ATOM     27  C   UNL     1      -7.157  -1.371  -5.330  0.00  0.00    -0.048 A 
ATOM     28  C   UNL     1      -6.926  -0.712  -4.142  0.00  0.00    +0.029 A 
ATOM     29  C   UNL     1      -6.018  -1.235  -3.227  0.00  0.00    +0.050 A 
ATOM     30  N   UNL     1      -5.769  -0.598  -2.031  0.00  0.00    -0.322 N 
ATOM     31  H   UNL     1      -6.233   0.229  -1.824  0.00  0.00    +0.169 HD
ATOM     32  C   UNL     1      -4.896  -1.107  -1.144  0.00  0.00    +0.251 A 
ATOM     33  O   UNL     1      -4.703  -0.518  -0.094  0.00  0.00    -0.268 OA
ATOM     34  C   UNL     1      -8.141  -0.802  -6.319  0.00  0.00    +0.044 C 
ATOM     35  C   UNL     1      -4.880  -4.371  -5.072  0.00  0.00    +0.044 C 
ENDBRANCH  21  22
ENDBRANCH   1  21
TORSDOF 8
