REMARK  Name = ZINC00903456
REMARK  11 active torsions:
REMARK  status: ('A' for Active; 'I' for Inactive)
REMARK    1  A    between atoms: C_1  and  C_2
REMARK    2  A    between atoms: C_2  and  C_3
REMARK    3  A    between atoms: C_3  and  C_5
REMARK    4  A    between atoms: C_3  and  N_13
REMARK    5  A    between atoms: N_7  and  C_8
REMARK    6  A    between atoms: N_13  and  C_14
REMARK    7  A    between atoms: C_14  and  C_15
REMARK    8  A    between atoms: C_20  and  C_22
REMARK    9  A    between atoms: C_22  and  N_23
REMARK   10  A    between atoms: C_25  and  C_28
REMARK   11  A    between atoms: C_31  and  C_34
REMARK                            x       y       z     vdW  Elec       q    Type
REMARK                         _______ _______ _______ _____ _____    ______ ____
ROOT
ATOM      1  N   UNL     1      -0.797   1.301   1.087  0.00  0.00    -0.284 N 
ATOM      2  C   UNL     1      -1.530   0.254   1.515  0.00  0.00    +0.240 C 
ATOM      3  O   UNL     1      -2.294   0.389   2.447  0.00  0.00    -0.273 OA
ENDROOT
BRANCH   1   4
ATOM      4  C   UNL     1      -0.924   2.602   1.747  0.00  0.00    +0.162 C 
BRANCH   4   5
ATOM      5  C   UNL     1       0.423   3.034   2.268  0.00  0.00    +0.234 C 
ATOM      6  O   UNL     1       1.393   2.325   2.104  0.00  0.00    -0.274 OA
ATOM      7  N   UNL     1       0.549   4.209   2.917  0.00  0.00    -0.311 N 
ATOM      8  H   UNL     1      -0.227   4.777   3.048  0.00  0.00    +0.149 HD
BRANCH   7   9
ATOM      9  C   UNL     1       1.858   4.629   3.423  0.00  0.00    +0.073 C 
ATOM     10  C   UNL     1       2.079   4.070   4.844  0.00  0.00    +0.022 C 
ATOM     11  C   UNL     1       2.834   5.202   5.584  0.00  0.00    +0.002 C 
ATOM     12  C   UNL     1       2.161   6.482   5.029  0.00  0.00    +0.002 C 
ATOM     13  C   UNL     1       1.910   6.163   3.541  0.00  0.00    +0.022 C 
ENDBRANCH   7   9
ENDBRANCH   4   5
BRANCH   4  15
ATOM     14  C   UNL     1      -2.849   3.252   0.294  0.00  0.00    +0.006 C 
ATOM     15  C   UNL     1      -1.438   3.636   0.743  0.00  0.00    +0.028 C 
ENDBRANCH   4  15
ENDBRANCH   1   4
BRANCH   1  16
ATOM     16  C   UNL     1       0.126   1.137  -0.039  0.00  0.00    +0.151 C 
BRANCH  16  17
ATOM     17  C   UNL     1      -0.624   1.314  -1.334  0.00  0.00    +0.007 A 
ATOM     18  C   UNL     1      -0.744   2.421  -2.107  0.00  0.00    +0.013 A 
ATOM     19  C   UNL     1      -1.491   2.350  -3.268  0.00  0.00    +0.008 A 
ATOM     20  C   UNL     1      -2.082   1.176  -3.599  0.00  0.00    +0.045 A 
ATOM     21  S   UNL     1      -1.580   0.117  -2.252  0.00  0.00    -0.100 S 
ENDBRANCH  16  17
ENDBRANCH   1  16
BRANCH   2  22
ATOM     22  C   UNL     1      -1.399  -1.085   0.836  0.00  0.00    +0.264 C 
BRANCH  22  23
ATOM     23  N   UNL     1      -2.293  -2.050   1.482  0.00  0.00    -0.154 N 
ATOM     24  N   UNL     1      -1.978  -2.808   2.475  0.00  0.00    -0.130 NA
ATOM     25  C   UNL     1      -3.037  -3.533   2.780  0.00  0.00    +0.205 A 
ATOM     26  N   UNL     1      -4.003  -3.183   1.920  0.00  0.00    -0.108 NA
ATOM     27  N   UNL     1      -3.514  -2.276   1.143  0.00  0.00    -0.045 NA
BRANCH  25  28
ATOM     28  C   UNL     1      -3.137  -4.544   3.863  0.00  0.00    +0.023 A 
ATOM     29  C   UNL     1      -2.038  -4.805   4.679  0.00  0.00    +0.012 A 
ATOM     30  C   UNL     1      -2.139  -5.743   5.687  0.00  0.00    +0.004 A 
ATOM     31  C   UNL     1      -3.323  -6.430   5.881  0.00  0.00    -0.050 A 
ATOM     32  C   UNL     1      -4.415  -6.178   5.070  0.00  0.00    +0.004 A 
ATOM     33  C   UNL     1      -4.327  -5.239   4.062  0.00  0.00    +0.012 A 
ATOM     34  C   UNL     1      -3.425  -7.457   6.979  0.00  0.00    +0.044 C 
ENDBRANCH  25  28
ENDBRANCH  22  23
ENDBRANCH   2  22
TORSDOF 9
