REMARK  Name = ZINC06060165
REMARK  9 active torsions:
REMARK  status: ('A' for Active; 'I' for Inactive)
REMARK    1  A    between atoms: C_1  and  C_2
REMARK    2  A    between atoms: C_3  and  N_15
REMARK    3  A    between atoms: N_6  and  C_9
REMARK    4  A    between atoms: N_7  and  C_8
REMARK    5  A    between atoms: C_16  and  C_18
REMARK    6  A    between atoms: C_18  and  O_19
REMARK    7  A    between atoms: O_19  and  C_20
REMARK    8  A    between atoms: C_20  and  C_22
REMARK    9  A    between atoms: C_27  and  N_28
REMARK                            x       y       z     vdW  Elec       q    Type
REMARK                         _______ _______ _______ _____ _____    ______ ____
ROOT
ATOM      1  N   UNL     1       2.172   2.056  -3.619  0.00  0.00    -0.277 N 
ATOM      2  C   UNL     1       1.180   1.560  -2.853  0.00  0.00    +0.255 C 
ATOM      3  O   UNL     1       1.288   0.457  -2.361  0.00  0.00    -0.272 OA
ATOM      4  H   UNL     1       2.057   2.907  -4.071  0.00  0.00    +0.155 HD
ENDROOT
BRANCH   1   7
ATOM      5  C   UNL     1       4.965   3.207  -3.079  0.00  0.00    +0.067 C 
ATOM      6  C   UNL     1       4.623   1.812  -3.534  0.00  0.00    +0.059 A 
ATOM      7  C   UNL     1       3.377   1.340  -3.762  0.00  0.00    +0.121 A 
ATOM      8  C   UNL     1       3.513  -0.052  -4.192  0.00  0.00    +0.293 A 
ATOM      9  O   UNL     1       2.608  -0.810  -4.492  0.00  0.00    -0.264 OA
ATOM     10  N   UNL     1       4.832  -0.337  -4.191  0.00  0.00    -0.216 N 
ATOM     11  N   UNL     1       5.523   0.810  -3.783  0.00  0.00    -0.282 N 
ATOM     12  C   UNL     1       6.978   0.922  -3.648  0.00  0.00    +0.171 C 
BRANCH  10  13
ATOM     13  C   UNL     1       5.408  -1.563  -4.539  0.00  0.00    +0.067 A 
ATOM     14  C   UNL     1       6.480  -1.603  -5.421  0.00  0.00    +0.028 A 
ATOM     15  C   UNL     1       7.051  -2.814  -5.758  0.00  0.00    +0.002 A 
ATOM     16  C   UNL     1       6.548  -3.988  -5.227  0.00  0.00    +0.000 A 
ATOM     17  C   UNL     1       5.476  -3.952  -4.353  0.00  0.00    +0.002 A 
ATOM     18  C   UNL     1       4.905  -2.743  -4.007  0.00  0.00    +0.028 A 
ENDBRANCH  10  13
ENDBRANCH   1   7
BRANCH   2  19
ATOM     19  C   UNL     1      -0.066   2.374  -2.614  0.00  0.00    +0.328 C 
BRANCH  19  20
ATOM     20  O   UNL     1      -0.979   1.624  -1.770  0.00  0.00    -0.452 OA
BRANCH  20  21
ATOM     21  C   UNL     1      -2.150   2.215  -1.460  0.00  0.00    +0.341 C 
ATOM     22  O   UNL     1      -2.400   3.327  -1.882  0.00  0.00    -0.245 OA
BRANCH  21  23
ATOM     23  C   UNL     1      -3.125   1.514  -0.608  0.00  0.00    +0.080 A 
ATOM     24  C   UNL     1      -2.792   0.291  -0.017  0.00  0.00    +0.018 A 
ATOM     25  C   UNL     1      -3.708  -0.360   0.778  0.00  0.00    +0.021 A 
ATOM     26  C   UNL     1      -4.962   0.191   0.998  0.00  0.00    +0.043 A 
ATOM     27  C   UNL     1      -5.306   1.398   0.421  0.00  0.00    +0.043 A 
ATOM     28  C   UNL     1      -4.393   2.072  -0.380  0.00  0.00    +0.040 A 
ATOM     29 CL   UNL     1      -6.107  -0.642   2.002  0.00  0.00    -0.083 Cl
BRANCH  28  30
ATOM     30  N   UNL     1      -4.734   3.288  -0.956  0.00  0.00    -0.357 N 
ATOM     31  H   UNL     1      -4.229   3.626  -1.711  0.00  0.00    +0.142 HD
ATOM     32  H   UNL     1      -5.478   3.801  -0.602  0.00  0.00    +0.142 HD
ENDBRANCH  28  30
ENDBRANCH  21  23
ENDBRANCH  20  21
ENDBRANCH  19  20
ENDBRANCH   2  19
TORSDOF 7
