REMARK  Name = ZINC42414750
REMARK  1 active torsions:
REMARK  status: ('A' for Active; 'I' for Inactive)
REMARK    1  A    between atoms: C_8  and  C_11
REMARK                            x       y       z     vdW  Elec       q    Type
REMARK                         _______ _______ _______ _____ _____    ______ ____
ROOT
ATOM      1  C   UNL     1      -0.017   1.378   0.010  0.00  0.00    +0.000 A 
ATOM      2  C   UNL     1       1.174   2.082   0.002  0.00  0.00    +0.002 A 
ATOM      3  C   UNL     1       2.377   1.411  -0.013  0.00  0.00    +0.023 A 
ATOM      4  C   UNL     1       2.405   0.014  -0.021  0.00  0.00    +0.031 A 
ATOM      5  C   UNL     1       1.206  -0.682  -0.013  0.00  0.00    -0.024 A 
ATOM      6  C   UNL     1       0.002  -0.004   0.002  0.00  0.00    +0.005 A 
ATOM      7  C   UNL     1       1.510  -2.163  -0.023  0.00  0.00    +0.068 C 
ATOM      8  C   UNL     1       3.046  -2.241  -0.038  0.00  0.00    +0.161 C 
ATOM      9  N   UNL     1       3.501  -0.849  -0.036  0.00  0.00    -0.332 N 
ATOM     10  H   UNL     1       4.430  -0.568  -0.044  0.00  0.00    +0.147 HD
ENDROOT
BRANCH   8  11
ATOM     11  C   UNL     1       3.521  -2.947  -1.282  0.00  0.00    +0.239 C 
ATOM     12  O   UNL     1       3.927  -2.303  -2.227  0.00  0.00    -0.273 OA
ATOM     13  N   UNL     1       3.495  -4.293  -1.345  0.00  0.00    -0.267 N 
ATOM     14  C   UNL     1       3.938  -4.949  -2.502  0.00  0.00    +0.147 A 
ATOM     15  C   UNL     1       4.435  -4.332  -3.661  0.00  0.00    +0.064 A 
ATOM     16  C   UNL     1       4.752  -5.305  -4.545  0.00  0.00    +0.107 A 
ATOM     17  N   UNL     1       4.469  -6.494  -3.972  0.00  0.00    -0.283 N 
ATOM     18  H   UNL     1       4.596  -7.366  -4.377  0.00  0.00    +0.188 HD
ATOM     19  N   UNL     1       3.964  -6.248  -2.689  0.00  0.00    -0.159 NA
ATOM     20  H   UNL     1       3.171  -4.808  -0.590  0.00  0.00    +0.156 HD
ENDBRANCH   8  11
TORSDOF 1
