REMARK  Name = ZINC36830043
REMARK  7 active torsions:
REMARK  status: ('A' for Active; 'I' for Inactive)
REMARK    1  A    between atoms: C_1  and  C_2
REMARK    2  A    between atoms: C_2  and  N_3
REMARK    3  A    between atoms: N_3  and  C_4
REMARK    4  A    between atoms: C_4  and  C_6
REMARK    5  A    between atoms: C_4  and  C_14
REMARK    6  A    between atoms: C_11  and  C_12
REMARK    7  A    between atoms: C_17  and  C_19
REMARK                            x       y       z     vdW  Elec       q    Type
REMARK                         _______ _______ _______ _____ _____    ______ ____
ROOT
ATOM      1  C   UNL     1       0.733  -1.960   1.184  0.00  0.00    -0.003 C 
ENDROOT
BRANCH   1   2
ATOM      2  C   UNL     1       1.352  -2.461   2.463  0.00  0.00    -0.054 A 
ATOM      3  C   UNL     1       2.148  -1.621   3.220  0.00  0.00    +0.003 A 
ATOM      4  C   UNL     1       2.716  -2.080   4.394  0.00  0.00    +0.015 A 
ATOM      5  C   UNL     1       2.488  -3.380   4.811  0.00  0.00    +0.018 A 
ATOM      6  C   UNL     1       1.691  -4.219   4.053  0.00  0.00    +0.018 A 
ATOM      7  C   UNL     1       1.119  -3.757   2.882  0.00  0.00    -0.047 A 
ATOM      8  C   UNL     1       0.246  -4.669   2.059  0.00  0.00    +0.044 C 
ATOM      9 BR   UNL     1       3.265  -4.008   6.416  0.00  0.00    -0.050 Br
ENDBRANCH   1   2
BRANCH   1  10
ATOM     10  C   UNL     1       1.543  -2.445   0.010  0.00  0.00    -0.020 A 
ATOM     11  C   UNL     1       1.299  -3.485  -0.824  0.00  0.00    +0.010 A 
ATOM     12  C   UNL     1       2.192  -3.748  -1.847  0.00  0.00    +0.011 A 
ATOM     13  C   UNL     1       3.284  -2.957  -1.985  0.00  0.00    -0.013 A 
ATOM     14  S   UNL     1       3.069  -1.793  -0.649  0.00  0.00    -0.100 S 
ATOM     15  C   UNL     1       4.390  -3.036  -3.006  0.00  0.00    +0.051 C 
ENDBRANCH   1  10
BRANCH   1  16
ATOM     16  N   UNL     1       0.713  -0.491   1.192  0.00  0.00    +0.386 N 
ATOM     17  H   UNL     1       1.659  -0.141   1.185  0.00  0.00    -0.085 HD
ATOM     18  H   UNL     1       0.240  -0.165   2.022  0.00  0.00    -0.085 HD
BRANCH  16  20
ATOM     19  C   UNL     1      -0.019   1.526   0.010  0.00  0.00    -0.017 C 
ATOM     20  C   UNL     1       0.002  -0.004   0.002  0.00  0.00    -0.085 C 
ENDBRANCH  16  20
ENDBRANCH   1  16
TORSDOF 4
