REMARK  Name = ZINC19924855
REMARK  5 active torsions:
REMARK  status: ('A' for Active; 'I' for Inactive)
REMARK    1  A    between atoms: C_1  and  C_2
REMARK    2  A    between atoms: C_3  and  C_20
REMARK    3  A    between atoms: C_4  and  C_14
REMARK    4  A    between atoms: C_20  and  O_22
REMARK    5  A    between atoms: O_22  and  C_23
REMARK                            x       y       z     vdW  Elec       q    Type
REMARK                         _______ _______ _______ _____ _____    ______ ____
ROOT
ATOM      1  C   UNL     1       4.587   2.885   3.769  0.00  0.00    +0.061 C 
ATOM      2  C   UNL     1       3.706   1.916   3.024  0.00  0.00    +0.016 C 
ATOM      3  C   UNL     1       3.440   0.711   3.556  0.00  0.00    +0.065 C 
ATOM      4  C   UNL     1       2.572  -0.282   2.840  0.00  0.00    +0.095 C 
ATOM      5  C   UNL     1       1.754   0.390   1.767  0.00  0.00    +0.024 C 
ATOM      6  C   UNL     1       2.095   1.611   1.302  0.00  0.00    +0.015 C 
ATOM      7  N   UNL     1       3.183   2.268   1.811  0.00  0.00    -0.321 N 
ATOM      8  C   UNL     1       1.295   2.279   0.212  0.00  0.00    +0.051 C 
ATOM      9  C   UNL     1      -0.170   1.848   0.314  0.00  0.00    +0.014 C 
ATOM     10  C   UNL     1      -0.238   0.322   0.198  0.00  0.00    +0.080 C 
ATOM     11  C   UNL     1       0.630  -0.289   1.263  0.00  0.00    +0.162 C 
ATOM     12  O   UNL     1       0.356  -1.391   1.697  0.00  0.00    -0.292 OA
ATOM     13  H   UNL     1       3.636   3.088   1.234  0.00  0.00    +0.152 HD
ENDROOT
BRANCH   4  14
ATOM     14  C   UNL     1       3.445  -1.337   2.208  0.00  0.00    +0.002 A 
ATOM     15  C   UNL     1       3.427  -2.659   2.493  0.00  0.00    +0.109 A 
ATOM     16  N   UNL     1       4.353  -3.260   1.715  0.00  0.00    -0.284 N 
ATOM     17  H   UNL     1       4.503  -4.348   1.779  0.00  0.00    +0.188 HD
ATOM     18  N   UNL     1       4.965  -2.272   0.933  0.00  0.00    -0.182 NA
ATOM     19  C   UNL     1       4.420  -1.120   1.229  0.00  0.00    +0.138 A 
ENDBRANCH   4  14
BRANCH   3  20
ATOM     20  C   UNL     1       3.988   0.372   4.815  0.00  0.00    +0.337 C 
ATOM     21  O   UNL     1       3.278   0.355   5.803  0.00  0.00    -0.245 OA
BRANCH  20  22
ATOM     22  O   UNL     1       5.299   0.067   4.920  0.00  0.00    -0.465 OA
ATOM     23  C   UNL     1       5.785  -0.266   6.222  0.00  0.00    +0.280 C 
ENDBRANCH  20  22
ENDBRANCH   3  20
TORSDOF 3
