REMARK  Name = ZINC41161224
REMARK  2 active torsions:
REMARK  status: ('A' for Active; 'I' for Inactive)
REMARK    1  A    between atoms: C_3  and  C_9
REMARK    2  A    between atoms: C_13  and  C_15
REMARK                            x       y       z     vdW  Elec       q    Type
REMARK                         _______ _______ _______ _____ _____    ______ ____
ROOT
ATOM      1  C   UNL     1       3.656   2.165  -0.022  0.00  0.00    +0.157 A 
ATOM      2  N   UNL     1       3.784   3.512  -0.010  0.00  0.00    -0.259 N 
ATOM      3  H   UNL     1       3.067   4.164   0.005  0.00  0.00    +0.191 HD
ATOM      4  N   UNL     1       5.163   3.776  -0.024  0.00  0.00    -0.157 NA
ATOM      5  C   UNL     1       5.774   2.619  -0.043  0.00  0.00    +0.154 A 
ATOM      6  N   UNL     1       4.868   1.646  -0.036  0.00  0.00    -0.211 NA
ENDROOT
BRANCH   1   9
ATOM      7  C   UNL     1      -0.017   1.382   0.010  0.00  0.00    +0.039 A 
ATOM      8  C   UNL     1       1.167   2.090   0.002  0.00  0.00    +0.015 A 
ATOM      9  C   UNL     1       2.384   1.410  -0.013  0.00  0.00    +0.033 A 
ATOM     10  C   UNL     1       2.398   0.014  -0.021  0.00  0.00    +0.031 A 
ATOM     11  C   UNL     1       1.209  -0.686  -0.013  0.00  0.00    +0.054 A 
ATOM     12  C   UNL     1       0.002  -0.004   0.002  0.00  0.00    +0.124 A 
ATOM     13  F   UNL     1      -1.160  -0.693   0.009  0.00  0.00    -0.205 F 
ATOM     14 BR   UNL     1       4.044  -0.917  -0.042  0.00  0.00    -0.049 Br
ENDBRANCH   1   9
BRANCH   5  15
ATOM     15  C   UNL     1       7.268   2.421  -0.063  0.00  0.00    +0.059 C 
ATOM     16  C   UNL     1       7.910   3.119   1.154  0.00  0.00    +0.011 C 
ATOM     17  C   UNL     1       9.244   3.685   0.608  0.00  0.00    +0.001 C 
ATOM     18  C   UNL     1       8.857   4.156  -0.816  0.00  0.00    +0.001 C 
ATOM     19  C   UNL     1       7.870   3.081  -1.316  0.00  0.00    +0.011 C 
ENDBRANCH   5  15
TORSDOF 2
