REMARK  Name = ZINC09281408
REMARK  10 active torsions:
REMARK  status: ('A' for Active; 'I' for Inactive)
REMARK    1  A    between atoms: C_1  and  C_2
REMARK    2  A    between atoms: C_2  and  C_3
REMARK    3  A    between atoms: C_2  and  C_4
REMARK    4  A    between atoms: C_2  and  C_5
REMARK    5  A    between atoms: C_12  and  N_25
REMARK    6  A    between atoms: C_13  and  C_14
REMARK    7  A    between atoms: N_16  and  C_17
REMARK    8  A    between atoms: C_26  and  C_28
REMARK    9  A    between atoms: C_32  and  O_34
REMARK   10  A    between atoms: O_34  and  C_35
REMARK                            x       y       z     vdW  Elec       q    Type
REMARK                         _______ _______ _______ _____ _____    ______ ____
ROOT
ATOM      1  C   UNL     1      -9.254   2.780   9.288  0.00  0.00    -0.000 C 
ATOM      2  C   UNL     1     -10.345   2.750   8.214  0.00  0.00    +0.009 C 
ATOM      3  C   UNL     1     -10.019   1.681   7.170  0.00  0.00    +0.037 C 
ATOM      4  C   UNL     1      -8.598   1.905   6.666  0.00  0.00    -0.023 A 
ATOM      5  C   UNL     1      -7.721   2.655   7.368  0.00  0.00    -0.004 A 
ATOM      6  S   UNL     1      -6.232   2.625   6.411  0.00  0.00    -0.077 S 
ATOM      7  C   UNL     1      -6.768   1.637   5.092  0.00  0.00    +0.085 A 
ATOM      8  C   UNL     1      -8.083   1.348   5.427  0.00  0.00    +0.069 A 
ATOM      9  C   UNL     1      -7.968   3.350   8.671  0.00  0.00    +0.046 C 
ENDROOT
BRANCH   1  11
ATOM     10  C   UNL     1     -10.992   3.106  11.052  0.00  0.00    +0.011 C 
ATOM     11  C   UNL     1      -9.702   3.667  10.451  0.00  0.00    -0.035 C 
ATOM     12  C   UNL     1      -8.610   3.695  11.522  0.00  0.00    +0.011 C 
ATOM     13  C   UNL     1      -9.953   5.088   9.941  0.00  0.00    +0.011 C 
ENDBRANCH   1  11
BRANCH   8  14
ATOM     14  C   UNL     1      -8.922   0.512   4.562  0.00  0.00    +0.247 C 
ATOM     15  O   UNL     1      -8.949  -0.694   4.723  0.00  0.00    -0.270 OA
ATOM     16  N   UNL     1      -9.663   1.079   3.590  0.00  0.00    -0.307 N 
ATOM     17  H   UNL     1      -9.642   2.041   3.462  0.00  0.00    +0.149 HD
BRANCH  16  18
ATOM     18  C   UNL     1     -10.501   0.244   2.726  0.00  0.00    +0.096 C 
ATOM     19  C   UNL     1     -11.860   0.008   3.407  0.00  0.00    +0.046 C 
ATOM     20  C   UNL     1     -12.828  -0.604   2.356  0.00  0.00    +0.168 C 
ATOM     21  S   UNL     1     -12.389   0.396   0.872  0.00  0.00    -0.029 S 
ATOM     22  O   UNL     1     -13.251   1.524   0.803  0.00  0.00    -0.174 OA
ATOM     23  O   UNL     1     -12.276  -0.467  -0.252  0.00  0.00    -0.174 OA
ATOM     24  C   UNL     1     -10.710   0.956   1.368  0.00  0.00    +0.188 C 
ENDBRANCH  16  18
ENDBRANCH   8  14
BRANCH   7  25
ATOM     25  N   UNL     1      -6.053   1.229   3.977  0.00  0.00    -0.275 N 
ATOM     26  C   UNL     1      -4.771   1.613   3.820  0.00  0.00    +0.249 C 
ATOM     27  O   UNL     1      -4.241   2.318   4.657  0.00  0.00    -0.270 OA
ATOM     28  H   UNL     1      -6.477   0.667   3.309  0.00  0.00    +0.156 HD
BRANCH  26  29
ATOM     29  C   UNL     1      -4.010   1.178   2.631  0.00  0.00    +0.040 A 
ATOM     30  C   UNL     1      -4.616   0.369   1.667  0.00  0.00    +0.013 A 
ATOM     31  C   UNL     1      -3.902  -0.035   0.558  0.00  0.00    +0.004 A 
ATOM     32  C   UNL     1      -2.588   0.364   0.393  0.00  0.00    +0.045 A 
ATOM     33  C   UNL     1      -1.975   1.163   1.348  0.00  0.00    +0.121 A 
ATOM     34  C   UNL     1      -2.682   1.574   2.466  0.00  0.00    +0.058 A 
BRANCH  33  35
ATOM     35  O   UNL     1      -0.682   1.547   1.184  0.00  0.00    -0.495 OA
ATOM     36  C   UNL     1      -0.013   1.086   0.008  0.00  0.00    +0.277 C 
ENDBRANCH  33  35
ENDBRANCH  26  29
ENDBRANCH   7  25
TORSDOF 6
