REMARK  Name = ZINC08964205
REMARK  9 active torsions:
REMARK  status: ('A' for Active; 'I' for Inactive)
REMARK    1  A    between atoms: C_1  and  C_2
REMARK    2  A    between atoms: C_5  and  N_31
REMARK    3  A    between atoms: C_7  and  N_8
REMARK    4  A    between atoms: C_9  and  C_11
REMARK    5  A    between atoms: N_13  and  C_14
REMARK    6  A    between atoms: C_14  and  C_15
REMARK    7  A    between atoms: C_15  and  C_17
REMARK    8  A    between atoms: C_15  and  N_62
REMARK    9  A    between atoms: N_25  and  C_26
REMARK                            x       y       z     vdW  Elec       q    Type
REMARK                         _______ _______ _______ _____ _____    ______ ____
ROOT
ATOM      1  C   UNL     1      -3.585   9.267  -3.010  0.00  0.00    +0.299 C 
ATOM      2  O   UNL     1      -2.486   9.771  -2.913  0.00  0.00    -0.265 OA
ATOM      3  N   UNL     1      -3.843   8.091  -2.405  0.00  0.00    -0.309 N 
ATOM      4  H   UNL     1      -4.722   7.688  -2.482  0.00  0.00    +0.149 HD
ENDROOT
BRANCH   1   6
ATOM      5  N   UNL     1      -4.394  11.125  -4.407  0.00  0.00    -0.277 N 
ATOM      6  C   UNL     1      -4.652   9.949  -3.802  0.00  0.00    +0.303 C 
ATOM      7  O   UNL     1      -5.752   9.445  -3.899  0.00  0.00    -0.265 OA
ATOM      8  H   UNL     1      -3.504  11.508  -4.364  0.00  0.00    +0.155 HD
BRANCH   5  15
ATOM      9  C   UNL     1      -4.256  13.962  -4.585  0.00  0.00    +0.045 C 
ATOM     10  C   UNL     1      -5.381  13.177  -5.210  0.00  0.00    -0.029 A 
ATOM     11  C   UNL     1      -6.386  13.834  -5.893  0.00  0.00    +0.007 A 
ATOM     12  C   UNL     1      -7.419  13.115  -6.465  0.00  0.00    +0.033 A 
ATOM     13  C   UNL     1      -7.450  11.737  -6.356  0.00  0.00    +0.128 A 
ATOM     14  C   UNL     1      -6.446  11.073  -5.679  0.00  0.00    +0.056 A 
ATOM     15  C   UNL     1      -5.410  11.793  -5.098  0.00  0.00    +0.039 A 
BRANCH  13  16
ATOM     16  N   UNL     1      -8.558  10.971  -6.970  0.00  0.00    +0.056 N 
ATOM     17  O   UNL     1      -9.442  11.555  -7.572  0.00  0.00    -0.126 OA
ATOM     18  O   UNL     1      -8.587   9.757  -6.874  0.00  0.00    -0.126 OA
ENDBRANCH  13  16
ENDBRANCH   5  15
ENDBRANCH   1   6
BRANCH   3  19
ATOM     19  C   UNL     1      -2.796   7.422  -1.628  0.00  0.00    +0.094 C 
BRANCH  19  20
ATOM     20  C   UNL     1      -3.391   6.210  -0.909  0.00  0.00    -0.020 C 
BRANCH  20  21
ATOM     21  C   UNL     1      -2.281   5.394  -0.298  0.00  0.00    -0.059 A 
ATOM     22  C   UNL     1      -1.585   5.880   0.794  0.00  0.00    +0.004 A 
ATOM     23  C   UNL     1      -0.570   5.136   1.359  0.00  0.00    +0.023 A 
ATOM     24  C   UNL     1      -0.240   3.887   0.833  0.00  0.00    +0.033 A 
ATOM     25  C   UNL     1      -0.942   3.410  -0.268  0.00  0.00    -0.025 A 
ATOM     26  C   UNL     1      -1.957   4.158  -0.827  0.00  0.00    +0.007 A 
ATOM     27  C   UNL     1      -0.375   2.053  -0.631  0.00  0.00    +0.056 C 
ATOM     28  C   UNL     1       0.972   2.029   0.128  0.00  0.00    +0.109 C 
ATOM     29  N   UNL     1       0.735   2.966   1.246  0.00  0.00    -0.332 N 
ATOM     30  C   UNL     1       1.977   3.647   1.636  0.00  0.00    +0.129 C 
ENDBRANCH  20  21
BRANCH  20  35
ATOM     31  C   UNL     1      -5.506   7.316  -0.430  0.00  0.00    -0.078 C 
ATOM     32  C   UNL     1      -6.538   7.243   0.723  0.00  0.00    -0.020 C 
ATOM     33  C   UNL     1      -6.248   5.864   1.359  0.00  0.00    -0.020 C 
ATOM     34  C   UNL     1      -4.804   5.526   0.945  0.00  0.00    -0.078 C 
ATOM     35  N   UNL     1      -4.327   6.666   0.162  0.00  0.00    +0.385 N 
ATOM     36  H   UNL     1      -3.838   7.328   0.777  0.00  0.00    -0.081 HD
ENDBRANCH  20  35
ENDBRANCH  19  20
ENDBRANCH   3  19
TORSDOF 7
