REMARK  Name = ZINC32586617
REMARK  7 active torsions:
REMARK  status: ('A' for Active; 'I' for Inactive)
REMARK    1  A    between atoms: C_1  and  C_2
REMARK    2  A    between atoms: C_6  and  C_22
REMARK    3  A    between atoms: C_7  and  N_8
REMARK    4  A    between atoms: N_8  and  S_9
REMARK    5  A    between atoms: S_9  and  C_12
REMARK    6  A    between atoms: C_15  and  N_19
REMARK    7  A    between atoms: C_17  and  C_18
REMARK                            x       y       z     vdW  Elec       q    Type
REMARK                         _______ _______ _______ _____ _____    ______ ____
ROOT
ATOM      1  S   UNL     1      -2.811   0.977  -0.194  0.00  0.00    +0.073 S 
ATOM      2  O   UNL     1      -2.102  -0.250  -0.289  0.00  0.00    -0.150 OA
ATOM      3  O   UNL     1      -2.207   2.231  -0.485  0.00  0.00    -0.150 OA
ENDROOT
BRANCH   1   4
ATOM      4  C   UNL     1      -4.210   0.834  -1.254  0.00  0.00    +0.112 A 
ATOM      5  C   UNL     1      -4.524   1.859  -2.127  0.00  0.00    +0.031 A 
ATOM      6  C   UNL     1      -5.619   1.744  -2.963  0.00  0.00    +0.034 A 
ATOM      7  C   UNL     1      -6.403   0.606  -2.923  0.00  0.00    +0.127 A 
ATOM      8  C   UNL     1      -6.092  -0.417  -2.047  0.00  0.00    +0.038 A 
ATOM      9  C   UNL     1      -4.997  -0.302  -1.210  0.00  0.00    -0.022 A 
ATOM     10  C   UNL     1      -4.658  -1.417  -0.255  0.00  0.00    +0.046 C 
BRANCH   7  11
ATOM     11  N   UNL     1      -7.575   0.482  -3.819  0.00  0.00    +0.056 N 
ATOM     12  O   UNL     1      -7.849   1.383  -4.591  0.00  0.00    -0.126 OA
ATOM     13  O   UNL     1      -8.266  -0.521  -3.783  0.00  0.00    -0.126 OA
ENDBRANCH   7  11
ENDBRANCH   1   4
BRANCH   1  14
ATOM     14  N   UNL     1      -3.381   1.076   1.358  0.00  0.00    -0.216 N 
ATOM     15  H   UNL     1      -3.188   0.258   2.068  0.00  0.00    +0.174 HD
BRANCH  14  22
ATOM     16  C   UNL     1      -2.004   3.556   1.581  0.00  0.00    +0.046 C 
ATOM     17  C   UNL     1      -3.474   3.429   1.888  0.00  0.00    -0.028 A 
ATOM     18  C   UNL     1      -4.196   4.537   2.287  0.00  0.00    +0.005 A 
ATOM     19  C   UNL     1      -5.543   4.420   2.574  0.00  0.00    +0.001 A 
ATOM     20  C   UNL     1      -6.174   3.195   2.458  0.00  0.00    +0.005 A 
ATOM     21  C   UNL     1      -5.460   2.084   2.055  0.00  0.00    -0.028 A 
ATOM     22  C   UNL     1      -4.106   2.198   1.766  0.00  0.00    +0.054 A 
ATOM     23  C   UNL     1      -6.149   0.749   1.929  0.00  0.00    +0.046 C 
ENDBRANCH  14  22
ENDBRANCH   1  14
TORSDOF 4
