REMARK  Name = ZINC13634988
REMARK  7 active torsions:
REMARK  status: ('A' for Active; 'I' for Inactive)
REMARK    1  A    between atoms: C_1  and  C_2
REMARK    2  A    between atoms: C_3  and  C_21
REMARK    3  A    between atoms: C_4  and  C_16
REMARK    4  A    between atoms: C_21  and  O_23
REMARK    5  A    between atoms: O_23  and  C_24
REMARK    6  A    between atoms: C_24  and  C_25
REMARK    7  A    between atoms: C_24  and  C_26
REMARK                            x       y       z     vdW  Elec       q    Type
REMARK                         _______ _______ _______ _____ _____    ______ ____
ROOT
ATOM      1  C   UNL     1       1.794   7.153   2.451  0.00  0.00    +0.061 C 
ATOM      2  C   UNL     1       1.817   6.335   1.185  0.00  0.00    +0.020 C 
ATOM      3  C   UNL     1       2.356   5.108   1.218  0.00  0.00    +0.081 C 
ATOM      4  C   UNL     1       2.419   4.203   0.019  0.00  0.00    +0.166 C 
ATOM      5  N   UNL     1       2.100   4.964  -1.190  0.00  0.00    -0.299 N 
ATOM      6  C   UNL     1       2.251   4.623  -2.503  0.00  0.00    +0.071 A 
ATOM      7  C   UNL     1       2.741   3.486  -3.133  0.00  0.00    +0.028 A 
ATOM      8  C   UNL     1       2.744   3.484  -4.519  0.00  0.00    +0.002 A 
ATOM      9  C   UNL     1       2.281   4.561  -5.255  0.00  0.00    +0.002 A 
ATOM     10  C   UNL     1       1.788   5.703  -4.652  0.00  0.00    +0.030 A 
ATOM     11  C   UNL     1       1.776   5.728  -3.253  0.00  0.00    +0.091 A 
ATOM     12  N   UNL     1       1.371   6.666  -2.374  0.00  0.00    -0.214 NA
ATOM     13  C   UNL     1       1.558   6.230  -1.158  0.00  0.00    +0.202 A 
ATOM     14  N   UNL     1       1.285   6.872   0.041  0.00  0.00    -0.288 N 
ATOM     15  H   UNL     1       0.737   7.673   0.068  0.00  0.00    +0.155 HD
ENDROOT
BRANCH   4  16
ATOM     16  C   UNL     1       1.424   3.082   0.182  0.00  0.00    +0.017 A 
ATOM     17  C   UNL     1       1.644   1.745   0.225  0.00  0.00    +0.013 A 
ATOM     18  C   UNL     1       0.566   0.894   0.385  0.00  0.00    +0.008 A 
ATOM     19  C   UNL     1      -0.678   1.421   0.489  0.00  0.00    +0.045 A 
ATOM     20  S   UNL     1      -0.349   3.172   0.372  0.00  0.00    -0.099 S 
ENDBRANCH   4  16
BRANCH   3  21
ATOM     21  C   UNL     1       2.891   4.642   2.440  0.00  0.00    +0.339 C 
ATOM     22  O   UNL     1       2.263   3.850   3.117  0.00  0.00    -0.245 OA
BRANCH  21  23
ATOM     23  O   UNL     1       4.099   5.076   2.856  0.00  0.00    -0.459 OA
BRANCH  23  24
ATOM     24  C   UNL     1       4.579   4.564   4.101  0.00  0.00    +0.171 C 
ATOM     25  C   UNL     1       5.383   3.286   3.851  0.00  0.00    +0.052 C 
ATOM     26  C   UNL     1       5.475   5.608   4.771  0.00  0.00    +0.052 C 
ENDBRANCH  23  24
ENDBRANCH  21  23
ENDBRANCH   3  21
TORSDOF 4
