REMARK  Name = ZINC14954260
REMARK  12 active torsions:
REMARK  status: ('A' for Active; 'I' for Inactive)
REMARK    1  A    between atoms: C_1  and  C_2
REMARK    2  A    between atoms: C_2  and  C_3
REMARK    3  A    between atoms: C_3  and  C_4
REMARK    4  A    between atoms: C_4  and  N_5
REMARK    5  A    between atoms: C_6  and  C_8
REMARK    6  A    between atoms: N_10  and  C_27
REMARK    7  A    between atoms: C_12  and  C_15
REMARK    8  A    between atoms: C_20  and  N_72
REMARK    9  A    between atoms: C_23  and  C_24
REMARK   10  A    between atoms: C_23  and  N_72
REMARK   11  A    between atoms: C_25  and  C_26
REMARK   12  A    between atoms: C_25  and  N_72
REMARK                            x       y       z     vdW  Elec       q    Type
REMARK                         _______ _______ _______ _____ _____    ______ ____
ROOT
ATOM      1  C   UNL     1       5.298   2.577  -0.019  0.00  0.00    +0.100 A 
ATOM      2  C   UNL     1       4.181   1.808  -0.261  0.00  0.00    +0.102 A 
ATOM      3  N   UNL     1       3.557   1.834  -1.450  0.00  0.00    -0.349 N 
ATOM      4  C   UNL     1       3.954   2.605  -2.475  0.00  0.00    +0.102 A 
ATOM      5  C   UNL     1       5.053   3.430  -2.371  0.00  0.00    +0.100 A 
ATOM      6  C   UNL     1       5.793   3.449  -1.098  0.00  0.00    +0.206 A 
ATOM      7  O   UNL     1       6.773   4.158  -0.943  0.00  0.00    -0.286 OA
ENDROOT
BRANCH   5   8
ATOM      8  C   UNL     1       5.477   4.271  -3.503  0.00  0.00    +0.252 C 
ATOM      9  O   UNL     1       5.759   5.439  -3.321  0.00  0.00    -0.270 OA
ATOM     10  N   UNL     1       5.553   3.744  -4.742  0.00  0.00    -0.299 N 
ATOM     11  C   UNL     1       5.153   2.381  -5.120  0.00  0.00    +0.106 C 
ATOM     12  C   UNL     1       5.441   2.220  -6.627  0.00  0.00    +0.005 C 
ATOM     13  C   UNL     1       6.519   3.304  -6.890  0.00  0.00    -0.049 C 
ATOM     14  C   UNL     1       6.058   4.438  -5.941  0.00  0.00    +0.093 C 
BRANCH  13  15
ATOM     15  N   UNL     1       6.463   3.755  -8.297  0.00  0.00    +0.382 N 
ATOM     16  H   UNL     1       5.511   4.076  -8.507  0.00  0.00    -0.081 HD
BRANCH  15  17
ATOM     17  C   UNL     1       7.404   4.876  -8.506  0.00  0.00    -0.082 C 
ATOM     18  C   UNL     1       8.840   4.431  -8.224  0.00  0.00    -0.017 C 
ENDBRANCH  15  17
BRANCH  15  19
ATOM     19  C   UNL     1       6.803   2.636  -9.200  0.00  0.00    -0.082 C 
ATOM     20  C   UNL     1       6.410   3.019 -10.628  0.00  0.00    -0.017 C 
ENDBRANCH  15  19
ENDBRANCH  13  15
ENDBRANCH   5   8
BRANCH   3  21
ATOM     21  C   UNL     1       2.379   0.983  -1.636  0.00  0.00    +0.087 C 
ATOM     22  C   UNL     1       1.306   1.367  -0.614  0.00  0.00    +0.025 C 
ATOM     23  C   UNL     1       0.076   0.478  -0.808  0.00  0.00    +0.002 C 
ATOM     24  C   UNL     1       0.469  -0.987  -0.609  0.00  0.00    +0.000 C 
ATOM     25  C   UNL     1       1.541  -1.371  -1.631  0.00  0.00    +0.002 C 
ATOM     26  C   UNL     1       2.772  -0.482  -1.437  0.00  0.00    +0.025 C 
ENDBRANCH   3  21
BRANCH   1  28
ATOM     27  N   UNL     1       5.509   1.729   2.263  0.00  0.00    -0.311 N 
ATOM     28  C   UNL     1       5.977   2.533   1.288  0.00  0.00    +0.249 C 
ATOM     29  O   UNL     1       6.959   3.223   1.486  0.00  0.00    -0.270 OA
ATOM     30  H   UNL     1       4.726   1.179   2.104  0.00  0.00    +0.149 HD
BRANCH  27  31
ATOM     31  C   UNL     1       6.184   1.685   3.562  0.00  0.00    +0.104 C 
BRANCH  31  32
ATOM     32  C   UNL     1       5.458   0.701   4.481  0.00  0.00    +0.018 C 
BRANCH  32  34
ATOM     33  C   UNL     1       5.437  -0.329   6.757  0.00  0.00    +0.004 C 
ATOM     34  C   UNL     1       6.163   0.655   5.838  0.00  0.00    -0.002 C 
ENDBRANCH  32  34
ENDBRANCH  31  32
ENDBRANCH  27  31
ENDBRANCH   1  28
TORSDOF 9
