REMARK  Name = ZINC64215475
REMARK  9 active torsions:
REMARK  status: ('A' for Active; 'I' for Inactive)
REMARK    1  A    between atoms: C_1  and  C_2
REMARK    2  A    between atoms: C_2  and  C_4
REMARK    3  A    between atoms: C_2  and  N_32
REMARK    4  A    between atoms: N_6  and  C_7
REMARK    5  A    between atoms: C_7  and  C_8
REMARK    6  A    between atoms: C_8  and  C_10
REMARK    7  A    between atoms: C_8  and  C_16
REMARK    8  A    between atoms: C_24  and  C_26
REMARK    9  A    between atoms: C_33  and  C_35
REMARK                            x       y       z     vdW  Elec       q    Type
REMARK                         _______ _______ _______ _____ _____    ______ ____
ROOT
ATOM      1  C   UNL     1       0.270  -0.182   4.899  0.00  0.00    +0.065 C 
ENDROOT
BRANCH   1   2
ATOM      2  C   UNL     1       0.999  -0.682   6.120  0.00  0.00    -0.025 C 
ATOM      3  C   UNL     1       2.058  -1.523   6.147  0.00  0.00    +0.000 A 
ATOM      4  C   UNL     1       2.817  -2.200   5.090  0.00  0.00    +0.010 A 
ATOM      5  C   UNL     1       3.851  -3.001   5.435  0.00  0.00    +0.001 A 
ATOM      6  C   UNL     1       4.214  -3.201   6.774  0.00  0.00    +0.002 A 
ATOM      7  C   UNL     1       3.564  -2.613   7.801  0.00  0.00    +0.026 A 
ATOM      8  C   UNL     1       2.461  -1.750   7.554  0.00  0.00    +0.043 A 
ATOM      9  N   UNL     1       1.682  -1.075   8.364  0.00  0.00    -0.374 N 
ATOM     10  C   UNL     1       0.699  -0.338   7.562  0.00  0.00    +0.137 C 
ATOM     11  H   UNL     1       1.747  -1.062   9.331  0.00  0.00    +0.161 HD
BRANCH  10  12
ATOM     12  C   UNL     1      -0.696  -0.779   7.921  0.00  0.00    -0.021 A 
ATOM     13  C   UNL     1      -0.943  -2.103   8.236  0.00  0.00    +0.006 A 
ATOM     14  C   UNL     1      -2.223  -2.507   8.566  0.00  0.00    +0.000 A 
ATOM     15  C   UNL     1      -3.256  -1.589   8.582  0.00  0.00    +0.000 A 
ATOM     16  C   UNL     1      -3.009  -0.265   8.268  0.00  0.00    +0.000 A 
ATOM     17  C   UNL     1      -1.728   0.140   7.942  0.00  0.00    +0.006 A 
ENDBRANCH  10  12
ENDBRANCH   1   2
BRANCH   1  18
ATOM     18  C   UNL     1      -1.071  -0.863   4.801  0.00  0.00    -0.039 A 
ATOM     19  C   UNL     1      -1.141  -2.240   4.698  0.00  0.00    +0.004 A 
ATOM     20  C   UNL     1      -2.372  -2.864   4.609  0.00  0.00    +0.000 A 
ATOM     21  C   UNL     1      -3.531  -2.111   4.622  0.00  0.00    +0.000 A 
ATOM     22  C   UNL     1      -3.461  -0.735   4.726  0.00  0.00    +0.000 A 
ATOM     23  C   UNL     1      -2.231  -0.111   4.820  0.00  0.00    +0.004 A 
ENDBRANCH   1  18
BRANCH   1  24
ATOM     24  C   UNL     1       1.094  -0.497   3.649  0.00  0.00    +0.116 C 
BRANCH  24  27
ATOM     25  C   UNL     1       1.021  -0.019   1.260  0.00  0.00    +0.233 C 
ATOM     26  O   UNL     1       2.040  -0.663   1.130  0.00  0.00    -0.274 OA
ATOM     27  N   UNL     1       0.466   0.125   2.480  0.00  0.00    -0.313 N 
ATOM     28  H   UNL     1      -0.349   0.640   2.585  0.00  0.00    +0.149 HD
BRANCH  25  30
ATOM     29  C   UNL     1       0.312   2.136   0.260  0.00  0.00    +0.038 C 
ATOM     30  C   UNL     1       0.375   0.621   0.059  0.00  0.00    +0.156 C 
BRANCH  30  31
ATOM     31  N   UNL     1       1.164   0.320  -1.138  0.00  0.00    -0.301 N 
ATOM     32  C   UNL     1       0.577   0.326  -2.352  0.00  0.00    +0.255 C 
ATOM     33  O   UNL     1      -0.604   0.582  -2.452  0.00  0.00    -0.272 OA
ATOM     34  H   UNL     1       2.109   0.115  -1.058  0.00  0.00    +0.150 HD
BRANCH  32  35
ATOM     35  C   UNL     1       1.389   0.016  -3.583  0.00  0.00    +0.261 C 
ATOM     36  C   UNL     1       2.419   1.137  -3.864  0.00  0.00    +0.084 C 
ATOM     37  C   UNL     1       2.383   1.214  -5.381  0.00  0.00    +0.015 C 
ATOM     38  C   UNL     1       1.305   0.576  -5.781  0.00  0.00    +0.184 C 
ATOM     39  O   UNL     1       0.569   0.066  -4.767  0.00  0.00    -0.487 OA
ENDBRANCH  32  35
ENDBRANCH  30  31
ENDBRANCH  25  30
ENDBRANCH  24  27
ENDBRANCH   1  24
TORSDOF 8
