REMARK  Name = ZINC67280809
REMARK  11 active torsions:
REMARK  status: ('A' for Active; 'I' for Inactive)
REMARK    1  A    between atoms: C_1  and  C_2
REMARK    2  A    between atoms: C_2  and  C_3
REMARK    3  A    between atoms: C_3  and  N_4
REMARK    4  A    between atoms: C_7  and  C_10
REMARK    5  A    between atoms: C_10  and  N_11
REMARK    6  A    between atoms: N_14  and  C_15
REMARK    7  A    between atoms: C_15  and  C_17
REMARK    8  A    between atoms: C_15  and  C_18
REMARK    9  A    between atoms: C_22  and  S_24
REMARK   10  A    between atoms: S_24  and  N_27
REMARK   11  A    between atoms: N_27  and  C_28
REMARK                            x       y       z     vdW  Elec       q    Type
REMARK                         _______ _______ _______ _____ _____    ______ ____
ROOT
ATOM      1  N   UNL     1      -3.275  -6.224   0.688  0.00  0.00    -0.299 N 
ATOM      2  C   UNL     1      -3.552  -7.414   0.120  0.00  0.00    +0.300 C 
ATOM      3  O   UNL     1      -3.715  -7.491  -1.083  0.00  0.00    -0.253 OA
ATOM      4  N   UNL     1      -3.649  -8.520   0.885  0.00  0.00    -0.293 N 
ATOM      5  H   UNL     1      -3.145  -6.162   1.647  0.00  0.00    +0.150 HD
ATOM      6  H   UNL     1      -3.519  -8.458   1.845  0.00  0.00    +0.151 HD
ENDROOT
BRANCH   4   7
ATOM      7  C   UNL     1      -3.950  -9.814   0.268  0.00  0.00    +0.102 C 
ATOM      8  C   UNL     1      -2.654 -10.453  -0.234  0.00  0.00    +0.033 C 
BRANCH   7   9
ATOM      9  C   UNL     1      -4.594 -10.718   1.287  0.00  0.00    -0.026 A 
ATOM     10  C   UNL     1      -4.138 -10.725   2.592  0.00  0.00    +0.005 A 
ATOM     11  C   UNL     1      -4.728 -11.554   3.527  0.00  0.00    +0.002 A 
ATOM     12  C   UNL     1      -5.776 -12.377   3.156  0.00  0.00    +0.028 A 
ATOM     13  C   UNL     1      -6.232 -12.370   1.852  0.00  0.00    +0.106 A 
ATOM     14  C   UNL     1      -5.644 -11.537   0.918  0.00  0.00    +0.034 A 
BRANCH  13  15
ATOM     15  S   UNL     1      -7.567 -13.419   1.380  0.00  0.00    +0.058 S 
ATOM     16  O   UNL     1      -7.447 -13.624  -0.021  0.00  0.00    -0.153 OA
ATOM     17  O   UNL     1      -7.585 -14.495   2.308  0.00  0.00    -0.153 OA
BRANCH  15  18
ATOM     18  N   UNL     1      -8.967 -12.567   1.615  0.00  0.00    -0.193 NA
ATOM     19  C   UNL     1      -9.237 -11.368   0.818  0.00  0.00    +0.127 C 
ATOM     20  H   UNL     1      -9.608 -12.861   2.281  0.00  0.00    +0.148 HD
ENDBRANCH  15  18
ENDBRANCH  13  15
ENDBRANCH   7   9
ENDBRANCH   4   7
BRANCH   1  21
ATOM     21  C   UNL     1      -3.170  -5.022  -0.144  0.00  0.00    +0.107 C 
BRANCH  21  25
ATOM     22  N   UNL     1      -1.413  -2.002   0.005  0.00  0.00    +0.380 N 
ATOM     23  C   UNL     1      -0.886  -2.515   1.295  0.00  0.00    -0.079 C 
ATOM     24  C   UNL     1      -1.440  -3.960   1.356  0.00  0.00    -0.016 C 
ATOM     25  C   UNL     1      -2.851  -3.816   0.741  0.00  0.00    -0.012 C 
ATOM     26  C   UNL     1      -2.791  -2.531  -0.106  0.00  0.00    -0.074 C 
ATOM     27  H   UNL     1      -0.849  -2.339  -0.761  0.00  0.00    -0.082 HD
BRANCH  22  28
ATOM     28  C   UNL     1      -1.433  -0.534   0.013  0.00  0.00    -0.079 C 
BRANCH  28  30
ATOM     29  C   UNL     1      -0.019   1.526   0.010  0.00  0.00    +0.002 C 
ATOM     30  C   UNL     1       0.002  -0.004   0.002  0.00  0.00    -0.022 C 
ENDBRANCH  28  30
ENDBRANCH  22  28
ENDBRANCH  21  25
ENDBRANCH   1  21
TORSDOF 8
