REMARK  Name = ZINC20418870
REMARK  10 active torsions:
REMARK  status: ('A' for Active; 'I' for Inactive)
REMARK    1  A    between atoms: C_1  and  C_2
REMARK    2  A    between atoms: C_3  and  C_33
REMARK    3  A    between atoms: C_4  and  C_24
REMARK    4  A    between atoms: C_10  and  C_15
REMARK    5  A    between atoms: C_18  and  N_21
REMARK    6  A    between atoms: N_21  and  C_22
REMARK    7  A    between atoms: N_21  and  C_23
REMARK    8  A    between atoms: C_33  and  O_35
REMARK    9  A    between atoms: O_35  and  C_36
REMARK   10  A    between atoms: C_36  and  C_37
REMARK                            x       y       z     vdW  Elec       q    Type
REMARK                         _______ _______ _______ _____ _____    ______ ____
ROOT
ATOM      1  C   UNL     1      -4.814   5.078   5.920  0.00  0.00    +0.061 C 
ATOM      2  C   UNL     1      -3.343   4.953   6.223  0.00  0.00    +0.016 C 
ATOM      3  C   UNL     1      -2.504   4.488   5.281  0.00  0.00    +0.065 C 
ATOM      4  C   UNL     1      -1.034   4.348   5.548  0.00  0.00    +0.092 C 
ATOM      5  C   UNL     1      -0.623   5.159   6.751  0.00  0.00    +0.024 C 
ATOM      6  C   UNL     1      -1.544   5.596   7.636  0.00  0.00    +0.016 C 
ATOM      7  N   UNL     1      -2.871   5.310   7.455  0.00  0.00    -0.321 N 
ATOM      8  C   UNL     1      -1.141   6.410   8.841  0.00  0.00    +0.059 C 
ATOM      9  C   UNL     1       0.267   6.008   9.285  0.00  0.00    +0.032 C 
ATOM     10  C   UNL     1       1.229   6.231   8.113  0.00  0.00    +0.088 C 
ATOM     11  C   UNL     1       0.743   5.445   6.925  0.00  0.00    +0.162 C 
ATOM     12  O   UNL     1       1.545   5.050   6.102  0.00  0.00    -0.292 OA
ATOM     13  H   UNL     1      -3.559   5.369   8.312  0.00  0.00    +0.152 HD
ENDROOT
BRANCH   4  14
ATOM     14  C   UNL     1      -0.712   2.897   5.796  0.00  0.00    -0.032 A 
ATOM     15  C   UNL     1      -1.312   2.227   6.845  0.00  0.00    +0.008 A 
ATOM     16  C   UNL     1      -1.020   0.895   7.076  0.00  0.00    +0.050 A 
ATOM     17  C   UNL     1      -0.123   0.230   6.256  0.00  0.00    +0.166 A 
ATOM     18  C   UNL     1       0.482   0.905   5.199  0.00  0.00    +0.167 A 
ATOM     19  C   UNL     1       0.180   2.238   4.970  0.00  0.00    +0.054 A 
ATOM     20  O   UNL     1       1.314   0.041   4.548  0.00  0.00    -0.453 OA
ATOM     21  C   UNL     1       0.903  -1.275   4.964  0.00  0.00    +0.466 C 
ATOM     22  O   UNL     1       0.329  -1.058   6.266  0.00  0.00    -0.453 OA
ENDBRANCH   4  14
BRANCH   9  23
ATOM     23  C   UNL     1       0.690   6.857  10.456  0.00  0.00    -0.043 A 
ATOM     24  C   UNL     1       0.749   8.232  10.325  0.00  0.00    +0.006 A 
ATOM     25  C   UNL     1       1.131   9.014  11.397  0.00  0.00    +0.023 A 
ATOM     26  C   UNL     1       1.467   8.416  12.605  0.00  0.00    +0.029 A 
ATOM     27  C   UNL     1       1.413   7.034  12.732  0.00  0.00    +0.023 A 
ATOM     28  C   UNL     1       1.024   6.259  11.657  0.00  0.00    +0.006 A 
BRANCH  26  29
ATOM     29  N   UNL     1       1.859   9.204  13.690  0.00  0.00    -0.336 N 
ATOM     30  C   UNL     1       2.327   8.569  14.925  0.00  0.00    +0.129 C 
ATOM     31  C   UNL     1       1.803  10.665  13.594  0.00  0.00    +0.129 C 
ENDBRANCH  26  29
ENDBRANCH   9  23
BRANCH   3  32
ATOM     32  C   UNL     1      -3.016   4.128   4.013  0.00  0.00    +0.338 C 
ATOM     33  O   UNL     1      -2.908   4.894   3.073  0.00  0.00    -0.245 OA
BRANCH  32  34
ATOM     34  O   UNL     1      -3.624   2.935   3.844  0.00  0.00    -0.459 OA
BRANCH  34  35
ATOM     35  C   UNL     1      -4.117   2.638   2.536  0.00  0.00    +0.264 C 
BRANCH  35  36
ATOM     36  C   UNL     1      -4.769   1.254   2.540  0.00  0.00    +0.156 C 
ATOM     37  C   UNL     1      -5.202   0.850   1.107  0.00  0.00    +0.037 C 
ATOM     38  C   UNL     1      -6.335  -0.167   1.385  0.00  0.00    +0.031 C 
ATOM     39  C   UNL     1      -6.788   0.156   2.822  0.00  0.00    +0.160 C 
ATOM     40  O   UNL     1      -6.013   1.278   3.276  0.00  0.00    -0.373 OA
ENDBRANCH  35  36
ENDBRANCH  34  35
ENDBRANCH  32  34
ENDBRANCH   3  32
TORSDOF 7
