REMARK  Name = ZINC36153798
REMARK  6 active torsions:
REMARK  status: ('A' for Active; 'I' for Inactive)
REMARK    1  A    between atoms: C_1  and  O_2
REMARK    2  A    between atoms: O_2  and  C_3
REMARK    3  A    between atoms: C_3  and  C_4
REMARK    4  A    between atoms: C_4  and  C_5
REMARK    5  A    between atoms: C_11  and  C_13
REMARK    6  A    between atoms: C_16  and  N_19
REMARK                            x       y       z     vdW  Elec       q    Type
REMARK                         _______ _______ _______ _____ _____    ______ ____
ROOT
ATOM      1  C   UNL     1       1.298  -2.694  -2.243  0.00  0.00    +0.158 A 
ATOM      2  N   UNL     1       0.729  -3.002  -3.375  0.00  0.00    -0.132 NA
ATOM      3  N   UNL     1       1.600  -3.490  -4.188  0.00  0.00    -0.120 NA
ATOM      4  C   UNL     1       2.763  -3.515  -3.610  0.00  0.00    +0.218 A 
ATOM      5  N   UNL     1       2.639  -3.005  -2.341  0.00  0.00    -0.190 N 
ATOM      6  N   UNL     1       3.798  -2.952  -1.577  0.00  0.00    -0.156 NA
ATOM      7  C   UNL     1       4.943  -3.368  -2.055  0.00  0.00    +0.132 A 
ATOM      8  S   UNL     1       4.492  -3.909  -3.697  0.00  0.00    -0.026 S 
ENDROOT
BRANCH   7   9
ATOM      9  C   UNL     1       6.270  -3.391  -1.402  0.00  0.00    +0.009 A 
ATOM     10  C   UNL     1       6.412  -2.929  -0.092  0.00  0.00    +0.012 A 
ATOM     11  C   UNL     1       7.648  -2.952   0.515  0.00  0.00    +0.023 A 
ATOM     12  C   UNL     1       8.755  -3.435  -0.176  0.00  0.00    +0.025 A 
ATOM     13  C   UNL     1       8.616  -3.896  -1.481  0.00  0.00    +0.023 A 
ATOM     14  C   UNL     1       7.380  -3.880  -2.091  0.00  0.00    +0.012 A 
BRANCH  12  15
ATOM     15  N   UNL     1      10.005  -3.456   0.440  0.00  0.00    -0.358 N 
ATOM     16  H   UNL     1      10.103  -3.134   1.350  0.00  0.00    +0.142 HD
ATOM     17  H   UNL     1      10.777  -3.792  -0.041  0.00  0.00    +0.142 HD
ENDBRANCH  12  15
ENDBRANCH   7   9
BRANCH   1  18
ATOM     18  C   UNL     1       0.613  -2.097  -1.041  0.00  0.00    +0.106 C 
BRANCH  18  19
ATOM     19  C   UNL     1       0.652  -0.570  -1.138  0.00  0.00    +0.167 C 
BRANCH  19  21
ATOM     20  C   UNL     1      -0.017   1.425   0.010  0.00  0.00    +0.194 C 
ATOM     21  O   UNL     1       0.002  -0.004   0.002  0.00  0.00    -0.383 OA
ENDBRANCH  19  21
ENDBRANCH  18  19
ENDBRANCH   1  18
TORSDOF 5
