REMARK  Name = ZINC17105162
REMARK  7 active torsions:
REMARK  status: ('A' for Active; 'I' for Inactive)
REMARK    1  A    between atoms: C_1  and  C_2
REMARK    2  A    between atoms: C_20  and  C_22
REMARK    3  A    between atoms: C_22  and  C_24
REMARK    4  A    between atoms: C_22  and  C_26
REMARK    5  A    between atoms: C_24  and  O_25
REMARK    6  A    between atoms: C_26  and  O_28
REMARK    7  A    between atoms: O_28  and  C_29
REMARK                            x       y       z     vdW  Elec       q    Type
REMARK                         _______ _______ _______ _____ _____    ______ ____
ROOT
ATOM      1  C   UNL     1       6.979   2.119   2.074  0.00  0.00    +0.035 C 
ATOM      2  C   UNL     1       6.092   0.909   1.941  0.00  0.00    -0.033 C 
ATOM      3  C   UNL     1       5.096   0.917   1.090  0.00  0.00    -0.086 C 
ATOM      4  C   UNL     1       4.816   2.130   0.230  0.00  0.00    -0.047 C 
ATOM      5  C   UNL     1       3.066   3.669  -0.430  0.00  0.00    -0.073 C 
ATOM      6  C   UNL     1       1.698   4.215   0.002  0.00  0.00    +0.019 C 
ATOM      7  C   UNL     1       0.721   3.067   0.011  0.00  0.00    -0.022 A 
ATOM      8  C   UNL     1      -0.725   3.094   0.026  0.00  0.00    +0.003 A 
ATOM      9  C   UNL     1      -1.657   4.136   0.042  0.00  0.00    +0.010 A 
ATOM     10  C   UNL     1      -2.983   3.783   0.052  0.00  0.00    +0.001 A 
ATOM     11  C   UNL     1      -3.393   2.460   0.048  0.00  0.00    +0.002 A 
ATOM     12  C   UNL     1      -2.493   1.408   0.033  0.00  0.00    +0.026 A 
ATOM     13  C   UNL     1      -1.139   1.736   0.016  0.00  0.00    +0.047 A 
ATOM     14  N   UNL     1      -0.011   0.966   0.007  0.00  0.00    -0.359 N 
ATOM     15  H   UNL     1       0.002  -0.004   0.002  0.00  0.00    +0.166 HD
ATOM     16  C   UNL     1       1.098   1.768   0.001  0.00  0.00    +0.007 A 
ATOM     17  C   UNL     1       2.542   1.329  -0.011  0.00  0.00    -0.019 C 
ATOM     18  C   UNL     1       2.736   0.197   1.001  0.00  0.00    -0.001 C 
ATOM     19  C   UNL     1       4.190  -0.287   0.938  0.00  0.00    +0.028 C 
ATOM     20  N   UNL     1       3.389   2.478   0.390  0.00  0.00    +0.388 N 
ATOM     21  H   UNL     1       3.207   2.696   1.376  0.00  0.00    -0.080 HD
ENDROOT
BRANCH  19  22
ATOM     22  C   UNL     1       4.452  -0.963  -0.409  0.00  0.00    +0.130 C 
BRANCH  22  23
ATOM     23  C   UNL     1       3.549  -2.160  -0.554  0.00  0.00    +0.313 C 
ATOM     24  O   UNL     1       2.774  -2.444   0.329  0.00  0.00    -0.250 OA
BRANCH  23  25
ATOM     25  O   UNL     1       3.604  -2.912  -1.665  0.00  0.00    -0.468 OA
ATOM     26  C   UNL     1       2.705  -4.050  -1.737  0.00  0.00    +0.280 C 
ENDBRANCH  23  25
ENDBRANCH  22  23
BRANCH  22  27
ATOM     27  C   UNL     1       5.913  -1.415  -0.477  0.00  0.00    +0.171 C 
BRANCH  27  28
ATOM     28  O   UNL     1       6.188  -1.942  -1.777  0.00  0.00    -0.394 OA
ATOM     29  H   UNL     1       7.098  -2.248  -1.892  0.00  0.00    +0.209 HD
ENDBRANCH  27  28
ENDBRANCH  22  27
ENDBRANCH  19  22
TORSDOF 5
