REMARK  Name = ZINC12807695
REMARK  10 active torsions:
REMARK  status: ('A' for Active; 'I' for Inactive)
REMARK    1  A    between atoms: C_1  and  C_2
REMARK    2  A    between atoms: C_3  and  C_29
REMARK    3  A    between atoms: C_9  and  C_12
REMARK    4  A    between atoms: C_12  and  O_14
REMARK    5  A    between atoms: O_14  and  C_15
REMARK    6  A    between atoms: C_15  and  C_16
REMARK    7  A    between atoms: C_19  and  C_27
REMARK    8  A    between atoms: C_19  and  C_28
REMARK    9  A    between atoms: C_24  and  C_25
REMARK   10  A    between atoms: C_24  and  C_26
REMARK                            x       y       z     vdW  Elec       q    Type
REMARK                         _______ _______ _______ _____ _____    ______ ____
ROOT
ATOM      1  O   UNL     1       1.236   0.269  -0.346  0.00  0.00    -0.452 OA
ENDROOT
BRANCH   1   2
ATOM      2  C   UNL     1       0.344  -0.731  -0.197  0.00  0.00    +0.340 C 
ATOM      3  O   UNL     1       0.731  -1.871  -0.033  0.00  0.00    -0.245 OA
BRANCH   2  12
ATOM      4  C   UNL     1      -4.666  -3.491   0.193  0.00  0.00    +0.046 C 
ATOM      5  C   UNL     1      -4.600  -2.000  -0.020  0.00  0.00    -0.022 A 
ATOM      6  C   UNL     1      -5.641  -1.163  -0.141  0.00  0.00    +0.017 A 
ATOM      7  N   UNL     1      -5.194   0.117  -0.324  0.00  0.00    -0.358 N 
ATOM      8  H   UNL     1      -5.762   0.895  -0.435  0.00  0.00    +0.166 HD
ATOM      9  C   UNL     1      -3.820   0.138  -0.325  0.00  0.00    +0.047 A 
ATOM     10  C   UNL     1      -3.385  -1.188  -0.135  0.00  0.00    +0.004 A 
ATOM     11  C   UNL     1      -2.023  -1.475  -0.093  0.00  0.00    +0.025 A 
ATOM     12  C   UNL     1      -1.102  -0.441  -0.240  0.00  0.00    +0.060 A 
ATOM     13  C   UNL     1      -1.548   0.875  -0.424  0.00  0.00    +0.017 A 
ATOM     14  C   UNL     1      -2.881   1.158  -0.471  0.00  0.00    +0.027 A 
ATOM     15  C   UNL     1      -7.091  -1.573  -0.083  0.00  0.00    +0.063 C 
ENDBRANCH   2  12
ENDBRANCH   1   2
BRANCH   1  16
ATOM     16  C   UNL     1       2.642  -0.090  -0.299  0.00  0.00    +0.328 C 
BRANCH  16  17
ATOM     17  C   UNL     1       3.482   1.147  -0.481  0.00  0.00    +0.254 C 
ATOM     18  O   UNL     1       2.972   2.174  -0.879  0.00  0.00    -0.272 OA
ATOM     19  N   UNL     1       4.800   1.114  -0.203  0.00  0.00    -0.287 N 
ATOM     20  C   UNL     1       5.528  -0.162  -0.208  0.00  0.00    +0.039 C 
ATOM     21  C   UNL     1       6.686  -0.059  -1.218  0.00  0.00    +0.099 C 
ATOM     22  C   UNL     1       7.450   1.216  -0.939  0.00  0.00    +0.137 C 
ATOM     23  O   UNL     1       8.645   1.197  -0.770  0.00  0.00    -0.297 OA
ATOM     24  C   UNL     1       6.680   2.518  -0.879  0.00  0.00    +0.099 C 
ATOM     25  C   UNL     1       5.524   2.351   0.116  0.00  0.00    +0.039 C 
ATOM     26  C   UNL     1       4.574   3.545   0.002  0.00  0.00    +0.032 C 
ATOM     27  C   UNL     1       6.077   2.270   1.540  0.00  0.00    +0.032 C 
ATOM     28  C   UNL     1       6.085  -0.441   1.189  0.00  0.00    +0.032 C 
ATOM     29  C   UNL     1       4.582  -1.291  -0.622  0.00  0.00    +0.032 C 
ENDBRANCH  16  17
ENDBRANCH   1  16
TORSDOF 4
