REMARK  Name = ZINC49474559
REMARK  1 active torsions:
REMARK  status: ('A' for Active; 'I' for Inactive)
REMARK    1  A    between atoms: C_1  and  C_7
REMARK                            x       y       z     vdW  Elec       q    Type
REMARK                         _______ _______ _______ _____ _____    ______ ____
ROOT
ATOM      1  C   UNL     1      -0.016   1.343   0.009  0.00  0.00    +0.304 A 
ATOM      2  N   UNL     1       1.218   1.753  -0.000  0.00  0.00    -0.103 NA
ATOM      3  N   UNL     1       2.009   0.738  -0.013  0.00  0.00    -0.093 NA
ATOM      4  C   UNL     1       1.299  -0.364  -0.012  0.00  0.00    +0.305 A 
ATOM      5  O   UNL     1       0.002  -0.004   0.002  0.00  0.00    -0.403 OA
ATOM      6  N   UNL     1       1.791  -1.656  -0.024  0.00  0.00    -0.312 N 
ATOM      7  H   UNL     1       2.748  -1.811  -0.034  0.00  0.00    +0.147 HD
ATOM      8  H   UNL     1       1.178  -2.409  -0.022  0.00  0.00    +0.147 HD
ENDROOT
BRANCH   1   9
ATOM      9  C   UNL     1      -1.244   2.217   0.031  0.00  0.00    +0.399 C 
ATOM     10  F   UNL     1      -0.864   3.558  -0.082  0.00  0.00    -0.177 F 
ATOM     11  F   UNL     1      -2.078   1.877  -1.039  0.00  0.00    -0.177 F 
ATOM     12 CL   UNL     1      -2.128   1.972   1.583  0.00  0.00    -0.038 Cl
ENDBRANCH   1   9
TORSDOF 1
