REMARK  Name = ZINC32754077
REMARK  7 active torsions:
REMARK  status: ('A' for Active; 'I' for Inactive)
REMARK    1  A    between atoms: C_1  and  C_2
REMARK    2  A    between atoms: C_9  and  C_11
REMARK    3  A    between atoms: N_13  and  C_14
REMARK    4  A    between atoms: C_14  and  C_15
REMARK    5  A    between atoms: C_19  and  N_21
REMARK    6  A    between atoms: N_21  and  S_22
REMARK    7  A    between atoms: S_22  and  N_25
REMARK                            x       y       z     vdW  Elec       q    Type
REMARK                         _______ _______ _______ _____ _____    ______ ____
ROOT
ATOM      1  C   UNL     1      -3.969  -0.124   1.649  0.00  0.00    +0.252 C 
ATOM      2  O   UNL     1      -4.646  -0.535   0.726  0.00  0.00    -0.270 OA
ATOM      3  N   UNL     1      -2.816   0.529   1.402  0.00  0.00    -0.307 N 
ATOM      4  H   UNL     1      -2.205   0.901   2.237  0.00  0.00    +0.149 HD
ENDROOT
BRANCH   1  13
ATOM      5  C   UNL     1      -7.964  -2.325   4.698  0.00  0.00    +0.044 C 
ATOM      6  C   UNL     1      -6.875  -1.681   5.516  0.00  0.00    -0.041 A 
ATOM      7  C   UNL     1      -6.958  -1.692   6.872  0.00  0.00    +0.004 A 
ATOM      8  C   UNL     1      -5.978  -1.111   7.667  0.00  0.00    +0.001 A 
ATOM      9  C   UNL     1      -4.891  -0.504   7.071  0.00  0.00    +0.016 A 
ATOM     10  C   UNL     1      -4.793  -0.485   5.696  0.00  0.00    +0.022 A 
ATOM     11  C   UNL     1      -5.775  -1.069   4.862  0.00  0.00    +0.011 A 
ATOM     12  C   UNL     1      -5.531  -0.967   3.479  0.00  0.00    +0.068 A 
ATOM     13  C   UNL     1      -4.409  -0.338   3.034  0.00  0.00    +0.093 A 
ATOM     14  S   UNL     1      -3.601   0.156   4.546  0.00  0.00    -0.082 S 
ATOM     15 CL   UNL     1      -6.658  -1.642   2.345  0.00  0.00    -0.082 Cl
ENDBRANCH   1  13
BRANCH   3  16
ATOM     16  C   UNL     1      -2.377   0.742   0.021  0.00  0.00    +0.140 C 
BRANCH  16  17
ATOM     17  C   UNL     1      -1.069   1.490   0.020  0.00  0.00    -0.029 A 
ATOM     18  C   UNL     1       0.125   0.793   0.047  0.00  0.00    +0.005 A 
ATOM     19  C   UNL     1       1.328   1.475   0.040  0.00  0.00    +0.002 A 
ATOM     20  C   UNL     1       1.341   2.856   0.011  0.00  0.00    +0.024 A 
ATOM     21  C   UNL     1       0.143   3.559  -0.011  0.00  0.00    +0.049 A 
ATOM     22  C   UNL     1      -1.063   2.871  -0.003  0.00  0.00    +0.029 A 
BRANCH  21  23
ATOM     23  N   UNL     1       0.152   4.956  -0.041  0.00  0.00    -0.207 N 
ATOM     24  H   UNL     1      -0.522   5.524   0.617  0.00  0.00    +0.175 HD
BRANCH  23  25
ATOM     25  S   UNL     1       1.177   5.755  -1.066  0.00  0.00    +0.107 S 
ATOM     26  O   UNL     1       0.933   7.143  -0.883  0.00  0.00    -0.138 OA
ATOM     27  O   UNL     1       2.463   5.178  -0.886  0.00  0.00    -0.138 OA
BRANCH  25  28
ATOM     28  N   UNL     1       0.707   5.391  -2.611  0.00  0.00    -0.191 NA
ATOM     29  H   UNL     1       1.366   5.905  -3.326  0.00  0.00    +0.146 HD
ATOM     30  H   UNL     1      -0.331   5.722  -2.766  0.00  0.00    +0.146 HD
ENDBRANCH  25  28
ENDBRANCH  23  25
ENDBRANCH  21  23
ENDBRANCH  16  17
ENDBRANCH   3  16
TORSDOF 6
