REMARK  Name = ZINC46254906
REMARK  10 active torsions:
REMARK  status: ('A' for Active; 'I' for Inactive)
REMARK    1  A    between atoms: C_1  and  C_2
REMARK    2  A    between atoms: N_5  and  C_8
REMARK    3  A    between atoms: C_8  and  C_10
REMARK    4  A    between atoms: C_8  and  C_27
REMARK    5  A    between atoms: C_10  and  N_11
REMARK    6  A    between atoms: N_14  and  N_15
REMARK    7  A    between atoms: C_16  and  C_18
REMARK    8  A    between atoms: C_22  and  N_24
REMARK    9  A    between atoms: C_27  and  C_28
REMARK   10  A    between atoms: C_27  and  C_29
REMARK                            x       y       z     vdW  Elec       q    Type
REMARK                         _______ _______ _______ _____ _____    ______ ____
ROOT
ATOM      1  N   UNL     1      -2.941  -3.970   0.395  0.00  0.00    -0.300 N 
ATOM      2  C   UNL     1      -4.232  -4.329   0.251  0.00  0.00    +0.316 C 
ATOM      3  O   UNL     1      -4.770  -5.017   1.097  0.00  0.00    -0.251 OA
ATOM      4  N   UNL     1      -4.927  -3.927  -0.832  0.00  0.00    -0.218 N 
ATOM      5  H   UNL     1      -2.512  -3.421  -0.280  0.00  0.00    +0.150 HD
ATOM      6  H   UNL     1      -5.856  -4.185  -0.935  0.00  0.00    +0.174 HD
ENDROOT
BRANCH   4   7
ATOM      7  N   UNL     1      -4.307  -3.134  -1.807  0.00  0.00    -0.229 N 
ATOM      8  C   UNL     1      -5.002  -2.732  -2.889  0.00  0.00    +0.260 C 
ATOM      9  O   UNL     1      -6.166  -3.056  -3.019  0.00  0.00    -0.269 OA
ATOM     10  H   UNL     1      -3.378  -2.876  -1.703  0.00  0.00    +0.173 HD
BRANCH   8  11
ATOM     11  C   UNL     1      -4.348  -1.895  -3.918  0.00  0.00    +0.040 A 
ATOM     12  C   UNL     1      -3.009  -1.526  -3.775  0.00  0.00    +0.013 A 
ATOM     13  C   UNL     1      -2.405  -0.747  -4.739  0.00  0.00    +0.003 A 
ATOM     14  C   UNL     1      -3.123  -0.330  -5.846  0.00  0.00    +0.033 A 
ATOM     15  C   UNL     1      -4.450  -0.692  -5.995  0.00  0.00    +0.127 A 
ATOM     16  C   UNL     1      -5.064  -1.477  -5.040  0.00  0.00    +0.045 A 
BRANCH  15  17
ATOM     17  N   UNL     1      -5.210  -0.242  -7.182  0.00  0.00    +0.056 N 
ATOM     18  O   UNL     1      -4.671   0.441  -8.021  0.00  0.00    -0.126 OA
ATOM     19  O   UNL     1      -6.370  -0.558  -7.313  0.00  0.00    -0.126 OA
ENDBRANCH  15  17
ENDBRANCH   8  11
ENDBRANCH   4   7
BRANCH   1  20
ATOM     20  C   UNL     1      -2.186  -4.408   1.571  0.00  0.00    +0.091 C 
BRANCH  20  21
ATOM     21  C   UNL     1      -0.822  -3.716   1.588  0.00  0.00    -0.048 C 
BRANCH  21  26
ATOM     22  C   UNL     1      -2.659   1.585   2.611  0.00  0.00    +0.007 C 
ATOM     23  C   UNL     1      -2.606   0.085   2.313  0.00  0.00    -0.018 C 
ATOM     24  C   UNL     1      -1.886  -0.639   3.454  0.00  0.00    -0.016 C 
ATOM     25  C   UNL     1      -1.766  -2.126   3.112  0.00  0.00    -0.078 C 
ATOM     26  N   UNL     1      -1.001  -2.286   1.870  0.00  0.00    +0.383 N 
ATOM     27  C   UNL     1      -1.721  -1.656   0.757  0.00  0.00    -0.078 C 
ATOM     28  C   UNL     1      -1.839  -0.151   1.008  0.00  0.00    -0.016 C 
ATOM     29  H   UNL     1      -0.097  -1.850   1.974  0.00  0.00    -0.081 HD
ENDBRANCH  21  26
BRANCH  21  30
ATOM     30  C   UNL     1       0.055  -4.344   2.673  0.00  0.00    -0.029 C 
ATOM     31  C   UNL     1       0.342  -5.804   2.316  0.00  0.00    +0.005 C 
ATOM     32  C   UNL     1       1.374  -3.575   2.772  0.00  0.00    +0.005 C 
ENDBRANCH  21  30
ENDBRANCH  20  21
ENDBRANCH   1  20
TORSDOF 7
