REMARK  Name = ZINC63573557
REMARK  5 active torsions:
REMARK  status: ('A' for Active; 'I' for Inactive)
REMARK    1  A    between atoms: C_1  and  C_2
REMARK    2  A    between atoms: C_5  and  C_8
REMARK    3  A    between atoms: C_15  and  O_20
REMARK    4  A    between atoms: O_20  and  C_21
REMARK    5  A    between atoms: N_27  and  C_28
REMARK                            x       y       z     vdW  Elec       q    Type
REMARK                         _______ _______ _______ _____ _____    ______ ____
ROOT
ATOM      1  C   UNL     1      -0.457  -4.541   0.682  0.00  0.00    +0.134 C 
ATOM      2  C   UNL     1      -1.575  -5.418   1.256  0.00  0.00    +0.131 C 
ATOM      3  C   UNL     1      -1.076  -6.856   1.192  0.00  0.00    -0.035 C 
ATOM      4  C   UNL     1      -1.981  -7.536   0.499  0.00  0.00    +0.003 A 
ATOM      5  C   UNL     1      -2.091  -8.964   0.162  0.00  0.00    +0.055 A 
ATOM      6  C   UNL     1      -3.163  -9.333  -0.591  0.00  0.00    +0.121 A 
ATOM      7  C   UNL     1      -4.143  -8.440  -1.050  0.00  0.00    +0.047 A 
ATOM      8  C   UNL     1      -4.142  -7.107  -0.795  0.00  0.00    +0.029 A 
ATOM      9  C   UNL     1      -3.032  -6.588   0.016  0.00  0.00    +0.043 A 
ATOM     10  N   UNL     1      -2.787  -5.361   0.436  0.00  0.00    -0.375 N 
ATOM     11  C   UNL     1       0.250  -7.280   1.774  0.00  0.00    +0.052 C 
ATOM     12  C   UNL     1       1.307  -6.304   1.227  0.00  0.00    +0.114 C 
ATOM     13  N   UNL     1       0.803  -4.930   1.334  0.00  0.00    -0.276 N 
ATOM     14  C   UNL     1       1.501  -4.016   2.036  0.00  0.00    +0.307 C 
ATOM     15  O   UNL     1       1.029  -2.914   2.238  0.00  0.00    -0.252 OA
ATOM     16  N   UNL     1       2.723  -4.324   2.516  0.00  0.00    -0.267 N 
ATOM     17  H   UNL     1       3.134  -5.172   2.286  0.00  0.00    +0.156 HD
ATOM     18  H   UNL     1      -3.303  -4.563   0.241  0.00  0.00    +0.160 HD
ENDROOT
BRANCH  16  19
ATOM     19  C   UNL     1       3.399  -3.419   3.346  0.00  0.00    +0.070 A 
ATOM     20  C   UNL     1       3.142  -2.059   3.245  0.00  0.00    +0.029 A 
ATOM     21  C   UNL     1       3.808  -1.168   4.064  0.00  0.00    +0.040 A 
ATOM     22  C   UNL     1       4.733  -1.631   4.986  0.00  0.00    +0.126 A 
ATOM     23  C   UNL     1       4.992  -2.987   5.089  0.00  0.00    +0.078 A 
ATOM     24  C   UNL     1       4.323  -3.883   4.275  0.00  0.00    +0.147 A 
ATOM     25  F   UNL     1       4.571  -5.207   4.379  0.00  0.00    -0.203 F 
ATOM     26  F   UNL     1       5.383  -0.757   5.785  0.00  0.00    -0.205 F 
ENDBRANCH  16  19
BRANCH   1  31
ATOM     27  C   UNL     1      -1.585   1.022   1.765  0.00  0.00    +0.044 C 
ATOM     28  C   UNL     1      -1.291  -0.429   1.483  0.00  0.00    -0.050 A 
ATOM     29  C   UNL     1      -0.686  -0.792   0.295  0.00  0.00    +0.004 A 
ATOM     30  C   UNL     1      -0.415  -2.123   0.035  0.00  0.00    +0.006 A 
ATOM     31  C   UNL     1      -0.751  -3.090   0.965  0.00  0.00    -0.025 A 
ATOM     32  C   UNL     1      -1.355  -2.726   2.154  0.00  0.00    +0.006 A 
ATOM     33  C   UNL     1      -1.621  -1.395   2.414  0.00  0.00    +0.004 A 
ENDBRANCH   1  31
BRANCH   6  34
ATOM     34  O   UNL     1      -3.292 -10.646  -0.919  0.00  0.00    -0.495 OA
ATOM     35  C   UNL     1      -4.425 -11.009  -1.710  0.00  0.00    +0.277 C 
ENDBRANCH   6  34
TORSDOF 3
