REMARK  Name = ZINC23197257
REMARK  13 active torsions:
REMARK  status: ('A' for Active; 'I' for Inactive)
REMARK    1  A    between atoms: C_1  and  C_2
REMARK    2  A    between atoms: C_2  and  N_3
REMARK    3  A    between atoms: N_3  and  C_4
REMARK    4  A    between atoms: N_3  and  C_6
REMARK    5  A    between atoms: C_4  and  C_5
REMARK    6  A    between atoms: C_6  and  C_8
REMARK    7  A    between atoms: C_6  and  C_15
REMARK    8  A    between atoms: C_8  and  C_9
REMARK    9  A    between atoms: C_15  and  N_16
REMARK   10  A    between atoms: C_17  and  C_19
REMARK   11  A    between atoms: C_22  and  C_33
REMARK   12  A    between atoms: C_23  and  N_25
REMARK   13  A    between atoms: C_26  and  C_28
REMARK                            x       y       z     vdW  Elec       q    Type
REMARK                         _______ _______ _______ _____ _____    ______ ____
ROOT
ATOM      1  N   UNL     1       0.396   1.892   0.579  0.00  0.00    -0.313 N 
ATOM      2  C   UNL     1       0.772   0.618   0.807  0.00  0.00    +0.244 C 
ATOM      3  O   UNL     1       1.951   0.320   0.789  0.00  0.00    -0.270 OA
ATOM      4  H   UNL     1      -0.672   2.147   0.514  0.00  0.00    +0.149 HD
ENDROOT
BRANCH   2   5
ATOM      5  C   UNL     1      -0.248  -0.417   1.079  0.00  0.00    +0.038 A 
ATOM      6  C   UNL     1      -1.605  -0.100   0.998  0.00  0.00    +0.013 A 
ATOM      7  C   UNL     1      -2.556  -1.069   1.246  0.00  0.00    +0.006 A 
ATOM      8  C   UNL     1      -2.169  -2.352   1.587  0.00  0.00    -0.029 A 
ATOM      9  C   UNL     1      -0.821  -2.676   1.676  0.00  0.00    +0.037 A 
ATOM     10  C   UNL     1       0.142  -1.711   1.422  0.00  0.00    +0.036 A 
ATOM     11  C   UNL     1      -3.214  -3.403   1.863  0.00  0.00    +0.045 C 
BRANCH   9  12
ATOM     12  N   UNL     1      -0.435  -3.975   2.020  0.00  0.00    -0.279 N 
ATOM     13  C   UNL     1       0.685  -4.508   1.493  0.00  0.00    +0.284 C 
ATOM     14  O   UNL     1       1.406  -3.830   0.784  0.00  0.00    -0.266 OA
ATOM     15  H   UNL     1      -1.046  -4.562   2.722  0.00  0.00    +0.155 HD
BRANCH  13  16
ATOM     16  C   UNL     1       1.035  -5.904   1.772  0.00  0.00    +0.189 A 
ATOM     17  C   UNL     1       2.135  -6.565   1.304  0.00  0.00    +0.054 A 
ATOM     18  C   UNL     1       2.070  -7.870   1.818  0.00  0.00    +0.042 A 
ATOM     19  C   UNL     1       0.948  -7.947   2.567  0.00  0.00    +0.196 A 
ATOM     20  O   UNL     1       0.330  -6.759   2.542  0.00  0.00    -0.458 OA
ENDBRANCH  13  16
ENDBRANCH   9  12
ENDBRANCH   2   5
BRANCH   1  21
ATOM     21  C   UNL     1       1.410   2.938   0.419  0.00  0.00    +0.089 C 
BRANCH  21  22
ATOM     22  C   UNL     1       0.726   4.305   0.354  0.00  0.00    -0.047 C 
BRANCH  22  23
ATOM     23  N   UNL     1       0.041   4.571   1.625  0.00  0.00    +0.382 N 
ATOM     24  H   UNL     1       0.083   5.654   1.812  0.00  0.00    -0.081 HD
BRANCH  23  26
ATOM     25  C   UNL     1      -2.150   5.223   0.746  0.00  0.00    -0.017 C 
ATOM     26  C   UNL     1      -1.373   4.180   1.553  0.00  0.00    -0.082 C 
ENDBRANCH  23  26
BRANCH  23  27
ATOM     27  C   UNL     1       0.717   3.893   2.740  0.00  0.00    -0.082 C 
ATOM     28  C   UNL     1       2.049   4.589   3.027  0.00  0.00    -0.017 C 
ENDBRANCH  23  27
ENDBRANCH  22  23
BRANCH  22  29
ATOM     29  C   UNL     1       1.777   5.389   0.104  0.00  0.00    +0.021 C 
BRANCH  29  30
ATOM     30  C   UNL     1       1.091   6.715  -0.100  0.00  0.00    -0.049 A 
ATOM     31  C   UNL     1       0.617   7.063  -1.351  0.00  0.00    +0.003 A 
ATOM     32  C   UNL     1      -0.016   8.277  -1.537  0.00  0.00    +0.000 A 
ATOM     33  C   UNL     1      -0.166   9.149  -0.475  0.00  0.00    +0.000 A 
ATOM     34  C   UNL     1       0.313   8.804   0.775  0.00  0.00    +0.000 A 
ATOM     35  C   UNL     1       0.942   7.587   0.962  0.00  0.00    +0.003 A 
ENDBRANCH  29  30
ENDBRANCH  22  29
ENDBRANCH  21  22
ENDBRANCH   1  21
TORSDOF 10
