REMARK  Name = ZINC33129905
REMARK  4 active torsions:
REMARK  status: ('A' for Active; 'I' for Inactive)
REMARK    1  A    between atoms: C_4  and  C_7
REMARK    2  A    between atoms: C_7  and  N_8
REMARK    3  A    between atoms: C_17  and  C_18
REMARK    4  A    between atoms: N_20  and  C_21
REMARK                            x       y       z     vdW  Elec       q    Type
REMARK                         _______ _______ _______ _____ _____    ______ ____
ROOT
ATOM      1  N   UNL     1      -2.993   4.114  -1.329  0.00  0.00    -0.293 N 
ATOM      2  C   UNL     1      -2.622   5.260  -1.958  0.00  0.00    +0.203 A 
ATOM      3  N   UNL     1      -2.971   5.534  -3.174  0.00  0.00    -0.234 NA
ATOM      4  C   UNL     1      -3.752   4.697  -3.916  0.00  0.00    +0.117 A 
ATOM      5  C   UNL     1      -4.196   3.480  -3.352  0.00  0.00    +0.163 A 
ATOM      6  C   UNL     1      -3.763   3.204  -1.953  0.00  0.00    +0.281 A 
ATOM      7  O   UNL     1      -4.100   2.180  -1.388  0.00  0.00    -0.265 OA
ATOM      8  N   UNL     1      -4.952   2.690  -4.104  0.00  0.00    -0.203 NA
ATOM      9  S   UNL     1      -5.146   3.389  -5.497  0.00  0.00    +0.019 S 
ATOM     10  C   UNL     1      -4.206   4.876  -5.238  0.00  0.00    +0.120 A 
ENDROOT
BRANCH  10  11
ATOM     11  C   UNL     1      -3.967   5.992  -6.155  0.00  0.00    +0.254 C 
ATOM     12  O   UNL     1      -3.289   6.938  -5.799  0.00  0.00    -0.269 OA
ATOM     13  N   UNL     1      -4.498   5.971  -7.394  0.00  0.00    -0.308 N 
ATOM     14  H   UNL     1      -5.110   5.116  -7.715  0.00  0.00    +0.149 HD
BRANCH  13  15
ATOM     15  C   UNL     1      -4.259   7.088  -8.312  0.00  0.00    +0.073 C 
ATOM     16  C   UNL     1      -5.285   8.192  -8.049  0.00  0.00    +0.022 C 
ATOM     17  C   UNL     1      -5.035   9.358  -9.008  0.00  0.00    +0.002 C 
ATOM     18  C   UNL     1      -5.170   8.869 -10.452  0.00  0.00    +0.000 C 
ATOM     19  C   UNL     1      -4.144   7.765 -10.714  0.00  0.00    +0.002 C 
ATOM     20  C   UNL     1      -4.394   6.599  -9.755  0.00  0.00    +0.022 C 
ENDBRANCH  13  15
ENDBRANCH  10  11
BRANCH   1  21
ATOM     21  C   UNL     1      -2.553   3.869   0.047  0.00  0.00    +0.161 C 
BRANCH  21  25
ATOM     22  C   UNL     1       1.175   1.783   0.000  0.00  0.00    +0.000 A 
ATOM     23  C   UNL     1      -0.013   1.076   0.008  0.00  0.00    +0.000 A 
ATOM     24  C   UNL     1      -1.219   1.751   0.017  0.00  0.00    +0.005 A 
ATOM     25  C   UNL     1      -1.238   3.133   0.030  0.00  0.00    -0.028 A 
ATOM     26  C   UNL     1      -0.050   3.840   0.022  0.00  0.00    +0.005 A 
ATOM     27  C   UNL     1       1.156   3.165   0.008  0.00  0.00    +0.000 A 
ENDBRANCH  21  25
ENDBRANCH   1  21
TORSDOF 4
