REMARK  Name = ZINC35141073
REMARK  15 active torsions:
REMARK  status: ('A' for Active; 'I' for Inactive)
REMARK    1  A    between atoms: C_1  and  C_2
REMARK    2  A    between atoms: C_5  and  N_9
REMARK    3  A    between atoms: C_6  and  C_8
REMARK    4  A    between atoms: C_10  and  N_18
REMARK    5  A    between atoms: C_12  and  C_14
REMARK    6  A    between atoms: C_14  and  C_15
REMARK    7  A    between atoms: C_14  and  C_16
REMARK    8  A    between atoms: C_14  and  C_17
REMARK    9  A    between atoms: C_19  and  C_21
REMARK   10  A    between atoms: C_21  and  N_22
REMARK   11  A    between atoms: N_22  and  C_23
REMARK   12  A    between atoms: C_23  and  C_24
REMARK   13  A    between atoms: N_31  and  C_32
REMARK   14  A    between atoms: C_35  and  O_38
REMARK   15  A    between atoms: O_38  and  C_39
REMARK                            x       y       z     vdW  Elec       q    Type
REMARK                         _______ _______ _______ _____ _____    ______ ____
ROOT
ATOM      1  N   UNL     1      -0.013  -4.745  -1.981  0.00  0.00    -0.269 N 
ATOM      2  C   UNL     1      -0.121  -5.481  -3.105  0.00  0.00    +0.236 C 
ATOM      3  O   UNL     1      -0.223  -6.687  -3.033  0.00  0.00    -0.274 OA
ATOM      4  H   UNL     1       0.068  -3.780  -2.039  0.00  0.00    +0.156 HD
ENDROOT
BRANCH   1   6
ATOM      5  N   UNL     1      -0.036  -4.751   0.477  0.00  0.00    -0.218 N 
ATOM      6  C   UNL     1      -0.019  -5.370  -0.735  0.00  0.00    +0.129 A 
ATOM      7  C   UNL     1      -0.009  -6.712  -0.507  0.00  0.00    +0.069 A 
ATOM      8  C   UNL     1      -0.020  -6.913   0.876  0.00  0.00    +0.071 A 
ATOM      9  N   UNL     1      -0.030  -5.745   1.465  0.00  0.00    -0.169 NA
BRANCH   5  14
ATOM     10  C   UNL     1      -0.098   0.853   1.369  0.00  0.00    +0.044 C 
ATOM     11  C   UNL     1      -0.082  -0.635   1.132  0.00  0.00    -0.050 A 
ATOM     12  C   UNL     1       0.825  -1.182   0.243  0.00  0.00    +0.005 A 
ATOM     13  C   UNL     1       0.843  -2.546   0.024  0.00  0.00    +0.028 A 
ATOM     14  C   UNL     1      -0.051  -3.367   0.698  0.00  0.00    +0.070 A 
ATOM     15  C   UNL     1      -0.960  -2.815   1.590  0.00  0.00    -0.025 A 
ATOM     16  C   UNL     1      -0.969  -1.451   1.808  0.00  0.00    +0.008 A 
ATOM     17  C   UNL     1      -1.932  -3.703   2.323  0.00  0.00    +0.046 C 
ENDBRANCH   5  14
BRANCH   8  18
ATOM     18  C   UNL     1      -0.014  -8.250   1.572  0.00  0.00    +0.006 C 
ATOM     19  C   UNL     1       1.385  -8.862   1.489  0.00  0.00    +0.017 C 
ATOM     20  C   UNL     1      -0.403  -8.063   3.039  0.00  0.00    +0.017 C 
ATOM     21  C   UNL     1      -1.020  -9.182   0.893  0.00  0.00    +0.017 C 
ENDBRANCH   8  18
ENDBRANCH   1   6
BRANCH   2  22
ATOM     22  C   UNL     1      -0.115  -4.804  -4.452  0.00  0.00    +0.205 C 
BRANCH  22  23
ATOM     23  N   UNL     1      -0.244  -5.814  -5.505  0.00  0.00    -0.269 N 
ATOM     24  C   UNL     1       0.858  -6.379  -6.036  0.00  0.00    +0.307 C 
ATOM     25  O   UNL     1       1.960  -6.051  -5.639  0.00  0.00    -0.252 OA
ATOM     26  N   UNL     1       0.740  -7.308  -7.005  0.00  0.00    -0.269 N 
ATOM     27  H   UNL     1      -0.139  -7.625  -7.269  0.00  0.00    +0.156 HD
BRANCH  26  28
ATOM     28  C   UNL     1       1.885  -7.816  -7.633  0.00  0.00    +0.035 A 
ATOM     29  C   UNL     1       1.910  -9.132  -8.074  0.00  0.00    +0.027 A 
ATOM     30  C   UNL     1       3.038  -9.632  -8.693  0.00  0.00    +0.047 A 
ATOM     31  C   UNL     1       4.148  -8.819  -8.874  0.00  0.00    +0.120 A 
ATOM     32  C   UNL     1       4.124  -7.504  -8.433  0.00  0.00    +0.047 A 
ATOM     33  C   UNL     1       2.994  -7.001  -7.819  0.00  0.00    +0.027 A 
BRANCH  31  34
ATOM     34  O   UNL     1       5.259  -9.312  -9.483  0.00  0.00    -0.495 OA
ATOM     35  C   UNL     1       6.364  -8.419  -9.637  0.00  0.00    +0.277 C 
ENDBRANCH  31  34
ENDBRANCH  26  28
BRANCH  23  36
ATOM     36  C   UNL     1      -1.572  -6.209  -5.983  0.00  0.00    +0.184 C 
BRANCH  36  37
ATOM     37  C   UNL     1      -1.977  -5.322  -7.132  0.00  0.00    +0.122 A 
ATOM     38  C   UNL     1      -1.733  -5.560  -8.433  0.00  0.00    +0.046 A 
ATOM     39  C   UNL     1      -2.284  -4.478  -9.158  0.00  0.00    +0.041 A 
ATOM     40  C   UNL     1      -2.832  -3.644  -8.256  0.00  0.00    +0.195 A 
ATOM     41  O   UNL     1      -2.647  -4.163  -7.031  0.00  0.00    -0.466 OA
ENDBRANCH  36  37
ENDBRANCH  23  36
ENDBRANCH  22  23
ENDBRANCH   2  22
TORSDOF 9
