REMARK  Name = ZINC15670278
REMARK  5 active torsions:
REMARK  status: ('A' for Active; 'I' for Inactive)
REMARK    1  A    between atoms: C_1  and  C_2
REMARK    2  A    between atoms: C_2  and  C_3
REMARK    3  A    between atoms: C_6  and  C_9
REMARK    4  A    between atoms: C_17  and  C_32
REMARK    5  A    between atoms: C_22  and  C_26
REMARK                            x       y       z     vdW  Elec       q    Type
REMARK                         _______ _______ _______ _____ _____    ______ ____
ROOT
ATOM      1  C   UNL     1      -2.718   2.950   4.762  0.00  0.00    +0.063 C 
ATOM      2  C   UNL     1      -3.374   4.305   4.484  0.00  0.00    +0.109 C 
ATOM      3  C   UNL     1      -2.356   5.410   4.464  0.00  0.00    +0.219 C 
ATOM      4  O   UNL     1      -2.470   6.300   3.648  0.00  0.00    -0.275 OA
ATOM      5  N   UNL     1      -1.319   5.443   5.327  0.00  0.00    -0.270 N 
ATOM      6  C   UNL     1      -1.078   4.313   6.107  0.00  0.00    +0.136 A 
ATOM      7  C   UNL     1      -1.720   3.126   5.879  0.00  0.00    +0.023 A 
ATOM      8  C   UNL     1      -1.278   2.211   6.825  0.00  0.00    +0.066 A 
ATOM      9  N   UNL     1      -0.400   2.807   7.596  0.00  0.00    -0.167 NA
ATOM     10  N   UNL     1      -0.252   4.135   7.161  0.00  0.00    -0.182 N 
ATOM     11  C   UNL     1       0.593   5.094   7.716  0.00  0.00    +0.273 A 
ATOM     12  N   UNL     1       1.351   4.775   8.755  0.00  0.00    -0.208 NA
ATOM     13  C   UNL     1       2.158   5.695   9.282  0.00  0.00    +0.095 A 
ATOM     14  C   UNL     1       2.175   6.973   8.715  0.00  0.00    +0.163 A 
ATOM     15  N   UNL     1       1.395   7.228   7.680  0.00  0.00    -0.152 NA
ATOM     16  N   UNL     1       0.633   6.312   7.194  0.00  0.00    -0.109 NA
ATOM     17  C   UNL     1      -1.730   0.779   6.945  0.00  0.00    +0.068 C 
ATOM     18  H   UNL     1      -0.757   6.230   5.403  0.00  0.00    +0.156 HD
ENDROOT
BRANCH   1  22
ATOM     19  C   UNL     1      -0.718   1.572   1.248  0.00  0.00    -0.048 A 
ATOM     20  C   UNL     1      -0.360   2.779   1.819  0.00  0.00    +0.004 A 
ATOM     21  C   UNL     1      -1.010   3.227   2.954  0.00  0.00    +0.004 A 
ATOM     22  C   UNL     1      -2.012   2.463   3.523  0.00  0.00    -0.039 A 
ATOM     23  C   UNL     1      -2.366   1.254   2.955  0.00  0.00    +0.004 A 
ATOM     24  C   UNL     1      -1.719   0.808   1.818  0.00  0.00    +0.004 A 
BRANCH  19  26
ATOM     25  C   UNL     1      -0.753   1.593  -1.232  0.00  0.00    +0.009 C 
ATOM     26  C   UNL     1      -0.013   1.086   0.008  0.00  0.00    +0.032 C 
ENDBRANCH  19  26
ENDBRANCH   1  22
BRANCH  13  27
ATOM     27  C   UNL     1       3.018   5.370  10.445  0.00  0.00    +0.002 A 
ATOM     28  C   UNL     1       3.065   4.068  10.939  0.00  0.00    +0.010 A 
ATOM     29  C   UNL     1       3.873   3.771  12.018  0.00  0.00    +0.001 A 
ATOM     30  C   UNL     1       4.626   4.765  12.616  0.00  0.00    +0.000 A 
ATOM     31  C   UNL     1       4.579   6.061  12.134  0.00  0.00    +0.001 A 
ATOM     32  C   UNL     1       3.779   6.368  11.052  0.00  0.00    +0.010 A 
ENDBRANCH  13  27
TORSDOF 3
