REMARK  Name = ZINC65451357
REMARK  7 active torsions:
REMARK  status: ('A' for Active; 'I' for Inactive)
REMARK    1  A    between atoms: C_1  and  C_2
REMARK    2  A    between atoms: C_2  and  C_3
REMARK    3  A    between atoms: C_2  and  C_4
REMARK    4  A    between atoms: C_2  and  C_5
REMARK    5  A    between atoms: C_7  and  C_11
REMARK    6  A    between atoms: C_21  and  C_25
REMARK    7  A    between atoms: N_23  and  C_24
REMARK                            x       y       z     vdW  Elec       q    Type
REMARK                         _______ _______ _______ _____ _____    ______ ____
ROOT
ATOM      1  C   UNL     1       1.157  -0.480  -4.549  0.00  0.00    +0.040 C 
ATOM      2  C   UNL     1       1.281   0.982  -4.993  0.00  0.00    +0.102 C 
ATOM      3  C   UNL     1       2.043   1.165  -6.270  0.00  0.00    +0.215 C 
ATOM      4  O   UNL     1       2.743   2.147  -6.395  0.00  0.00    -0.276 OA
ATOM      5  N   UNL     1       1.981   0.269  -7.297  0.00  0.00    -0.295 N 
ATOM      6  C   UNL     1       1.253  -0.950  -6.965  0.00  0.00    +0.187 C 
ATOM      7  C   UNL     1       1.832  -1.360  -5.573  0.00  0.00    +0.085 C 
ATOM      8  C   UNL     1       1.559  -2.828  -5.552  0.00  0.00    +0.073 C 
ATOM      9  N   UNL     1       1.408  -3.222  -6.789  0.00  0.00    -0.187 NA
ATOM     10  N   UNL     1       1.549  -2.155  -7.733  0.00  0.00    -0.237 N 
ATOM     11  C   UNL     1       1.913  -2.242  -9.149  0.00  0.00    +0.154 C 
ATOM     12  H   UNL     1       2.383   0.428  -8.165  0.00  0.00    +0.151 HD
ENDROOT
BRANCH   8  13
ATOM     13  C   UNL     1       1.475  -3.680  -4.351  0.00  0.00    -0.002 A 
ATOM     14  C   UNL     1       0.234  -3.960  -3.775  0.00  0.00    +0.010 A 
ATOM     15  C   UNL     1       0.163  -4.758  -2.652  0.00  0.00    +0.001 A 
ATOM     16  C   UNL     1       1.317  -5.281  -2.096  0.00  0.00    +0.000 A 
ATOM     17  C   UNL     1       2.550  -5.007  -2.661  0.00  0.00    +0.001 A 
ATOM     18  C   UNL     1       2.636  -4.215  -3.787  0.00  0.00    +0.010 A 
ENDBRANCH   8  13
BRANCH   1  21
ATOM     19  C   UNL     1       0.746  -0.448  -1.233  0.00  0.00    +0.067 C 
ATOM     20  C   UNL     1       1.284   0.327  -2.178  0.00  0.00    +0.027 C 
ATOM     21  C   UNL     1       1.835  -0.662  -3.190  0.00  0.00    +0.157 C 
ATOM     22  N   UNL     1       1.488  -1.967  -2.601  0.00  0.00    -0.180 NA
ATOM     23  N   UNL     1       0.903  -1.755  -1.536  0.00  0.00    -0.158 NA
BRANCH  19  25
ATOM     24  C   UNL     1       0.077   1.597   0.001  0.00  0.00    +0.017 C 
ATOM     25  C   UNL     1       0.060   0.067   0.007  0.00  0.00    +0.006 C 
ATOM     26  C   UNL     1       0.796  -0.447   1.246  0.00  0.00    +0.017 C 
ATOM     27  C   UNL     1      -1.387  -0.427   0.032  0.00  0.00    +0.017 C 
ENDBRANCH  19  25
ENDBRANCH   1  21
TORSDOF 3
