REMARK  Name = ZINC09403377
REMARK  16 active torsions:
REMARK  status: ('A' for Active; 'I' for Inactive)
REMARK    1  A    between atoms: C_1  and  C_2
REMARK    2  A    between atoms: C_2  and  N_73
REMARK    3  A    between atoms: C_3  and  C_4
REMARK    4  A    between atoms: C_3  and  N_73
REMARK    5  A    between atoms: C_5  and  C_6
REMARK    6  A    between atoms: C_5  and  N_73
REMARK    7  A    between atoms: C_6  and  C_7
REMARK    8  A    between atoms: C_7  and  N_8
REMARK    9  A    between atoms: C_9  and  C_29
REMARK   10  A    between atoms: C_12  and  C_13
REMARK   11  A    between atoms: C_12  and  O_24
REMARK   12  A    between atoms: C_20  and  C_23
REMARK   13  A    between atoms: C_32  and  O_37
REMARK   14  A    between atoms: C_33  and  O_35
REMARK   15  A    between atoms: O_35  and  C_36
REMARK   16  A    between atoms: O_37  and  C_38
REMARK                            x       y       z     vdW  Elec       q    Type
REMARK                         _______ _______ _______ _____ _____    ______ ____
ROOT
ATOM      1  N   UNL     1       3.061   2.776   0.754  0.00  0.00    -0.284 N 
ATOM      2  C   UNL     1       2.376   3.832   0.003  0.00  0.00    +0.145 C 
ATOM      3  C   UNL     1       2.828   3.704  -1.433  0.00  0.00    +0.071 C 
ATOM      4  C   UNL     1       2.439   4.492  -2.500  0.00  0.00    +0.133 C 
ATOM      5  C   UNL     1       3.722   2.623  -1.466  0.00  0.00    +0.249 C 
ATOM      6  O   UNL     1       4.302   2.206  -2.452  0.00  0.00    -0.282 OA
ATOM      7  C   UNL     1       3.839   2.075  -0.088  0.00  0.00    +0.288 C 
ATOM      8  O   UNL     1       4.535   1.133   0.230  0.00  0.00    -0.266 OA
ENDROOT
BRANCH   4   9
ATOM      9  C   UNL     1       3.085   4.326  -3.811  0.00  0.00    +0.017 A 
ATOM     10  C   UNL     1       4.481   4.338  -3.917  0.00  0.00    +0.015 A 
ATOM     11  C   UNL     1       5.082   4.174  -5.141  0.00  0.00    +0.046 A 
ATOM     12  C   UNL     1       4.310   4.006  -6.292  0.00  0.00    +0.124 A 
ATOM     13  C   UNL     1       2.921   4.008  -6.184  0.00  0.00    -0.002 A 
ATOM     14  C   UNL     1       2.309   4.162  -4.965  0.00  0.00    +0.019 A 
ATOM     15  C   UNL     1       2.367   3.833  -7.584  0.00  0.00    +0.083 C 
ATOM     16  C   UNL     1       3.606   4.140  -8.459  0.00  0.00    +0.175 C 
ATOM     17  O   UNL     1       4.700   3.826  -7.582  0.00  0.00    -0.488 OA
ATOM     18  C   UNL     1       3.629   3.244  -9.698  0.00  0.00    +0.052 C 
ENDBRANCH   4   9
BRANCH   2  19
ATOM     19  C   UNL     1       0.884   3.645   0.093  0.00  0.00    -0.019 A 
ATOM     20  C   UNL     1       0.342   2.374   0.022  0.00  0.00    +0.009 A 
ATOM     21  C   UNL     1      -1.026   2.197   0.104  0.00  0.00    +0.050 A 
ATOM     22  C   UNL     1      -1.859   3.295   0.252  0.00  0.00    +0.162 A 
ATOM     23  C   UNL     1      -1.314   4.573   0.329  0.00  0.00    +0.162 A 
ATOM     24  C   UNL     1       0.059   4.743   0.246  0.00  0.00    +0.055 A 
BRANCH  23  25
ATOM     25  O   UNL     1      -2.127   5.652   0.480  0.00  0.00    -0.491 OA
ATOM     26  C   UNL     1      -1.498   6.934   0.546  0.00  0.00    +0.277 C 
ENDBRANCH  23  25
BRANCH  22  27
ATOM     27  O   UNL     1      -3.206   3.123   0.327  0.00  0.00    -0.491 OA
ATOM     28  C   UNL     1      -3.694   1.782   0.247  0.00  0.00    +0.277 C 
ENDBRANCH  22  27
ENDBRANCH   2  19
BRANCH   4  29
ATOM     29  O   UNL     1       1.466   5.413  -2.338  0.00  0.00    -0.506 OA
ATOM     30  H   UNL     1       1.311   5.890  -3.204  0.00  0.00    +0.292 HD
ENDBRANCH   4  29
BRANCH   1  31
ATOM     31  C   UNL     1       2.919   2.525   2.191  0.00  0.00    +0.107 C 
BRANCH  31  32
ATOM     32  C   UNL     1       1.774   1.538   2.425  0.00  0.00    +0.000 C 
BRANCH  32  33
ATOM     33  C   UNL     1       1.626   1.276   3.925  0.00  0.00    -0.077 C 
BRANCH  33  34
ATOM     34  N   UNL     1       0.430   0.435   4.143  0.00  0.00    +0.379 N 
ATOM     35  H   UNL     1      -0.329   0.772   3.539  0.00  0.00    -0.082 HD
BRANCH  34  37
ATOM     36  C   UNL     1      -0.573  -1.772   3.816  0.00  0.00    -0.017 C 
ATOM     37  C   UNL     1       0.730  -0.970   3.798  0.00  0.00    -0.082 C 
ENDBRANCH  34  37
BRANCH  34  38
ATOM     38  C   UNL     1      -0.002   0.528   5.554  0.00  0.00    -0.082 C 
ATOM     39  C   UNL     1      -0.733   1.856   5.757  0.00  0.00    -0.017 C 
ENDBRANCH  34  38
ENDBRANCH  33  34
ENDBRANCH  32  33
ENDBRANCH  31  32
ENDBRANCH   1  31
TORSDOF 11
