REMARK  Name = ZINC34758971
REMARK  8 active torsions:
REMARK  status: ('A' for Active; 'I' for Inactive)
REMARK    1  A    between atoms: C_1  and  C_2
REMARK    2  A    between atoms: C_3  and  C_35
REMARK    3  A    between atoms: C_7  and  N_20
REMARK    4  A    between atoms: C_9  and  S_11
REMARK    5  A    between atoms: S_11  and  C_12
REMARK    6  A    between atoms: C_12  and  C_13
REMARK    7  A    between atoms: N_23  and  C_26
REMARK    8  A    between atoms: C_26  and  C_27
REMARK                            x       y       z     vdW  Elec       q    Type
REMARK                         _______ _______ _______ _____ _____    ______ ____
ROOT
ATOM      1  C   UNL     1       2.883   1.002   2.839  0.00  0.00    +0.045 C 
ATOM      2  C   UNL     1       2.628  -0.457   2.562  0.00  0.00    -0.028 A 
ATOM      3  C   UNL     1       3.650  -1.288   2.311  0.00  0.00    -0.008 A 
ATOM      4  S   UNL     1       2.854  -2.862   2.055  0.00  0.00    -0.073 S 
ATOM      5  C   UNL     1       1.169  -2.362   2.293  0.00  0.00    +0.115 A 
ATOM      6  C   UNL     1       1.273  -0.981   2.571  0.00  0.00    +0.051 A 
ATOM      7  C   UNL     1       0.042  -0.311   2.813  0.00  0.00    +0.134 A 
ATOM      8  N   UNL     1      -1.088  -0.996   2.769  0.00  0.00    -0.206 NA
ATOM      9  C   UNL     1      -1.114  -2.298   2.506  0.00  0.00    +0.191 A 
ATOM     10  N   UNL     1       0.001  -2.973   2.264  0.00  0.00    -0.215 NA
ATOM     11  C   UNL     1       5.122  -0.967   2.257  0.00  0.00    +0.052 C 
ENDROOT
BRANCH   7  12
ATOM     12  N   UNL     1       0.027   1.044   3.091  0.00  0.00    -0.318 N 
ATOM     13  C   UNL     1      -0.219   2.031   2.029  0.00  0.00    +0.088 C 
ATOM     14  C   UNL     1      -1.319   2.988   2.500  0.00  0.00    -0.059 C 
ATOM     15  N   UNL     1      -0.939   3.571   3.793  0.00  0.00    +0.387 N 
ATOM     16  C   UNL     1      -0.867   2.518   4.814  0.00  0.00    -0.059 C 
ATOM     17  C   UNL     1       0.250   1.538   4.458  0.00  0.00    +0.088 C 
ATOM     18  H   UNL     1      -0.039   4.017   3.707  0.00  0.00    -0.081 HD
BRANCH  15  19
ATOM     19  C   UNL     1      -1.941   4.569   4.191  0.00  0.00    +0.019 C 
BRANCH  19  20
ATOM     20  C   UNL     1      -1.491   5.255   5.455  0.00  0.00    +0.199 C 
ATOM     21  O   UNL     1      -0.439   4.943   5.973  0.00  0.00    -0.278 OA
ATOM     22  N   UNL     1      -2.257   6.215   6.010  0.00  0.00    -0.303 N 
ATOM     23  C   UNL     1      -3.536   6.600   5.397  0.00  0.00    +0.107 C 
ATOM     24  C   UNL     1      -4.639   6.500   6.456  0.00  0.00    +0.019 C 
ATOM     25  C   UNL     1      -4.248   7.340   7.674  0.00  0.00    +0.003 C 
ATOM     26  C   UNL     1      -2.950   6.795   8.276  0.00  0.00    +0.019 C 
ATOM     27  C   UNL     1      -1.831   6.894   7.242  0.00  0.00    +0.107 C 
ENDBRANCH  19  20
ENDBRANCH  15  19
ENDBRANCH   7  12
BRANCH   9  28
ATOM     28  S   UNL     1      -2.661  -3.140   2.466  0.00  0.00    -0.081 S 
BRANCH  28  29
ATOM     29  C   UNL     1      -2.216  -4.856   2.078  0.00  0.00    +0.112 C 
BRANCH  29  30
ATOM     30  C   UNL     1      -3.465  -5.696   2.013  0.00  0.00    -0.037 A 
ATOM     31  C   UNL     1      -3.942  -6.316   3.154  0.00  0.00    +0.006 A 
ATOM     32  C   UNL     1      -5.087  -7.087   3.095  0.00  0.00    +0.020 A 
ATOM     33  C   UNL     1      -5.757  -7.239   1.894  0.00  0.00    +0.041 A 
ATOM     34  C   UNL     1      -5.280  -6.619   0.753  0.00  0.00    +0.020 A 
ATOM     35  C   UNL     1      -4.138  -5.843   0.814  0.00  0.00    +0.006 A 
ATOM     36 CL   UNL     1      -7.196  -8.207   1.819  0.00  0.00    -0.084 Cl
ENDBRANCH  29  30
ENDBRANCH  28  29
ENDBRANCH   9  28
TORSDOF 6
