REMARK  Name = ZINC13499374
REMARK  11 active torsions:
REMARK  status: ('A' for Active; 'I' for Inactive)
REMARK    1  A    between atoms: C_1  and  C_2
REMARK    2  A    between atoms: C_2  and  C_3
REMARK    3  A    between atoms: C_3  and  C_4
REMARK    4  A    between atoms: C_4  and  C_6
REMARK    5  A    between atoms: C_4  and  N_76
REMARK    6  A    between atoms: N_10  and  C_11
REMARK    7  A    between atoms: C_17  and  C_18
REMARK    8  A    between atoms: C_17  and  N_76
REMARK    9  A    between atoms: C_23  and  O_30
REMARK   10  A    between atoms: O_30  and  C_31
REMARK   11  A    between atoms: C_32  and  N_76
REMARK                            x       y       z     vdW  Elec       q    Type
REMARK                         _______ _______ _______ _____ _____    ______ ____
ROOT
ATOM      1  N   UNL     1       2.181   1.215   8.935  0.00  0.00    +0.391 N 
ATOM      2  H   UNL     1       2.880   1.491   8.236  0.00  0.00    -0.080 HD
ENDROOT
BRANCH   1   3
ATOM      3  C   UNL     1       1.405   2.408   9.335  0.00  0.00    -0.067 C 
ATOM      4  C   UNL     1       0.611   2.127  10.613  0.00  0.00    -0.015 C 
ATOM      5  C   UNL     1      -0.176   3.378  11.009  0.00  0.00    -0.002 C 
ATOM      6  C   UNL     1      -1.140   3.753   9.881  0.00  0.00    -0.000 C 
ATOM      7  C   UNL     1      -0.345   4.034   8.604  0.00  0.00    -0.002 C 
ATOM      8  C   UNL     1       0.442   2.783   8.208  0.00  0.00    -0.015 C 
ENDBRANCH   1   3
BRANCH   1   9
ATOM      9  C   UNL     1       2.875   0.646  10.110  0.00  0.00    +0.003 C 
BRANCH   9  10
ATOM     10  C   UNL     1       3.208   1.751  11.080  0.00  0.00    +0.138 A 
ATOM     11  N   UNL     1       3.633   2.954  10.780  0.00  0.00    -0.115 NA
ATOM     12  N   UNL     1       3.803   3.602  11.880  0.00  0.00    -0.023 NA
ATOM     13  N   UNL     1       3.497   2.843  12.875  0.00  0.00    -0.044 NA
ATOM     14  N   UNL     1       3.120   1.695  12.422  0.00  0.00    -0.228 N 
BRANCH  14  15
ATOM     15  C   UNL     1       2.683   0.546  13.219  0.00  0.00    +0.111 C 
ATOM     16  C   UNL     1       1.452   0.935  14.040  0.00  0.00    +0.027 C 
ATOM     17  C   UNL     1       0.995  -0.265  14.872  0.00  0.00    +0.002 C 
ATOM     18  C   UNL     1       2.123  -0.692  15.814  0.00  0.00    +0.000 C 
ATOM     19  C   UNL     1       3.353  -1.080  14.992  0.00  0.00    +0.002 C 
ATOM     20  C   UNL     1       3.810   0.119  14.160  0.00  0.00    +0.027 C 
ENDBRANCH  14  15
ENDBRANCH   9  10
BRANCH   9  21
ATOM     21  C   UNL     1       4.167  -0.022   9.636  0.00  0.00    -0.008 C 
BRANCH  21  23
ATOM     22  C   UNL     1       5.108  -1.863   8.232  0.00  0.00    +0.004 C 
ATOM     23  C   UNL     1       3.833  -1.104   8.606  0.00  0.00    -0.005 C 
ENDBRANCH  21  23
ENDBRANCH   9  21
ENDBRANCH   1   9
BRANCH   1  24
ATOM     24  C   UNL     1       1.281   0.204   8.341  0.00  0.00    -0.036 C 
BRANCH  24  25
ATOM     25  C   UNL     1       0.261  -0.254   9.351  0.00  0.00    +0.001 A 
ATOM     26  C   UNL     1      -0.973   0.310   9.369  0.00  0.00    +0.017 A 
ATOM     27  C   UNL     1      -1.941  -0.157  10.361  0.00  0.00    -0.001 A 
ATOM     28  C   UNL     1      -3.229   0.388  10.427  0.00  0.00    +0.013 A 
ATOM     29  C   UNL     1      -4.112  -0.071  11.360  0.00  0.00    +0.046 A 
ATOM     30  C   UNL     1      -3.739  -1.072  12.256  0.00  0.00    +0.122 A 
ATOM     31  C   UNL     1      -2.471  -1.624  12.207  0.00  0.00    +0.072 A 
ATOM     32  C   UNL     1      -1.560  -1.173  11.261  0.00  0.00    +0.053 A 
ATOM     33  N   UNL     1      -0.289  -1.704  11.190  0.00  0.00    -0.322 N 
ATOM     34  H   UNL     1      -0.028  -2.403  11.810  0.00  0.00    +0.169 HD
ATOM     35  C   UNL     1       0.593  -1.268  10.274  0.00  0.00    +0.251 A 
ATOM     36  O   UNL     1       1.707  -1.760  10.240  0.00  0.00    -0.268 OA
BRANCH  30  37
ATOM     37  O   UNL     1      -4.630  -1.513  13.181  0.00  0.00    -0.495 OA
ATOM     38  C   UNL     1      -5.922  -0.904  13.179  0.00  0.00    +0.277 C 
ENDBRANCH  30  37
ENDBRANCH  24  25
ENDBRANCH   1  24
TORSDOF 9
