REMARK  Name = ZINC02295182
REMARK  10 active torsions:
REMARK  status: ('A' for Active; 'I' for Inactive)
REMARK    1  A    between atoms: C_1  and  C_2
REMARK    2  A    between atoms: C_2  and  O_3
REMARK    3  A    between atoms: O_3  and  C_4
REMARK    4  A    between atoms: C_4  and  C_6
REMARK    5  A    between atoms: C_10  and  N_11
REMARK    6  A    between atoms: C_12  and  C_34
REMARK    7  A    between atoms: C_14  and  C_17
REMARK    8  A    between atoms: C_15  and  C_16
REMARK    9  A    between atoms: N_24  and  C_27
REMARK   10  A    between atoms: C_31  and  C_33
REMARK                            x       y       z     vdW  Elec       q    Type
REMARK                         _______ _______ _______ _____ _____    ______ ____
ROOT
ATOM      1  N   UNL     1       5.835   2.082  -0.128  0.00  0.00    -0.311 N 
ATOM      2  C   UNL     1       5.411   1.115  -1.000  0.00  0.00    +0.022 A 
ATOM      3  C   UNL     1       4.071   1.051  -0.972  0.00  0.00    +0.031 A 
ATOM      4  C   UNL     1       3.625   2.070  -0.009  0.00  0.00    -0.003 A 
ATOM      5  C   UNL     1       4.780   2.665   0.475  0.00  0.00    +0.029 A 
ATOM      6  C   UNL     1       4.844   3.771   1.497  0.00  0.00    +0.064 C 
ATOM      7  C   UNL     1       6.309   0.254  -1.851  0.00  0.00    +0.064 C 
ENDROOT
BRANCH   4   8
ATOM      8  C   UNL     1       2.291   2.376   0.353  0.00  0.00    +0.028 C 
ATOM      9  C   UNL     1       1.320   2.506  -0.627  0.00  0.00    +0.100 C 
ATOM     10  C   UNL     1       1.671   2.540  -2.059  0.00  0.00    +0.257 C 
ATOM     11  O   UNL     1       2.829   2.453  -2.421  0.00  0.00    -0.270 OA
ATOM     12  N   UNL     1       0.672   2.669  -2.957  0.00  0.00    -0.235 N 
ATOM     13  C   UNL     1      -0.607   2.771  -2.572  0.00  0.00    +0.320 C 
ATOM     14  O   UNL     1      -1.459   2.891  -3.430  0.00  0.00    -0.251 OA
ATOM     15  N   UNL     1      -0.999   2.742  -1.290  0.00  0.00    -0.190 N 
ATOM     16  C   UNL     1      -0.109   2.617  -0.283  0.00  0.00    +0.263 C 
ATOM     17  O   UNL     1      -0.477   2.596   0.876  0.00  0.00    -0.269 OA
ATOM     18  H   UNL     1       0.886   2.693  -3.903  0.00  0.00    +0.159 HD
BRANCH  15  19
ATOM     19  C   UNL     1      -2.363   2.849  -0.988  0.00  0.00    +0.046 A 
ATOM     20  C   UNL     1      -2.860   4.015  -0.420  0.00  0.00    +0.024 A 
ATOM     21  C   UNL     1      -4.206   4.120  -0.128  0.00  0.00    +0.002 A 
ATOM     22  C   UNL     1      -5.056   3.062  -0.392  0.00  0.00    +0.003 A 
ATOM     23  C   UNL     1      -4.564   1.898  -0.953  0.00  0.00    -0.049 A 
ATOM     24  C   UNL     1      -3.220   1.789  -1.252  0.00  0.00    +0.027 A 
ATOM     25  C   UNL     1      -5.494   0.748  -1.239  0.00  0.00    +0.044 C 
ENDBRANCH  15  19
ENDBRANCH   4   8
BRANCH   1  30
ATOM     26  C   UNL     1       8.094   1.754   0.893  0.00  0.00    +0.093 A 
ATOM     27  C   UNL     1       9.432   2.315   0.967  0.00  0.00    -0.021 A 
ATOM     28  C   UNL     1       9.625   3.439   0.243  0.00  0.00    -0.004 A 
ATOM     29  S   UNL     1       8.065   3.752  -0.532  0.00  0.00    -0.075 S 
ATOM     30  C   UNL     1       7.164   2.415   0.103  0.00  0.00    +0.099 A 
ATOM     31  C   UNL     1      10.890   4.233   0.128  0.00  0.00    +0.043 C 
ATOM     32  C   UNL     1      11.841   3.793   1.251  0.00  0.00    +0.005 C 
ATOM     33  C   UNL     1      11.893   2.263   1.282  0.00  0.00    +0.005 C 
ATOM     34  C   UNL     1      10.562   1.707   1.789  0.00  0.00    +0.037 C 
BRANCH  26  35
ATOM     35  C   UNL     1       7.739   0.536   1.626  0.00  0.00    +0.342 C 
ATOM     36  O   UNL     1       7.781  -0.544   1.068  0.00  0.00    -0.245 OA
BRANCH  35  37
ATOM     37  O   UNL     1       7.366   0.611   2.920  0.00  0.00    -0.461 OA
BRANCH  37  39
ATOM     38  C   UNL     1       6.633  -0.358   5.031  0.00  0.00    +0.048 C 
ATOM     39  C   UNL     1       7.143  -0.643   3.616  0.00  0.00    +0.229 C 
ENDBRANCH  37  39
ENDBRANCH  35  37
ENDBRANCH  26  35
ENDBRANCH   1  30
TORSDOF 6
