REMARK  Name = ZINC10784778
REMARK  4 active torsions:
REMARK  status: ('A' for Active; 'I' for Inactive)
REMARK    1  A    between atoms: C_3  and  S_6
REMARK    2  A    between atoms: S_6  and  N_9
REMARK    3  A    between atoms: C_14  and  C_16
REMARK    4  A    between atoms: C_22  and  C_24
REMARK                            x       y       z     vdW  Elec       q    Type
REMARK                         _______ _______ _______ _____ _____    ______ ____
ROOT
ATOM      1  C   UNL     1       1.370   1.678  -0.258  0.00  0.00    +0.239 C 
ATOM      2  O   UNL     1       1.536   2.877  -0.334  0.00  0.00    -0.274 OA
ATOM      3  N   UNL     1       2.430   0.847  -0.290  0.00  0.00    -0.237 N 
ATOM      4  C   UNL     1       3.711   1.363  -0.410  0.00  0.00    +0.314 A 
ATOM      5  N   UNL     1       4.031   2.631  -0.501  0.00  0.00    -0.092 NA
ATOM      6  N   UNL     1       5.309   2.744  -0.600  0.00  0.00    -0.106 NA
ATOM      7  C   UNL     1       5.855   1.552  -0.577  0.00  0.00    +0.250 A 
ATOM      8  O   UNL     1       4.855   0.653  -0.450  0.00  0.00    -0.405 OA
ATOM      9  H   UNL     1       2.298  -0.112  -0.229  0.00  0.00    +0.159 HD
ENDROOT
BRANCH   7  10
ATOM     10  C   UNL     1       7.298   1.249  -0.665  0.00  0.00    +0.039 A 
ATOM     11  C   UNL     1       7.740  -0.075  -0.620  0.00  0.00    +0.014 A 
ATOM     12  C   UNL     1       9.088  -0.352  -0.708  0.00  0.00    +0.016 A 
ATOM     13  C   UNL     1      10.004   0.680  -0.830  0.00  0.00    +0.018 A 
ATOM     14  C   UNL     1       9.572   1.995  -0.870  0.00  0.00    +0.016 A 
ATOM     15  C   UNL     1       8.226   2.284  -0.788  0.00  0.00    +0.014 A 
ATOM     16 BR   UNL     1      11.851   0.291  -0.944  0.00  0.00    -0.050 Br
ENDBRANCH   7  10
BRANCH   1  22
ATOM     17  N   UNL     1      -0.683   1.708   1.045  0.00  0.00    -0.164 NA
ATOM     18  C   UNL     1      -2.107   1.410   1.275  0.00  0.00    +0.110 C 
ATOM     19  C   UNL     1      -2.895   1.750   0.007  0.00  0.00    +0.017 C 
ATOM     20  C   UNL     1      -2.284   1.007  -1.184  0.00  0.00    +0.003 C 
ATOM     21  C   UNL     1      -0.835   1.460  -1.379  0.00  0.00    +0.030 C 
ATOM     22  C   UNL     1      -0.023   1.117  -0.127  0.00  0.00    +0.166 C 
BRANCH  17  23
ATOM     23  S   UNL     1       0.156   2.691   2.081  0.00  0.00    +0.068 S 
ATOM     24  O   UNL     1      -0.508   2.620   3.335  0.00  0.00    -0.152 OA
ATOM     25  O   UNL     1       1.530   2.363   1.927  0.00  0.00    -0.152 OA
BRANCH  23  28
ATOM     26  C   UNL     1      -0.943   6.505   1.231  0.00  0.00    +0.010 A 
ATOM     27  C   UNL     1      -0.994   5.251   1.811  0.00  0.00    +0.036 A 
ATOM     28  C   UNL     1      -0.036   4.343   1.501  0.00  0.00    +0.143 A 
ATOM     29  S   UNL     1       0.976   5.255   0.347  0.00  0.00    -0.077 S 
ATOM     30  C   UNL     1       0.058   6.786   0.361  0.00  0.00    +0.047 A 
ENDBRANCH  23  28
ENDBRANCH  17  23
ENDBRANCH   1  22
TORSDOF 4
