REMARK  Name = ZINC16909397
REMARK  12 active torsions:
REMARK  status: ('A' for Active; 'I' for Inactive)
REMARK    1  A    between atoms: C_1  and  C_2
REMARK    2  A    between atoms: C_2  and  C_3
REMARK    3  A    between atoms: C_10  and  C_12
REMARK    4  A    between atoms: C_15  and  S_18
REMARK    5  A    between atoms: N_16  and  C_17
REMARK    6  A    between atoms: S_18  and  C_19
REMARK    7  A    between atoms: C_19  and  C_21
REMARK    8  A    between atoms: C_19  and  C_22
REMARK    9  A    between atoms: N_27  and  C_28
REMARK   10  A    between atoms: C_28  and  C_29
REMARK   11  A    between atoms: C_28  and  C_30
REMARK   12  A    between atoms: C_28  and  C_31
REMARK                            x       y       z     vdW  Elec       q    Type
REMARK                         _______ _______ _______ _____ _____    ______ ____
ROOT
ATOM      1  C   UNL     1      -1.127  -0.948   0.007  0.00  0.00    +0.171 A 
ATOM      2  N   UNL     1      -2.379  -0.668   0.299  0.00  0.00    -0.128 NA
ATOM      3  N   UNL     1      -3.099  -1.727   0.200  0.00  0.00    -0.122 NA
ATOM      4  C   UNL     1      -2.354  -2.750  -0.152  0.00  0.00    +0.192 A 
ATOM      5  N   UNL     1      -1.073  -2.292  -0.287  0.00  0.00    -0.305 N 
ATOM      6  C   UNL     1       0.110  -3.069  -0.666  0.00  0.00    +0.153 C 
ENDROOT
BRANCH   1  13
ATOM      7  C   UNL     1       2.644   4.024   0.465  0.00  0.00    -0.007 C 
ATOM      8  C   UNL     1       3.708   3.329  -0.389  0.00  0.00    +0.009 C 
ATOM      9  C   UNL     1       3.734   1.837  -0.026  0.00  0.00    +0.043 C 
ATOM     10  C   UNL     1       2.327   1.332  -0.014  0.00  0.00    -0.006 A 
ATOM     11  C   UNL     1       1.180   2.071   0.002  0.00  0.00    -0.036 A 
ATOM     12  C   UNL     1      -0.017   1.365   0.009  0.00  0.00    +0.023 A 
ATOM     13  C   UNL     1       0.002  -0.004   0.002  0.00  0.00    +0.057 A 
ATOM     14  S   UNL     1       1.756  -0.346  -0.017  0.00  0.00    -0.090 S 
ATOM     15  C   UNL     1       1.248   3.595   0.012  0.00  0.00    +0.039 C 
BRANCH   7  17
ATOM     16  C   UNL     1       1.802   6.238   1.259  0.00  0.00    +0.004 C 
ATOM     17  C   UNL     1       2.781   5.540   0.313  0.00  0.00    +0.000 C 
ENDBRANCH   7  17
ENDBRANCH   1  13
BRANCH   4  18
ATOM     18  S   UNL     1      -2.904  -4.406  -0.402  0.00  0.00    -0.074 S 
BRANCH  18  19
ATOM     19  C   UNL     1      -4.667  -4.210  -0.041  0.00  0.00    +0.137 C 
ATOM     20  C   UNL     1      -5.303  -3.295  -1.089  0.00  0.00    +0.029 C 
BRANCH  19  21
ATOM     21  C   UNL     1      -5.339  -5.558  -0.076  0.00  0.00    +0.233 C 
ATOM     22  O   UNL     1      -4.813  -6.483  -0.657  0.00  0.00    -0.274 OA
ATOM     23  N   UNL     1      -6.525  -5.735   0.539  0.00  0.00    -0.239 N 
ATOM     24  C   UNL     1      -7.127  -6.941   0.508  0.00  0.00    +0.306 C 
ATOM     25  O   UNL     1      -6.600  -7.868  -0.074  0.00  0.00    -0.252 OA
ATOM     26  N   UNL     1      -8.313  -7.118   1.123  0.00  0.00    -0.294 N 
ATOM     27  H   UNL     1      -6.946  -4.995   1.004  0.00  0.00    +0.159 HD
ATOM     28  H   UNL     1      -8.734  -6.378   1.588  0.00  0.00    +0.151 HD
BRANCH  26  29
ATOM     29  C   UNL     1      -8.967  -8.429   1.089  0.00  0.00    +0.028 C 
ATOM     30  C   UNL     1      -8.054  -9.471   1.739  0.00  0.00    +0.031 C 
ATOM     31  C   UNL     1     -10.289  -8.359   1.857  0.00  0.00    +0.031 C 
ATOM     32  C   UNL     1      -9.240  -8.825  -0.363  0.00  0.00    +0.031 C 
ENDBRANCH  26  29
ENDBRANCH  19  21
ENDBRANCH  18  19
ENDBRANCH   4  18
TORSDOF 6
