REMARK  Name = ZINC16384144
REMARK  6 active torsions:
REMARK  status: ('A' for Active; 'I' for Inactive)
REMARK    1  A    between atoms: C_3  and  C_10
REMARK    2  A    between atoms: C_5  and  N_7
REMARK    3  A    between atoms: N_11  and  C_12
REMARK    4  A    between atoms: C_15  and  N_18
REMARK    5  A    between atoms: N_18  and  C_19
REMARK    6  A    between atoms: C_19  and  N_21
REMARK                            x       y       z     vdW  Elec       q    Type
REMARK                         _______ _______ _______ _____ _____    ______ ____
ROOT
ATOM      1  C   UNL     1      -3.649   3.000   0.117  0.00  0.00    +0.064 A 
ATOM      2  C   UNL     1      -3.624   1.605   0.193  0.00  0.00    +0.029 A 
ATOM      3  C   UNL     1      -2.420   0.937   0.156  0.00  0.00    +0.025 A 
ATOM      4  C   UNL     1      -1.231   1.648   0.044  0.00  0.00    +0.033 A 
ATOM      5  C   UNL     1      -1.251   3.036  -0.026  0.00  0.00    +0.025 A 
ATOM      6  C   UNL     1      -2.452   3.712   0.005  0.00  0.00    +0.029 A 
ENDROOT
BRANCH   1   8
ATOM      7  C   UNL     1      -4.976   4.726   0.904  0.00  0.00    +0.123 C 
ATOM      8  N   UNL     1      -4.843   3.668   0.153  0.00  0.00    -0.255 NA
BRANCH   7  11
ATOM      9  C   UNL     1      -7.612   7.245   1.778  0.00  0.00    +0.003 A 
ATOM     10  C   UNL     1      -6.406   6.578   1.747  0.00  0.00    +0.013 A 
ATOM     11  C   UNL     1      -6.259   5.443   0.943  0.00  0.00    +0.042 A 
ATOM     12  C   UNL     1      -7.341   4.997   0.169  0.00  0.00    +0.217 A 
ATOM     13  C   UNL     1      -8.547   5.677   0.219  0.00  0.00    +0.173 A 
ATOM     14  C   UNL     1      -8.678   6.797   1.017  0.00  0.00    +0.037 A 
ATOM     15  O   UNL     1      -7.209   3.900  -0.619  0.00  0.00    -0.285 OA
BRANCH  13  16
ATOM     16  N   UNL     1      -9.694   5.208  -0.590  0.00  0.00    +0.060 N 
ATOM     17  O   UNL     1     -10.753   5.809  -0.552  0.00  0.00    -0.126 OA
ATOM     18  O   UNL     1      -9.579   4.221  -1.295  0.00  0.00    -0.126 OA
ENDBRANCH  13  16
ENDBRANCH   7  11
ENDBRANCH   1   8
BRANCH   4  19
ATOM     19  N   UNL     1      -0.011   0.966   0.007  0.00  0.00    -0.297 N 
ATOM     20  H   UNL     1       0.141   0.213   0.599  0.00  0.00    +0.154 HD
BRANCH  19  21
ATOM     21  C   UNL     1       0.951   1.351  -0.854  0.00  0.00    +0.132 C 
ATOM     22  S   UNL     1       0.632   2.584  -1.998  0.00  0.00    -0.019 S 
BRANCH  21  23
ATOM     23  N   UNL     1       2.164   0.766  -0.815  0.00  0.00    -0.340 N 
ATOM     24  H   UNL     1       2.345   0.067  -0.167  0.00  0.00    +0.144 HD
ATOM     25  H   UNL     1       2.857   1.043  -1.435  0.00  0.00    +0.144 HD
ENDBRANCH  21  23
ENDBRANCH  19  21
ENDBRANCH   4  19
TORSDOF 6
