REMARK  Name = ZINC39529556
REMARK  12 active torsions:
REMARK  status: ('A' for Active; 'I' for Inactive)
REMARK    1  A    between atoms: C_1  and  C_2
REMARK    2  A    between atoms: C_2  and  C_3
REMARK    3  A    between atoms: C_2  and  C_4
REMARK    4  A    between atoms: C_4  and  C_5
REMARK    5  A    between atoms: C_7  and  S_28
REMARK    6  A    between atoms: C_10  and  N_11
REMARK    7  A    between atoms: C_15  and  S_18
REMARK    8  A    between atoms: S_18  and  O_21
REMARK    9  A    between atoms: O_21  and  C_22
REMARK   10  A    between atoms: S_28  and  C_31
REMARK   11  A    between atoms: C_31  and  C_32
REMARK   12  A    between atoms: C_31  and  C_33
REMARK                            x       y       z     vdW  Elec       q    Type
REMARK                         _______ _______ _______ _____ _____    ______ ____
ROOT
ATOM      1  N   UNL     1      -1.739  -2.202   2.219  0.00  0.00    -0.331 N 
ATOM      2  C   UNL     1      -2.771  -2.067   3.259  0.00  0.00    +0.086 C 
ATOM      3  C   UNL     1      -2.550  -0.741   3.993  0.00  0.00    -0.061 C 
ATOM      4  N   UNL     1      -1.172  -0.683   4.496  0.00  0.00    +0.398 N 
ATOM      5  C   UNL     1      -0.229  -0.674   3.371  0.00  0.00    +0.133 C 
ATOM      6  C   UNL     1      -0.334  -2.003   2.607  0.00  0.00    +0.115 C 
ATOM      7  H   UNL     1      -1.050   0.155   5.043  0.00  0.00    -0.083 HD
ATOM      8  H   UNL     1      -0.994  -1.490   5.076  0.00  0.00    -0.083 HD
ENDROOT
BRANCH   1  14
ATOM      9  C   UNL     1      -2.330  -1.502  -0.013  0.00  0.00    -0.024 A 
ATOM     10  C   UNL     1      -2.665  -1.816  -1.316  0.00  0.00    +0.032 A 
ATOM     11  C   UNL     1      -2.760  -3.139  -1.707  0.00  0.00    +0.089 A 
ATOM     12  C   UNL     1      -2.520  -4.151  -0.796  0.00  0.00    +0.029 A 
ATOM     13  C   UNL     1      -2.184  -3.844   0.507  0.00  0.00    +0.025 A 
ATOM     14  C   UNL     1      -2.083  -2.516   0.903  0.00  0.00    +0.033 A 
BRANCH  11  15
ATOM     15  S   UNL     1      -3.188  -3.535  -3.370  0.00  0.00    -0.001 S 
ATOM     16  O   UNL     1      -3.784  -4.822  -3.294  0.00  0.00    -0.169 OA
ATOM     17  O   UNL     1      -3.934  -2.416  -3.829  0.00  0.00    -0.169 OA
BRANCH  15  18
ATOM     18  C   UNL     1      -1.604  -3.631  -4.249  0.00  0.00    +0.130 C 
ATOM     19  C   UNL     1      -1.861  -3.850  -5.741  0.00  0.00    +0.032 C 
ATOM     20  C   UNL     1      -0.830  -2.326  -4.050  0.00  0.00    +0.032 C 
ENDBRANCH  15  18
ENDBRANCH  11  15
BRANCH   9  21
ATOM     21  C   UNL     1      -2.228  -0.060   0.413  0.00  0.00    +0.040 C 
BRANCH  21  23
ATOM     22  C   UNL     1      -3.425   1.812   1.555  0.00  0.00    +0.007 C 
ATOM     23  C   UNL     1      -3.570   0.400   0.984  0.00  0.00    -0.013 C 
ATOM     24  C   UNL     1      -4.622   0.405  -0.127  0.00  0.00    +0.007 C 
ENDBRANCH  21  23
ENDBRANCH   9  21
ENDBRANCH   1  14
BRANCH   5  25
ATOM     25  S   UNL     1       1.460  -0.471   3.999  0.00  0.00    +0.109 S 
ATOM     26  O   UNL     1       1.739  -1.459   4.981  0.00  0.00    -0.138 OA
ATOM     27  O   UNL     1       2.360  -0.246   2.922  0.00  0.00    -0.138 OA
BRANCH  25  28
ATOM     28  O   UNL     1       1.437   0.844   4.766  0.00  0.00    -0.347 OA
BRANCH  28  29
ATOM     29  C   UNL     1       1.402   1.946   3.972  0.00  0.00    +0.156 A 
ATOM     30  C   UNL     1       2.583   2.499   3.498  0.00  0.00    +0.048 A 
ATOM     31  C   UNL     1       2.545   3.619   2.691  0.00  0.00    +0.004 A 
ATOM     32  C   UNL     1       1.331   4.190   2.356  0.00  0.00    +0.000 A 
ATOM     33  C   UNL     1       0.153   3.642   2.828  0.00  0.00    +0.004 A 
ATOM     34  C   UNL     1       0.185   2.518   3.630  0.00  0.00    +0.048 A 
ENDBRANCH  28  29
ENDBRANCH  25  28
ENDBRANCH   5  25
TORSDOF 8
