REMARK  Name = ZINC16774869
REMARK  6 active torsions:
REMARK  status: ('A' for Active; 'I' for Inactive)
REMARK    1  A    between atoms: C_1  and  C_2
REMARK    2  A    between atoms: C_4  and  S_12
REMARK    3  A    between atoms: S_12  and  C_13
REMARK    4  A    between atoms: C_13  and  C_15
REMARK    5  A    between atoms: C_13  and  C_16
REMARK    6  A    between atoms: N_18  and  C_19
REMARK                            x       y       z     vdW  Elec       q    Type
REMARK                         _______ _______ _______ _____ _____    ______ ____
ROOT
ATOM      1  C   UNL     1       1.940   3.586   0.288  0.00  0.00    +0.230 C 
ATOM      2  O   UNL     1       1.018   4.366   0.175  0.00  0.00    -0.274 OA
ATOM      3  N   UNL     1       3.183   4.043   0.538  0.00  0.00    -0.285 N 
ATOM      4  H   UNL     1       3.905   3.417   0.705  0.00  0.00    +0.155 HD
ENDROOT
BRANCH   3   5
ATOM      5  C   UNL     1       3.431   5.421   0.559  0.00  0.00    +0.035 A 
ATOM      6  C   UNL     1       4.388   5.941   1.423  0.00  0.00    +0.025 A 
ATOM      7  C   UNL     1       4.638   7.298   1.448  0.00  0.00    +0.029 A 
ATOM      8  C   UNL     1       3.933   8.147   0.609  0.00  0.00    +0.067 A 
ATOM      9  C   UNL     1       2.971   7.628  -0.261  0.00  0.00    +0.069 A 
ATOM     10  C   UNL     1       2.727   6.264  -0.287  0.00  0.00    +0.051 A 
ATOM     11  N   UNL     1       2.441   8.707  -0.965  0.00  0.00    -0.306 N 
ATOM     12  H   UNL     1       1.750   8.657  -1.644  0.00  0.00    +0.170 HD
ATOM     13  C   UNL     1       3.051   9.831  -0.544  0.00  0.00    +0.325 A 
ATOM     14  O   UNL     1       2.819  10.951  -0.958  0.00  0.00    -0.247 OA
ATOM     15  N   UNL     1       3.956   9.527   0.405  0.00  0.00    -0.306 N 
ATOM     16  H   UNL     1       4.527  10.159   0.869  0.00  0.00    +0.170 HD
ENDBRANCH   3   5
BRANCH   1  17
ATOM     17  C   UNL     1       1.696   2.105   0.148  0.00  0.00    +0.136 C 
ATOM     18  C   UNL     1       2.104   1.651  -1.255  0.00  0.00    +0.029 C 
BRANCH  17  19
ATOM     19  S   UNL     1      -0.062   1.757   0.407  0.00  0.00    -0.093 S 
BRANCH  19  23
ATOM     20  C   UNL     1      -2.510  -2.856   0.622  0.00  0.00    +0.044 C 
ATOM     21  C   UNL     1      -1.234  -2.073   0.452  0.00  0.00    -0.039 A 
ATOM     22  C   UNL     1      -1.237  -0.712   0.501  0.00  0.00    +0.038 A 
ATOM     23  C   UNL     1      -0.037  -0.004   0.341  0.00  0.00    +0.099 A 
ATOM     24  N   UNL     1       1.107  -0.625   0.137  0.00  0.00    -0.240 NA
ATOM     25  C   UNL     1       1.173  -1.960   0.085  0.00  0.00    +0.072 A 
ATOM     26  C   UNL     1      -0.005  -2.731   0.239  0.00  0.00    +0.003 A 
ATOM     27  C   UNL     1       0.070  -4.131   0.178  0.00  0.00    +0.010 A 
ATOM     28  C   UNL     1       1.274  -4.732  -0.030  0.00  0.00    +0.001 A 
ATOM     29  C   UNL     1       2.434  -3.976  -0.182  0.00  0.00    +0.002 A 
ATOM     30  C   UNL     1       2.397  -2.616  -0.128  0.00  0.00    +0.028 A 
ENDBRANCH  19  23
ENDBRANCH  17  19
ENDBRANCH   1  17
TORSDOF 4
