REMARK  Name = ZINC33937261
REMARK  12 active torsions:
REMARK  status: ('A' for Active; 'I' for Inactive)
REMARK    1  A    between atoms: C_1  and  C_2
REMARK    2  A    between atoms: C_2  and  C_3
REMARK    3  A    between atoms: C_3  and  C_4
REMARK    4  A    between atoms: C_4  and  C_6
REMARK    5  A    between atoms: C_4  and  N_18
REMARK    6  A    between atoms: N_10  and  C_11
REMARK    7  A    between atoms: C_11  and  C_12
REMARK    8  A    between atoms: N_18  and  C_19
REMARK    9  A    between atoms: N_18  and  C_26
REMARK   10  A    between atoms: C_19  and  C_20
REMARK   11  A    between atoms: C_26  and  C_27
REMARK   12  A    between atoms: C_32  and  C_39
REMARK                            x       y       z     vdW  Elec       q    Type
REMARK                         _______ _______ _______ _____ _____    ______ ____
ROOT
ATOM      1  N   UNL     1      -0.542  -2.605  -1.962  0.00  0.00    +0.392 N 
ATOM      2  H   UNL     1      -1.141  -2.215  -2.674  0.00  0.00    -0.080 HD
ENDROOT
BRANCH   1   3
ATOM      3  C   UNL     1      -0.949  -2.094  -0.646  0.00  0.00    +0.003 C 
BRANCH   3   4
ATOM      4  C   UNL     1      -0.034  -2.650   0.414  0.00  0.00    +0.138 A 
ATOM      5  N   UNL     1       0.399  -3.884   0.506  0.00  0.00    -0.115 NA
ATOM      6  N   UNL     1       1.157  -3.964   1.544  0.00  0.00    -0.023 NA
ATOM      7  N   UNL     1       1.220  -2.813   2.118  0.00  0.00    -0.044 NA
ATOM      8  N   UNL     1       0.503  -1.975   1.448  0.00  0.00    -0.228 N 
BRANCH   8   9
ATOM      9  C   UNL     1       0.306  -0.556   1.756  0.00  0.00    +0.178 C 
BRANCH   9  10
ATOM     10  C   UNL     1      -0.801  -0.410   2.801  0.00  0.00    +0.140 C 
ATOM     11  C   UNL     1      -0.963   1.076   3.209  0.00  0.00    +0.035 C 
ATOM     12  C   UNL     1      -2.437   1.089   3.697  0.00  0.00    +0.031 C 
ATOM     13  C   UNL     1      -3.103   0.060   2.758  0.00  0.00    +0.160 C 
ATOM     14  O   UNL     1      -2.069  -0.788   2.241  0.00  0.00    -0.375 OA
ENDBRANCH   9  10
ENDBRANCH   8   9
ENDBRANCH   3   4
BRANCH   3  15
ATOM     15  C   UNL     1      -2.388  -2.525  -0.354  0.00  0.00    -0.008 C 
BRANCH  15  17
ATOM     16  C   UNL     1      -4.749  -2.419  -1.166  0.00  0.00    +0.004 C 
ATOM     17  C   UNL     1      -3.326  -1.901  -1.389  0.00  0.00    -0.005 C 
ENDBRANCH  15  17
ENDBRANCH   3  15
ENDBRANCH   1   3
BRANCH   1  18
ATOM     18  C   UNL     1       0.851  -2.219  -2.227  0.00  0.00    -0.042 C 
BRANCH  18  19
ATOM     19  C   UNL     1       0.938  -0.721  -2.369  0.00  0.00    -0.064 A 
ATOM     20  C   UNL     1       0.647  -0.123  -3.581  0.00  0.00    +0.002 A 
ATOM     21  C   UNL     1       0.728   1.250  -3.711  0.00  0.00    +0.000 A 
ATOM     22  C   UNL     1       1.099   2.027  -2.629  0.00  0.00    +0.000 A 
ATOM     23  C   UNL     1       1.389   1.429  -1.417  0.00  0.00    +0.000 A 
ATOM     24  C   UNL     1       1.304   0.056  -1.286  0.00  0.00    +0.002 A 
ENDBRANCH  18  19
ENDBRANCH   1  18
BRANCH   1  25
ATOM     25  C   UNL     1      -0.655  -4.069  -1.975  0.00  0.00    -0.036 C 
BRANCH  25  26
ATOM     26  C   UNL     1      -0.382  -4.582  -3.365  0.00  0.00    +0.001 A 
ATOM     27  C   UNL     1       0.858  -5.024  -3.691  0.00  0.00    +0.017 A 
ATOM     28  C   UNL     1       1.091  -5.516  -5.050  0.00  0.00    -0.001 A 
ATOM     29  C   UNL     1       2.348  -5.986  -5.444  0.00  0.00    +0.010 A 
ATOM     30  C   UNL     1       2.532  -6.439  -6.720  0.00  0.00    +0.004 A 
ATOM     31  C   UNL     1       1.483  -6.437  -7.628  0.00  0.00    -0.048 A 
ATOM     32  C   UNL     1       0.236  -5.979  -7.262  0.00  0.00    +0.029 A 
ATOM     33  C   UNL     1       0.024  -5.513  -5.968  0.00  0.00    +0.049 A 
ATOM     34  N   UNL     1      -1.213  -5.050  -5.574  0.00  0.00    -0.322 N 
ATOM     35  H   UNL     1      -1.947  -5.049  -6.209  0.00  0.00    +0.169 HD
ATOM     36  C   UNL     1      -1.419  -4.605  -4.322  0.00  0.00    +0.251 A 
ATOM     37  O   UNL     1      -2.527  -4.208  -4.007  0.00  0.00    -0.268 OA
ATOM     38  C   UNL     1       1.710  -6.941  -9.031  0.00  0.00    +0.044 C 
ENDBRANCH  25  26
ENDBRANCH   1  25
TORSDOF 10
