REMARK  Name = ZINC38688942
REMARK  7 active torsions:
REMARK  status: ('A' for Active; 'I' for Inactive)
REMARK    1  A    between atoms: C_7  and  C_10
REMARK    2  A    between atoms: N_11  and  N_12
REMARK    3  A    between atoms: C_13  and  C_15
REMARK    4  A    between atoms: C_17  and  C_28
REMARK    5  A    between atoms: C_28  and  N_29
REMARK    6  A    between atoms: N_29  and  C_30
REMARK    7  A    between atoms: C_35  and  C_36
REMARK                            x       y       z     vdW  Elec       q    Type
REMARK                         _______ _______ _______ _____ _____    ______ ____
ROOT
ATOM      1  C   UNL     1      -0.186  -7.904   0.045  0.00  0.00    +0.240 C 
ATOM      2  C   UNL     1      -0.734  -8.223   1.452  0.00  0.00    +0.154 C 
ATOM      3  N   UNL     1      -0.289  -9.615   1.655  0.00  0.00    -0.176 N 
ATOM      4  N   UNL     1       0.408 -10.002   0.509  0.00  0.00    -0.077 NA
ATOM      5  N   UNL     1       0.489  -9.142  -0.365  0.00  0.00    -0.156 NA
ATOM      6  C   UNL     1      -0.523 -10.399   2.782  0.00  0.00    +0.228 A 
ATOM      7  C   UNL     1       0.017 -11.742   3.022  0.00  0.00    +0.204 A 
ATOM      8  N   UNL     1      -0.417 -12.158   4.179  0.00  0.00    -0.032 NA
ATOM      9  O   UNL     1      -1.233 -11.139   4.729  0.00  0.00    -0.239 OA
ATOM     10  N   UNL     1      -1.254 -10.063   3.808  0.00  0.00    -0.030 NA
ATOM     11  N   UNL     1       0.849 -12.450   2.162  0.00  0.00    -0.338 N 
ATOM     12  H   UNL     1       1.121 -12.057   1.318  0.00  0.00    +0.144 HD
ATOM     13  H   UNL     1       1.158 -13.336   2.406  0.00  0.00    +0.144 HD
ENDROOT
BRANCH   1  15
ATOM     14  N   UNL     1       0.350  -5.491   0.130  0.00  0.00    -0.205 N 
ATOM     15  C   UNL     1       0.796  -6.762   0.107  0.00  0.00    +0.261 C 
ATOM     16  O   UNL     1       1.987  -6.988   0.135  0.00  0.00    -0.272 OA
ATOM     17  H   UNL     1      -0.603  -5.310   0.108  0.00  0.00    +0.177 HD
BRANCH  14  19
ATOM     18  C   UNL     1       0.829  -3.194   0.211  0.00  0.00    +0.136 C 
ATOM     19  N   UNL     1       1.263  -4.429   0.188  0.00  0.00    -0.188 NA
BRANCH  18  26
ATOM     20  C   UNL     1       0.247   1.301   0.324  0.00  0.00    +0.001 A 
ATOM     21  C   UNL     1       1.446   2.019   0.380  0.00  0.00    +0.002 A 
ATOM     22  C   UNL     1       2.651   1.400   0.397  0.00  0.00    +0.026 A 
ATOM     23  C   UNL     1       2.716  -0.018   0.358  0.00  0.00    +0.043 A 
ATOM     24  N   UNL     1       3.742  -0.843   0.364  0.00  0.00    -0.380 N 
ATOM     25  C   UNL     1       3.252  -2.224   0.309  0.00  0.00    +0.150 C 
ATOM     26  C   UNL     1       1.743  -2.131   0.268  0.00  0.00    +0.000 C 
ATOM     27  C   UNL     1       1.450  -0.770   0.299  0.00  0.00    +0.004 A 
ATOM     28  C   UNL     1       0.232  -0.055   0.284  0.00  0.00    +0.010 A 
ATOM     29  H   UNL     1       4.674  -0.579   0.398  0.00  0.00    +0.160 HD
ENDBRANCH  18  26
ENDBRANCH  14  19
ENDBRANCH   1  15
BRANCH   2  30
ATOM     30  C   UNL     1      -0.118  -7.293   2.499  0.00  0.00    +0.128 C 
BRANCH  30  31
ATOM     31  N   UNL     1       1.313  -7.580   2.627  0.00  0.00    -0.341 N 
ATOM     32  H   UNL     1       1.732  -8.228   2.039  0.00  0.00    +0.146 HD
BRANCH  31  33
ATOM     33  C   UNL     1       2.070  -6.924   3.589  0.00  0.00    +0.039 A 
ATOM     34  C   UNL     1       1.505  -5.905   4.346  0.00  0.00    +0.024 A 
ATOM     35  C   UNL     1       2.259  -5.255   5.301  0.00  0.00    +0.002 A 
ATOM     36  C   UNL     1       3.581  -5.611   5.514  0.00  0.00    +0.001 A 
ATOM     37  C   UNL     1       4.158  -6.619   4.773  0.00  0.00    +0.015 A 
ATOM     38  C   UNL     1       3.407  -7.290   3.805  0.00  0.00    +0.057 A 
BRANCH  38  39
ATOM     39  C   UNL     1       4.016  -8.374   3.013  0.00  0.00    +0.243 C 
ATOM     40  O   UNL     1       3.396  -8.883   2.099  0.00  0.00    -0.270 OA
ATOM     41  N   UNL     1       5.262  -8.800   3.300  0.00  0.00    -0.325 N 
ATOM     42  H   UNL     1       5.758  -8.395   4.029  0.00  0.00    +0.145 HD
ATOM     43  H   UNL     1       5.663  -9.513   2.779  0.00  0.00    +0.145 HD
ENDBRANCH  38  39
ENDBRANCH  31  33
ENDBRANCH  30  31
ENDBRANCH   2  30
TORSDOF 7
