REMARK  Name = ZINC44170571
REMARK  9 active torsions:
REMARK  status: ('A' for Active; 'I' for Inactive)
REMARK    1  A    between atoms: C_1  and  C_2
REMARK    2  A    between atoms: C_2  and  C_3
REMARK    3  A    between atoms: C_8  and  C_9
REMARK    4  A    between atoms: C_15  and  C_18
REMARK    5  A    between atoms: N_20  and  C_21
REMARK    6  A    between atoms: C_32  and  C_38
REMARK    7  A    between atoms: C_32  and  C_39
REMARK    8  A    between atoms: C_35  and  C_36
REMARK    9  A    between atoms: C_35  and  C_37
REMARK                            x       y       z     vdW  Elec       q    Type
REMARK                         _______ _______ _______ _____ _____    ______ ____
ROOT
ATOM      1  C   UNL     1      -1.268  -0.420  -2.580  0.00  0.00    -0.027 C 
ATOM      2  C   UNL     1      -1.174   1.107  -2.681  0.00  0.00    +0.092 C 
ATOM      3  S   UNL     1      -0.154   1.521  -4.130  0.00  0.00    +0.020 S 
ATOM      4  O   UNL     1       1.182   1.091  -3.908  0.00  0.00    -0.257 OA
ATOM      5  C   UNL     1      -0.904   0.512  -5.447  0.00  0.00    +0.097 C 
ATOM      6  C   UNL     1      -1.039  -0.926  -4.932  0.00  0.00    +0.029 C 
ATOM      7  N   UNL     1      -1.931  -0.956  -3.771  0.00  0.00    +0.392 N 
ATOM      8  H   UNL     1      -2.210  -1.909  -3.594  0.00  0.00    -0.084 HD
ATOM      9  H   UNL     1      -2.752  -0.404  -3.969  0.00  0.00    -0.084 HD
ENDROOT
BRANCH   1  15
ATOM     10  C   UNL     1      -1.438  -0.882  -0.124  0.00  0.00    -0.046 A 
ATOM     11  C   UNL     1      -2.172  -1.221   0.993  0.00  0.00    +0.008 A 
ATOM     12  C   UNL     1      -3.533  -1.479   0.892  0.00  0.00    -0.038 A 
ATOM     13  C   UNL     1      -4.155  -1.391  -0.333  0.00  0.00    -0.038 A 
ATOM     14  C   UNL     1      -3.413  -1.052  -1.458  0.00  0.00    +0.006 A 
ATOM     15  C   UNL     1      -2.062  -0.793  -1.355  0.00  0.00    -0.057 A 
ATOM     16  C   UNL     1      -5.629  -1.641  -0.514  0.00  0.00    -0.010 C 
ATOM     17  C   UNL     1      -6.196  -2.402   0.683  0.00  0.00    +0.012 C 
ATOM     18  C   UNL     1      -5.777  -1.671   1.964  0.00  0.00    +0.012 C 
ATOM     19  C   UNL     1      -4.272  -1.851   2.151  0.00  0.00    -0.010 C 
ATOM     20  C   UNL     1      -3.978  -3.313   2.495  0.00  0.00    +0.016 C 
ATOM     21  C   UNL     1      -3.795  -0.959   3.299  0.00  0.00    +0.016 C 
ATOM     22  C   UNL     1      -6.355  -0.301  -0.649  0.00  0.00    +0.016 C 
ATOM     23  C   UNL     1      -5.849  -2.463  -1.785  0.00  0.00    +0.016 C 
BRANCH  10  25
ATOM     24  C   UNL     1       0.824  -1.885  -0.280  0.00  0.00    +0.009 C 
ATOM     25  C   UNL     1       0.038  -0.602  -0.003  0.00  0.00    +0.032 C 
ENDBRANCH  10  25
ENDBRANCH   1  15
BRANCH   6  26
ATOM     26  C   UNL     1       0.319  -1.444  -4.534  0.00  0.00    +0.200 C 
ATOM     27  O   UNL     1       0.433  -2.161  -3.562  0.00  0.00    -0.278 OA
ATOM     28  N   UNL     1       1.406  -1.112  -5.257  0.00  0.00    -0.310 N 
ATOM     29  H   UNL     1       1.315  -0.538  -6.034  0.00  0.00    +0.149 HD
BRANCH  28  30
ATOM     30  C   UNL     1       2.726  -1.616  -4.870  0.00  0.00    +0.103 C 
ATOM     31  C   UNL     1       3.801  -0.659  -5.383  0.00  0.00    +0.027 C 
ATOM     32  C   UNL     1       5.172  -1.309  -5.161  0.00  0.00    +0.007 C 
ATOM     33  C   UNL     1       5.307  -2.488  -6.123  0.00  0.00    +0.035 C 
ATOM     34  C   UNL     1       4.108  -3.394  -6.021  0.00  0.00    -0.042 A 
ATOM     35  C   UNL     1       2.922  -2.992  -5.450  0.00  0.00    -0.024 A 
ATOM     36  C   UNL     1       1.852  -3.876  -5.394  0.00  0.00    +0.006 A 
ATOM     37  C   UNL     1       1.970  -5.152  -5.904  0.00  0.00    +0.000 A 
ATOM     38  C   UNL     1       3.162  -5.556  -6.474  0.00  0.00    +0.000 A 
ATOM     39  C   UNL     1       4.225  -4.681  -6.531  0.00  0.00    +0.004 A 
ENDBRANCH  28  30
ENDBRANCH   6  26
TORSDOF 4
