REMARK  Name = ZINC21722907
REMARK  6 active torsions:
REMARK  status: ('A' for Active; 'I' for Inactive)
REMARK    1  A    between atoms: C_1  and  C_2
REMARK    2  A    between atoms: C_2  and  C_35
REMARK    3  A    between atoms: C_6  and  C_27
REMARK    4  A    between atoms: N_18  and  C_19
REMARK    5  A    between atoms: C_23  and  S_25
REMARK    6  A    between atoms: S_25  and  C_26
REMARK                            x       y       z     vdW  Elec       q    Type
REMARK                         _______ _______ _______ _____ _____    ______ ____
ROOT
ATOM      1  C   UNL     1      -0.437   3.270  -0.870  0.00  0.00    +0.011 C 
ATOM      2  C   UNL     1      -0.338   1.750  -0.730  0.00  0.00    -0.023 C 
ATOM      3  C   UNL     1      -1.738   1.138  -0.724  0.00  0.00    +0.058 C 
ATOM      4  C   UNL     1      -2.542   1.694   0.439  0.00  0.00    +0.017 C 
ATOM      5  C   UNL     1      -1.933   2.038   1.587  0.00  0.00    +0.040 C 
ATOM      6  C   UNL     1      -2.608   2.598   2.815  0.00  0.00    +0.184 C 
ATOM      7  N   UNL     1      -4.053   2.515   2.797  0.00  0.00    -0.239 N 
ATOM      8  C   UNL     1      -4.802   3.224   1.857  0.00  0.00    +0.060 A 
ATOM      9  C   UNL     1      -5.668   4.237   2.236  0.00  0.00    +0.025 A 
ATOM     10  C   UNL     1      -6.355   4.944   1.263  0.00  0.00    +0.002 A 
ATOM     11  C   UNL     1      -6.177   4.646  -0.075  0.00  0.00    +0.002 A 
ATOM     12  C   UNL     1      -5.325   3.623  -0.456  0.00  0.00    +0.025 A 
ATOM     13  C   UNL     1      -4.656   2.901   0.517  0.00  0.00    +0.053 A 
ATOM     14  N   UNL     1      -3.877   1.792   0.212  0.00  0.00    -0.316 N 
ATOM     15  C   UNL     1      -4.685   1.740   3.702  0.00  0.00    +0.312 C 
ATOM     16  O   UNL     1      -4.041   1.118   4.525  0.00  0.00    -0.252 OA
ATOM     17  N   UNL     1      -6.030   1.656   3.694  0.00  0.00    -0.269 N 
ATOM     18  C   UNL     1      -0.527   1.895   1.722  0.00  0.00    +0.163 C 
ATOM     19  O   UNL     1      -0.002   2.188   2.779  0.00  0.00    -0.292 OA
ATOM     20  C   UNL     1       0.333   1.393   0.602  0.00  0.00    +0.086 C 
ATOM     21  C   UNL     1       0.476   1.174  -1.891  0.00  0.00    +0.011 C 
ATOM     22  H   UNL     1      -4.420   0.952  -0.245  0.00  0.00    +0.152 HD
ATOM     23  H   UNL     1      -6.617   2.284   3.008  0.00  0.00    +0.156 HD
ENDROOT
BRANCH  17  24
ATOM     24  C   UNL     1      -6.680   0.768   4.559  0.00  0.00    +0.036 A 
ATOM     25  C   UNL     1      -7.925   1.094   5.082  0.00  0.00    +0.023 A 
ATOM     26  C   UNL     1      -8.569   0.219   5.936  0.00  0.00    +0.003 A 
ATOM     27  C   UNL     1      -7.976  -0.983   6.273  0.00  0.00    +0.015 A 
ATOM     28  C   UNL     1      -6.730  -1.315   5.753  0.00  0.00    +0.009 A 
ATOM     29  C   UNL     1      -6.084  -0.440   4.890  0.00  0.00    +0.038 A 
BRANCH  28  30
ATOM     30  S   UNL     1      -5.975  -2.848   6.183  0.00  0.00    -0.129 S 
ATOM     31  C   UNL     1      -7.173  -3.630   7.299  0.00  0.00    +0.090 C 
ENDBRANCH  28  30
ENDBRANCH  17  24
BRANCH   6  32
ATOM     32  C   UNL     1      -2.215   4.046   2.958  0.00  0.00    +0.130 A 
ATOM     33  C   UNL     1      -1.269   4.526   3.786  0.00  0.00    +0.047 A 
ATOM     34  C   UNL     1      -1.232   5.926   3.595  0.00  0.00    +0.041 A 
ATOM     35  C   UNL     1      -2.156   6.218   2.663  0.00  0.00    +0.195 A 
ATOM     36  O   UNL     1      -2.744   5.074   2.276  0.00  0.00    -0.466 OA
ENDBRANCH   6  32
TORSDOF 3
