REMARK  Name = ZINC23061432
REMARK  10 active torsions:
REMARK  status: ('A' for Active; 'I' for Inactive)
REMARK    1  A    between atoms: C_1  and  C_2
REMARK    2  A    between atoms: C_2  and  C_3
REMARK    3  A    between atoms: C_2  and  C_4
REMARK    4  A    between atoms: C_4  and  C_6
REMARK    5  A    between atoms: C_4  and  N_24
REMARK    6  A    between atoms: C_6  and  O_8
REMARK    7  A    between atoms: O_8  and  C_9
REMARK    8  A    between atoms: C_9  and  C_10
REMARK    9  A    between atoms: N_12  and  C_13
REMARK   10  A    between atoms: C_25  and  C_27
REMARK                            x       y       z     vdW  Elec       q    Type
REMARK                         _______ _______ _______ _____ _____    ______ ____
ROOT
ATOM      1  O   UNL     1       5.942   3.071   0.273  0.00  0.00    -0.454 OA
ENDROOT
BRANCH   1   2
ATOM      2  C   UNL     1       7.171   3.602   0.372  0.00  0.00    +0.328 C 
ATOM      3  O   UNL     1       7.311   4.802   0.391  0.00  0.00    -0.249 OA
BRANCH   2   4
ATOM      4  C   UNL     1       8.376   2.701   0.459  0.00  0.00    +0.185 C 
BRANCH   4   5
ATOM      5  N   UNL     1       9.589   3.516   0.559  0.00  0.00    -0.298 N 
ATOM      6  C   UNL     1      10.696   3.009   1.136  0.00  0.00    +0.251 C 
ATOM      7  O   UNL     1      10.688   1.873   1.575  0.00  0.00    -0.270 OA
ATOM      8  H   UNL     1       9.597   4.542   0.163  0.00  0.00    +0.150 HD
BRANCH   6   9
ATOM      9  C   UNL     1      11.910   3.824   1.236  0.00  0.00    +0.074 A 
ATOM     10  C   UNL     1      13.140   3.497   1.786  0.00  0.00    +0.021 A 
ATOM     11  C   UNL     1      14.118   4.459   1.747  0.00  0.00    +0.008 A 
ATOM     12  C   UNL     1      13.841   5.664   1.183  0.00  0.00    +0.046 A 
ATOM     13  S   UNL     1      12.192   5.494   0.675  0.00  0.00    -0.092 S 
ENDBRANCH   6   9
ENDBRANCH   4   5
BRANCH   4  15
ATOM     14  C   UNL     1       8.694   2.710  -2.019  0.00  0.00    +0.009 C 
ATOM     15  C   UNL     1       8.451   1.826  -0.794  0.00  0.00    +0.014 C 
ATOM     16  C   UNL     1       9.600   0.826  -0.650  0.00  0.00    +0.009 C 
ENDBRANCH   4  15
ENDBRANCH   2   4
ENDBRANCH   1   2
BRANCH   1  17
ATOM     17  C   UNL     1       4.828   3.999   0.193  0.00  0.00    +0.328 C 
BRANCH  17  18
ATOM     18  C   UNL     1       3.538   3.227   0.087  0.00  0.00    +0.255 C 
ATOM     19  O   UNL     1       3.556   2.014   0.081  0.00  0.00    -0.272 OA
ATOM     20  N   UNL     1       2.365   3.884   0.001  0.00  0.00    -0.283 N 
ATOM     21  H   UNL     1       2.353   4.981  -0.080  0.00  0.00    +0.155 HD
BRANCH  20  22
ATOM     22  C   UNL     1       1.159   3.170   0.014  0.00  0.00    +0.037 A 
ATOM     23  C   UNL     1       1.052   2.004   0.759  0.00  0.00    +0.027 A 
ATOM     24  C   UNL     1      -0.137   1.299   0.774  0.00  0.00    +0.051 A 
ATOM     25  C   UNL     1      -1.222   1.750   0.040  0.00  0.00    +0.173 A 
ATOM     26  C   UNL     1      -1.118   2.923  -0.704  0.00  0.00    +0.174 A 
ATOM     27  C   UNL     1       0.073   3.629  -0.718  0.00  0.00    +0.073 A 
ATOM     28  O   UNL     1      -2.313   3.153  -1.324  0.00  0.00    -0.395 OA
ATOM     29  C   UNL     1      -3.013   1.891  -1.287  0.00  0.00    +0.589 C 
ATOM     30  O   UNL     1      -2.481   1.244  -0.116  0.00  0.00    -0.395 OA
ATOM     31  F   UNL     1      -2.743   1.134  -2.432  0.00  0.00    -0.125 F 
ATOM     32  F   UNL     1      -4.389   2.101  -1.151  0.00  0.00    -0.125 F 
ENDBRANCH  20  22
ENDBRANCH  17  18
ENDBRANCH   1  17
TORSDOF 8
