REMARK  Name = ZINC59892332
REMARK  10 active torsions:
REMARK  status: ('A' for Active; 'I' for Inactive)
REMARK    1  A    between atoms: C_1  and  C_2
REMARK    2  A    between atoms: C_2  and  C_3
REMARK    3  A    between atoms: C_3  and  C_5
REMARK    4  A    between atoms: C_3  and  C_6
REMARK    5  A    between atoms: C_9  and  S_12
REMARK    6  A    between atoms: S_12  and  N_15
REMARK    7  A    between atoms: C_21  and  C_23
REMARK    8  A    between atoms: C_23  and  C_25
REMARK    9  A    between atoms: C_23  and  N_26
REMARK   10  A    between atoms: C_27  and  C_29
REMARK                            x       y       z     vdW  Elec       q    Type
REMARK                         _______ _______ _______ _____ _____    ______ ____
ROOT
ATOM      1  N   UNL     1      -1.496  -7.885  -1.170  0.00  0.00    -0.174 NA
ATOM      2  C   UNL     1      -1.451  -8.170   0.271  0.00  0.00    +0.128 C 
ATOM      3  C   UNL     1      -2.152  -7.029   1.018  0.00  0.00    +0.125 C 
ATOM      4  N   UNL     1      -3.456  -6.785   0.386  0.00  0.00    -0.297 N 
ATOM      5  C   UNL     1      -3.502  -6.501  -1.056  0.00  0.00    +0.125 C 
ATOM      6  C   UNL     1      -2.800  -7.636  -1.802  0.00  0.00    +0.128 C 
ATOM      7  C   UNL     1      -4.590  -6.822   1.114  0.00  0.00    +0.236 C 
ATOM      8  O   UNL     1      -5.649  -6.527   0.602  0.00  0.00    -0.274 OA
ENDROOT
BRANCH   1   9
ATOM      9  S   UNL     1      -0.103  -7.839  -2.065  0.00  0.00    +0.061 S 
ATOM     10  O   UNL     1      -0.476  -8.100  -3.411  0.00  0.00    -0.153 OA
ATOM     11  O   UNL     1       0.851  -8.632  -1.371  0.00  0.00    -0.153 OA
BRANCH   9  15
ATOM     12  C   UNL     1       1.425  -3.580  -1.949  0.00  0.00    -0.044 A 
ATOM     13  C   UNL     1       1.829  -4.486  -0.986  0.00  0.00    +0.006 A 
ATOM     14  C   UNL     1       1.362  -5.786  -1.021  0.00  0.00    +0.029 A 
ATOM     15  C   UNL     1       0.491  -6.181  -2.019  0.00  0.00    +0.105 A 
ATOM     16  C   UNL     1       0.086  -5.275  -2.982  0.00  0.00    +0.029 A 
ATOM     17  C   UNL     1       0.550  -3.974  -2.944  0.00  0.00    +0.006 A 
BRANCH  12  18
ATOM     18  C   UNL     1       1.934  -2.162  -1.910  0.00  0.00    +0.016 C 
ATOM     19  C   UNL     1       3.459  -2.164  -2.029  0.00  0.00    +0.012 C 
BRANCH  18  21
ATOM     20  C   UNL     1       1.934  -0.035  -0.600  0.00  0.00    +0.004 C 
ATOM     21  C   UNL     1       1.526  -1.510  -0.588  0.00  0.00    +0.004 C 
ENDBRANCH  18  21
ENDBRANCH  12  18
ENDBRANCH   9  15
ENDBRANCH   1   9
BRANCH   7  22
ATOM     22  C   UNL     1      -4.541  -7.231   2.563  0.00  0.00    +0.156 C 
ATOM     23  C   UNL     1      -4.155  -6.024   3.420  0.00  0.00    +0.038 C 
BRANCH  22  24
ATOM     24  N   UNL     1      -5.858  -7.722   2.977  0.00  0.00    -0.304 N 
ATOM     25  C   UNL     1      -5.962  -8.584   4.008  0.00  0.00    +0.217 C 
ATOM     26  O   UNL     1      -4.966  -8.952   4.593  0.00  0.00    -0.275 OA
ATOM     27  H   UNL     1      -6.654  -7.427   2.509  0.00  0.00    +0.149 HD
BRANCH  25  28
ATOM     28  C   UNL     1      -7.317  -9.089   4.433  0.00  0.00    +0.075 C 
ATOM     29  C   UNL     1      -8.195  -7.907   4.849  0.00  0.00    +0.013 C 
ATOM     30  C   UNL     1      -9.570  -8.420   5.281  0.00  0.00    +0.001 C 
ATOM     31  C   UNL     1      -9.409  -9.377   6.464  0.00  0.00    +0.000 C 
ATOM     32  C   UNL     1      -8.531 -10.559   6.048  0.00  0.00    +0.001 C 
ATOM     33  C   UNL     1      -7.155 -10.046   5.617  0.00  0.00    +0.013 C 
ENDBRANCH  25  28
ENDBRANCH  22  24
ENDBRANCH   7  22
TORSDOF 7
