REMARK  Name = ZINC20984954
REMARK  9 active torsions:
REMARK  status: ('A' for Active; 'I' for Inactive)
REMARK    1  A    between atoms: C_1  and  N_2
REMARK    2  A    between atoms: N_2  and  C_3
REMARK    3  A    between atoms: N_2  and  C_23
REMARK    4  A    between atoms: C_3  and  C_4
REMARK    5  A    between atoms: C_4  and  C_5
REMARK    6  A    between atoms: C_5  and  N_6
REMARK    7  A    between atoms: N_6  and  S_7
REMARK    8  A    between atoms: S_7  and  C_10
REMARK    9  A    between atoms: C_13  and  C_15
REMARK                            x       y       z     vdW  Elec       q    Type
REMARK                         _______ _______ _______ _____ _____    ______ ____
ROOT
ATOM      1  S   UNL     1      -2.784  -2.847   0.385  0.00  0.00    +0.065 S 
ATOM      2  O   UNL     1      -2.455  -4.224   0.263  0.00  0.00    -0.153 OA
ATOM      3  O   UNL     1      -3.287  -2.288   1.590  0.00  0.00    -0.153 OA
ENDROOT
BRANCH   1   4
ATOM      4  C   UNL     1      -3.975  -2.501  -0.867  0.00  0.00    +0.143 A 
ATOM      5  C   UNL     1      -4.195  -3.151  -2.039  0.00  0.00    +0.037 A 
ATOM      6  C   UNL     1      -5.194  -2.705  -2.876  0.00  0.00    +0.020 A 
ATOM      7  C   UNL     1      -5.927  -1.610  -2.502  0.00  0.00    +0.041 A 
ATOM      8  S   UNL     1      -5.196  -1.200  -0.925  0.00  0.00    -0.067 S 
BRANCH   7   9
ATOM      9  C   UNL     1      -7.034  -0.941  -3.217  0.00  0.00    +0.098 A 
ATOM     10  C   UNL     1      -7.662   0.191  -2.644  0.00  0.00    +0.036 A 
ATOM     11  C   UNL     1      -8.679   0.781  -3.332  0.00  0.00    +0.073 A 
ATOM     12  C   UNL     1      -9.045   0.226  -4.579  0.00  0.00    +0.265 A 
ATOM     13  O   UNL     1      -9.950   0.721  -5.231  0.00  0.00    -0.266 OA
ATOM     14  N   UNL     1      -8.388  -0.854  -5.043  0.00  0.00    -0.243 N 
ATOM     15  H   UNL     1      -8.670  -1.296  -6.010  0.00  0.00    +0.192 HD
ATOM     16  N   UNL     1      -7.428  -1.396  -4.385  0.00  0.00    -0.170 NA
ENDBRANCH   7   9
ENDBRANCH   1   4
BRANCH   1  17
ATOM     17  N   UNL     1      -1.413  -1.998   0.005  0.00  0.00    -0.190 NA
ATOM     18  H   UNL     1      -0.546  -2.534  -0.409  0.00  0.00    +0.148 HD
BRANCH  17  19
ATOM     19  C   UNL     1      -1.433  -0.534   0.013  0.00  0.00    +0.104 C 
BRANCH  19  20
ATOM     20  C   UNL     1       0.002  -0.004   0.002  0.00  0.00    -0.002 C 
BRANCH  20  21
ATOM     21  C   UNL     1      -0.019   1.526   0.010  0.00  0.00    -0.078 C 
BRANCH  21  23
ATOM     22  C   UNL     1       2.058   1.687   1.245  0.00  0.00    -0.096 C 
ATOM     23  N   UNL     1       1.359   2.034   0.000  0.00  0.00    +0.380 N 
ATOM     24  H   UNL     1       1.892   1.551  -0.832  0.00  0.00    -0.082 HD
BRANCH  23  25
ATOM     25  C   UNL     1       1.384   3.485  -0.231  0.00  0.00    -0.069 C 
ATOM     26  C   UNL     1       0.735   3.797  -1.581  0.00  0.00    -0.015 C 
ATOM     27  C   UNL     1       0.760   5.308  -1.821  0.00  0.00    -0.002 C 
ATOM     28  C   UNL     1       2.209   5.800  -1.825  0.00  0.00    -0.000 C 
ATOM     29  C   UNL     1       2.858   5.487  -0.475  0.00  0.00    -0.002 C 
ATOM     30  C   UNL     1       2.833   3.977  -0.235  0.00  0.00    -0.015 C 
ENDBRANCH  23  25
ENDBRANCH  21  23
ENDBRANCH  20  21
ENDBRANCH  19  20
ENDBRANCH  17  19
ENDBRANCH   1  17
TORSDOF 8
