REMARK  Name = ZINC13146433
REMARK  14 active torsions:
REMARK  status: ('A' for Active; 'I' for Inactive)
REMARK    1  A    between atoms: C_1  and  C_2
REMARK    2  A    between atoms: C_3  and  C_33
REMARK    3  A    between atoms: C_4  and  N_11
REMARK    4  A    between atoms: C_6  and  C_7
REMARK    5  A    between atoms: C_7  and  O_9
REMARK    6  A    between atoms: O_9  and  C_10
REMARK    7  A    between atoms: C_12  and  C_14
REMARK    8  A    between atoms: C_14  and  O_15
REMARK    9  A    between atoms: O_15  and  C_16
REMARK   10  A    between atoms: C_16  and  C_18
REMARK   11  A    between atoms: C_18  and  C_19
REMARK   12  A    between atoms: C_19  and  N_20
REMARK   13  A    between atoms: C_33  and  O_35
REMARK   14  A    between atoms: O_35  and  C_36
REMARK                            x       y       z     vdW  Elec       q    Type
REMARK                         _______ _______ _______ _____ _____    ______ ____
ROOT
ATOM      1  N   UNL     1       0.033  -3.047  -2.112  0.00  0.00    -0.277 N 
ATOM      2  C   UNL     1       0.052  -4.365  -1.832  0.00  0.00    +0.255 C 
ATOM      3  O   UNL     1       0.063  -4.740  -0.679  0.00  0.00    -0.272 OA
ATOM      4  H   UNL     1       0.024  -2.747  -3.034  0.00  0.00    +0.155 HD
ENDROOT
BRANCH   1   8
ATOM      5  C   UNL     1      -0.018   1.503   0.010  0.00  0.00    +0.046 C 
ATOM      6  C   UNL     1       0.002  -0.004   0.002  0.00  0.00    -0.014 A 
ATOM      7  C   UNL     1       0.006  -0.730  -1.181  0.00  0.00    +0.091 A 
ATOM      8  C   UNL     1       0.025  -2.123  -1.085  0.00  0.00    +0.087 A 
ATOM      9  S   UNL     1       0.037  -2.413   0.569  0.00  0.00    -0.066 S 
ATOM     10  C   UNL     1       0.024  -0.733   1.162  0.00  0.00    +0.102 A 
BRANCH  10  11
ATOM     11  C   UNL     1       0.031  -0.252   2.543  0.00  0.00    +0.346 C 
ATOM     12  O   UNL     1       0.018   0.943   2.770  0.00  0.00    -0.244 OA
BRANCH  11  13
ATOM     13  O   UNL     1       0.053  -1.133   3.564  0.00  0.00    -0.464 OA
ATOM     14  C   UNL     1       0.060  -0.593   4.887  0.00  0.00    +0.280 C 
ENDBRANCH  11  13
ENDBRANCH  10  11
BRANCH   7  15
ATOM     15  C   UNL     1      -0.010  -0.058  -2.485  0.00  0.00    +0.342 C 
ATOM     16  O   UNL     1       1.036   0.236  -3.031  0.00  0.00    -0.245 OA
BRANCH  15  17
ATOM     17  O   UNL     1      -1.185   0.235  -3.078  0.00  0.00    -0.464 OA
ATOM     18  C   UNL     1      -1.126   0.890  -4.347  0.00  0.00    +0.280 C 
ENDBRANCH  15  17
ENDBRANCH   7  15
ENDBRANCH   1   8
BRANCH   2  19
ATOM     19  C   UNL     1       0.060  -5.373  -2.952  0.00  0.00    +0.328 C 
BRANCH  19  20
ATOM     20  O   UNL     1       0.081  -6.693  -2.405  0.00  0.00    -0.455 OA
BRANCH  20  21
ATOM     21  C   UNL     1       0.090  -7.714  -3.276  0.00  0.00    +0.309 C 
ATOM     22  O   UNL     1       0.082  -7.494  -4.464  0.00  0.00    -0.251 OA
BRANCH  21  23
ATOM     23  C   UNL     1       0.112  -9.134  -2.772  0.00  0.00    +0.140 C 
BRANCH  23  24
ATOM     24  C   UNL     1       0.119 -10.097  -3.962  0.00  0.00    +0.127 C 
BRANCH  24  25
ATOM     25  N   UNL     1       0.141 -11.477  -3.472  0.00  0.00    -0.241 N 
ATOM     26  C   UNL     1       1.287 -12.162  -3.223  0.00  0.00    +0.226 C 
ATOM     27  O   UNL     1       2.410 -11.844  -3.552  0.00  0.00    -0.275 OA
ATOM     28  C   UNL     1       0.886 -13.388  -2.461  0.00  0.00    +0.091 C 
ATOM     29  C   UNL     1       1.662 -14.667  -2.699  0.00  0.00    +0.040 C 
ATOM     30  C   UNL     1       0.849 -15.793  -2.096  0.00  0.00    -0.030 C 
ATOM     31  C   UNL     1      -0.414 -15.712  -1.807  0.00  0.00    -0.030 C 
ATOM     32  C   UNL     1      -1.271 -14.488  -2.053  0.00  0.00    +0.040 C 
ATOM     33  C   UNL     1      -0.543 -13.617  -3.044  0.00  0.00    +0.091 C 
ATOM     34  C   UNL     1      -0.985 -12.195  -3.218  0.00  0.00    +0.226 C 
ATOM     35  O   UNL     1      -2.118 -11.770  -3.147  0.00  0.00    -0.275 OA
ENDBRANCH  24  25
ENDBRANCH  23  24
ENDBRANCH  21  23
ENDBRANCH  20  21
ENDBRANCH  19  20
ENDBRANCH   2  19
TORSDOF 11
