REMARK  Name = ZINC36583708
REMARK  15 active torsions:
REMARK  status: ('A' for Active; 'I' for Inactive)
REMARK    1  A    between atoms: C_1  and  C_2
REMARK    2  A    between atoms: C_2  and  C_3
REMARK    3  A    between atoms: C_2  and  C_4
REMARK    4  A    between atoms: C_2  and  N_5
REMARK    5  A    between atoms: C_6  and  C_8
REMARK    6  A    between atoms: C_8  and  C_10
REMARK    7  A    between atoms: C_8  and  N_20
REMARK    8  A    between atoms: C_13  and  C_16
REMARK    9  A    between atoms: N_20  and  C_35
REMARK   10  A    between atoms: C_21  and  C_23
REMARK   11  A    between atoms: C_25  and  N_32
REMARK   12  A    between atoms: C_27  and  N_29
REMARK   13  A    between atoms: C_35  and  C_36
REMARK   14  A    between atoms: C_35  and  C_37
REMARK   15  A    between atoms: C_35  and  C_38
REMARK                            x       y       z     vdW  Elec       q    Type
REMARK                         _______ _______ _______ _____ _____    ______ ____
ROOT
ATOM      1  C   UNL     1       6.602  -0.335  -0.189  0.00  0.00    +0.193 C 
ENDROOT
BRANCH   1   2
ATOM      2  C   UNL     1       7.698   0.001   0.789  0.00  0.00    -0.018 A 
ATOM      3  C   UNL     1       8.241   1.271   0.810  0.00  0.00    +0.006 A 
ATOM      4  C   UNL     1       9.246   1.579   1.708  0.00  0.00    +0.013 A 
ATOM      5  C   UNL     1       9.707   0.616   2.586  0.00  0.00    +0.055 A 
ATOM      6  C   UNL     1       9.163  -0.655   2.566  0.00  0.00    +0.013 A 
ATOM      7  C   UNL     1       8.155  -0.961   1.671  0.00  0.00    +0.006 A 
BRANCH   5   8
ATOM      8  C   UNL     1      10.804   0.951   3.564  0.00  0.00    +0.417 C 
ATOM      9  F   UNL     1      10.239   1.428   4.752  0.00  0.00    -0.166 F 
ATOM     10  F   UNL     1      11.555  -0.198   3.834  0.00  0.00    -0.166 F 
ATOM     11  F   UNL     1      11.634   1.933   3.015  0.00  0.00    -0.166 F 
ENDBRANCH   5   8
ENDBRANCH   1   2
BRANCH   1  13
ATOM     12  N   UNL     1       5.302  -1.778   1.342  0.00  0.00    -0.309 N 
ATOM     13  C   UNL     1       5.343  -0.678   0.564  0.00  0.00    +0.239 C 
ATOM     14  O   UNL     1       4.366   0.035   0.470  0.00  0.00    -0.273 OA
ATOM     15  H   UNL     1       6.083  -2.348   1.417  0.00  0.00    +0.149 HD
BRANCH  12  17
ATOM     16  C   UNL     1       2.931  -2.317   1.084  0.00  0.00    +0.031 C 
ATOM     17  C   UNL     1       4.078  -2.112   2.075  0.00  0.00    +0.026 C 
ATOM     18  C   UNL     1       3.728  -0.969   3.030  0.00  0.00    +0.031 C 
ATOM     19  C   UNL     1       4.297  -3.397   2.875  0.00  0.00    +0.031 C 
ENDBRANCH  12  17
ENDBRANCH   1  13
BRANCH   1  20
ATOM     20  N   UNL     1       6.352   0.819  -1.057  0.00  0.00    -0.277 N 
ATOM     21  C   UNL     1       6.163   2.039  -0.518  0.00  0.00    +0.248 C 
ATOM     22  O   UNL     1       5.813   2.144   0.642  0.00  0.00    -0.270 OA
BRANCH  21  23
ATOM     23  C   UNL     1       6.380   3.251  -1.336  0.00  0.00    +0.041 A 
ATOM     24  C   UNL     1       5.680   3.425  -2.531  0.00  0.00    +0.046 A 
ATOM     25  C   UNL     1       5.888   4.558  -3.290  0.00  0.00    +0.129 A 
ATOM     26  C   UNL     1       6.787   5.522  -2.869  0.00  0.00    +0.065 A 
ATOM     27  C   UNL     1       7.484   5.356  -1.685  0.00  0.00    +0.129 A 
ATOM     28  C   UNL     1       7.282   4.230  -0.914  0.00  0.00    +0.046 A 
BRANCH  27  29
ATOM     29  N   UNL     1       8.444   6.391  -1.242  0.00  0.00    +0.057 N 
ATOM     30  O   UNL     1       8.619   7.381  -1.914  0.00  0.00    -0.126 OA
ATOM     31  O   UNL     1       9.054   6.248  -0.208  0.00  0.00    -0.126 OA
ENDBRANCH  27  29
BRANCH  25  32
ATOM     32  N   UNL     1       5.146   4.744  -4.558  0.00  0.00    +0.057 N 
ATOM     33  O   UNL     1       4.294   3.950  -4.881  0.00  0.00    -0.126 OA
ATOM     34  O   UNL     1       5.394   5.690  -5.269  0.00  0.00    -0.126 OA
ENDBRANCH  25  32
ENDBRANCH  21  23
BRANCH  20  35
ATOM     35  C   UNL     1       6.309   0.646  -2.511  0.00  0.00    +0.030 C 
ATOM     36  C   UNL     1       6.992  -0.670  -2.889  0.00  0.00    +0.031 C 
ATOM     37  C   UNL     1       4.853   0.618  -2.978  0.00  0.00    +0.031 C 
ATOM     38  C   UNL     1       7.038   1.810  -3.185  0.00  0.00    +0.031 C 
ENDBRANCH  20  35
ENDBRANCH   1  20
TORSDOF 9
