REMARK  Name = ZINC09530588
REMARK  8 active torsions:
REMARK  status: ('A' for Active; 'I' for Inactive)
REMARK    1  A    between atoms: C_1  and  C_2
REMARK    2  A    between atoms: C_2  and  C_3
REMARK    3  A    between atoms: C_8  and  N_9
REMARK    4  A    between atoms: C_10  and  C_12
REMARK    5  A    between atoms: C_12  and  N_66
REMARK    6  A    between atoms: C_18  and  C_20
REMARK    7  A    between atoms: C_20  and  C_21
REMARK    8  A    between atoms: C_21  and  N_22
REMARK                            x       y       z     vdW  Elec       q    Type
REMARK                         _______ _______ _______ _____ _____    ______ ____
ROOT
ATOM      1  C   UNL     1      -4.168   5.576   3.587  0.00  0.00    -0.059 C 
ATOM      2  C   UNL     1      -4.389   4.372   2.665  0.00  0.00    +0.089 C 
ATOM      3  N   UNL     1      -3.258   3.446   2.828  0.00  0.00    -0.305 N 
ATOM      4  C   UNL     1      -2.890   3.030   4.190  0.00  0.00    +0.089 C 
ATOM      5  C   UNL     1      -2.725   4.292   5.052  0.00  0.00    -0.059 C 
ATOM      6  C   UNL     1      -2.580   2.986   1.758  0.00  0.00    +0.217 C 
ATOM      7  O   UNL     1      -2.901   3.336   0.642  0.00  0.00    -0.276 OA
ATOM      8  N   UNL     1      -3.969   5.087   4.968  0.00  0.00    +0.387 N 
ATOM      9  H   UNL     1      -4.763   4.491   5.228  0.00  0.00    -0.081 HD
ENDROOT
BRANCH   8  10
ATOM     10  C   UNL     1      -3.900   6.230   5.903  0.00  0.00    +0.019 C 
BRANCH  10  12
ATOM     11  N   UNL     1      -2.397   8.130   6.403  0.00  0.00    -0.287 N 
ATOM     12  C   UNL     1      -2.704   7.094   5.597  0.00  0.00    +0.201 C 
ATOM     13  O   UNL     1      -2.018   6.858   4.625  0.00  0.00    -0.278 OA
ATOM     14  H   UNL     1      -2.908   8.281   7.214  0.00  0.00    +0.155 HD
BRANCH  11  20
ATOM     15  C   UNL     1      -1.409  10.333   6.403  0.00  0.00    -0.026 A 
ATOM     16  C   UNL     1      -0.366  11.177   6.073  0.00  0.00    +0.005 A 
ATOM     17  C   UNL     1       0.743  10.682   5.412  0.00  0.00    +0.000 A 
ATOM     18  C   UNL     1       0.812   9.341   5.080  0.00  0.00    +0.002 A 
ATOM     19  C   UNL     1      -0.225   8.492   5.411  0.00  0.00    +0.023 A 
ATOM     20  C   UNL     1      -1.343   8.987   6.070  0.00  0.00    +0.036 A 
BRANCH  15  22
ATOM     21  C   UNL     1      -2.450  10.661   8.629  0.00  0.00    +0.009 C 
ATOM     22  C   UNL     1      -2.617  10.874   7.124  0.00  0.00    +0.033 C 
ENDBRANCH  15  22
ENDBRANCH  11  20
ENDBRANCH  10  12
ENDBRANCH   8  10
BRANCH   6  23
ATOM     23  C   UNL     1      -1.425   2.038   1.948  0.00  0.00    +0.115 C 
BRANCH  23  24
ATOM     24  C   UNL     1      -0.835   1.673   0.584  0.00  0.00    +0.127 C 
BRANCH  24  25
ATOM     25  N   UNL     1       0.289   0.751   0.769  0.00  0.00    -0.224 N 
ATOM     26  C   UNL     1       0.171  -0.594   0.793  0.00  0.00    +0.247 C 
ATOM     27  O   UNL     1      -0.845  -1.246   0.677  0.00  0.00    -0.273 OA
ATOM     28  C   UNL     1       1.572  -1.112   0.997  0.00  0.00    +0.113 C 
ATOM     29  C   UNL     1       2.003  -2.010  -0.170  0.00  0.00    +0.035 C 
ATOM     30  C   UNL     1       2.888  -3.094   0.498  0.00  0.00    +0.003 C 
ATOM     31  C   UNL     1       2.169  -3.342   1.848  0.00  0.00    +0.003 C 
ATOM     32  C   UNL     1       1.676  -1.943   2.278  0.00  0.00    +0.035 C 
ATOM     33  N   UNL     1       2.401   0.093   1.073  0.00  0.00    -0.285 N 
ATOM     34  C   UNL     1       1.561   1.137   0.928  0.00  0.00    +0.309 C 
ATOM     35  O   UNL     1       1.919   2.299   0.941  0.00  0.00    -0.252 OA
ATOM     36  H   UNL     1       3.362   0.131   1.201  0.00  0.00    +0.151 HD
ENDBRANCH  24  25
ENDBRANCH  23  24
ENDBRANCH   6  23
TORSDOF 7
