REMARK  Name = ZINC35374822
REMARK  8 active torsions:
REMARK  status: ('A' for Active; 'I' for Inactive)
REMARK    1  A    between atoms: C_1  and  C_2
REMARK    2  A    between atoms: C_2  and  C_3
REMARK    3  A    between atoms: C_2  and  C_4
REMARK    4  A    between atoms: C_4  and  C_5
REMARK    5  A    between atoms: C_5  and  C_7
REMARK    6  A    between atoms: C_5  and  N_15
REMARK    7  A    between atoms: N_9  and  C_10
REMARK    8  A    between atoms: C_16  and  C_18
REMARK                            x       y       z     vdW  Elec       q    Type
REMARK                         _______ _______ _______ _____ _____    ______ ____
ROOT
ATOM      1  N   UNL     1      -1.330  -0.821   2.503  0.00  0.00    -0.303 N 
ATOM      2  C   UNL     1      -2.382  -0.298   1.842  0.00  0.00    +0.231 C 
ATOM      3  O   UNL     1      -2.262   0.749   1.243  0.00  0.00    -0.274 OA
ATOM      4  H   UNL     1      -1.426  -1.658   2.983  0.00  0.00    +0.149 HD
ENDROOT
BRANCH   2   5
ATOM      5  C   UNL     1      -3.708  -1.015   1.848  0.00  0.00    +0.145 C 
ATOM      6  C   UNL     1      -3.685  -2.145   0.819  0.00  0.00    +0.063 C 
ATOM      7  C   UNL     1      -5.071  -2.710   0.644  0.00  0.00    -0.041 A 
ATOM      8  C   UNL     1      -5.209  -3.951   0.041  0.00  0.00    +0.004 A 
ATOM      9  C   UNL     1      -6.461  -4.502  -0.142  0.00  0.00    +0.000 A 
ATOM     10  C   UNL     1      -7.584  -3.813   0.277  0.00  0.00    +0.000 A 
ATOM     11  C   UNL     1      -7.448  -2.579   0.879  0.00  0.00    +0.005 A 
ATOM     12  C   UNL     1      -6.190  -2.024   1.066  0.00  0.00    -0.030 A 
ATOM     13  C   UNL     1      -6.092  -0.679   1.737  0.00  0.00    +0.117 C 
ATOM     14  N   UNL     1      -4.780  -0.074   1.491  0.00  0.00    -0.301 NA
ATOM     15  H   UNL     1      -4.681   0.796   1.993  0.00  0.00    +0.123 HD
ENDBRANCH   2   5
BRANCH   1  16
ATOM     16  C   UNL     1      -0.042  -0.124   2.497  0.00  0.00    +0.159 C 
BRANCH  16  17
ATOM     17  C   UNL     1       0.746  -0.514   3.721  0.00  0.00    +0.234 C 
ATOM     18  O   UNL     1       0.277  -1.297   4.520  0.00  0.00    -0.274 OA
ATOM     19  N   UNL     1       1.972   0.008   3.929  0.00  0.00    -0.311 N 
ATOM     20  H   UNL     1       2.346   0.634   3.290  0.00  0.00    +0.149 HD
BRANCH  19  21
ATOM     21  C   UNL     1       2.737  -0.372   5.118  0.00  0.00    +0.073 C 
ATOM     22  C   UNL     1       2.381   0.559   6.295  0.00  0.00    +0.022 C 
ATOM     23  C   UNL     1       3.723   0.761   7.041  0.00  0.00    +0.002 C 
ATOM     24  C   UNL     1       4.748   0.843   5.883  0.00  0.00    +0.002 C 
ATOM     25  C   UNL     1       4.243  -0.191   4.856  0.00  0.00    +0.022 C 
ENDBRANCH  19  21
ENDBRANCH  16  17
BRANCH  16  26
ATOM     26  C   UNL     1       0.742  -0.511   1.242  0.00  0.00    +0.034 C 
BRANCH  26  28
ATOM     27  C   UNL     1      -0.019   1.526   0.010  0.00  0.00    +0.007 C 
ATOM     28  C   UNL     1       0.002  -0.004   0.002  0.00  0.00    -0.015 C 
ATOM     29  C   UNL     1       0.718  -0.497  -1.257  0.00  0.00    +0.007 C 
ENDBRANCH  26  28
ENDBRANCH  16  26
ENDBRANCH   1  16
TORSDOF 6
