REMARK  Name = ZINC62811381
REMARK  6 active torsions:
REMARK  status: ('A' for Active; 'I' for Inactive)
REMARK    1  A    between atoms: C_1  and  C_2
REMARK    2  A    between atoms: C_6  and  C_7
REMARK    3  A    between atoms: C_7  and  N_8
REMARK    4  A    between atoms: N_8  and  C_9
REMARK    5  A    between atoms: C_10  and  C_12
REMARK    6  A    between atoms: C_13  and  N_18
REMARK                            x       y       z     vdW  Elec       q    Type
REMARK                         _______ _______ _______ _____ _____    ______ ____
ROOT
ATOM      1  N   UNL     1      -1.086  -0.125   3.205  0.00  0.00    -0.294 N 
ATOM      2  C   UNL     1      -1.693  -1.158   4.047  0.00  0.00    +0.132 C 
ATOM      3  C   UNL     1      -1.667   1.087   3.100  0.00  0.00    +0.269 C 
ATOM      4  O   UNL     1      -1.219   1.911   2.326  0.00  0.00    -0.268 OA
ENDROOT
BRANCH   3   5
ATOM      5  C   UNL     1      -2.846   1.413   3.923  0.00  0.00    +0.167 A 
ATOM      6  C   UNL     1      -3.623   2.598   3.852  0.00  0.00    +0.075 A 
ATOM      7  C   UNL     1      -4.593   2.451   4.792  0.00  0.00    +0.128 A 
ATOM      8  N   UNL     1      -4.395   1.244   5.384  0.00  0.00    -0.282 N 
ATOM      9  H   UNL     1      -4.944   0.878   6.095  0.00  0.00    +0.188 HD
ATOM     10  N   UNL     1      -3.380   0.655   4.862  0.00  0.00    -0.167 NA
BRANCH   6  11
ATOM     11  N   UNL     1      -3.430   3.689   2.992  0.00  0.00    -0.355 N 
ATOM     12  H   UNL     1      -2.698   3.683   2.356  0.00  0.00    +0.142 HD
ATOM     13  H   UNL     1      -4.030   4.450   3.034  0.00  0.00    +0.142 HD
ENDBRANCH   6  11
ENDBRANCH   3   5
BRANCH   1  14
ATOM     14  C   UNL     1       0.153  -0.409   2.476  0.00  0.00    +0.150 C 
BRANCH  14  20
ATOM     15  C   UNL     1      -0.038   0.869  -0.311  0.00  0.00    +0.044 C 
ATOM     16  C   UNL     1      -0.270  -0.600  -0.067  0.00  0.00    -0.039 A 
ATOM     17  C   UNL     1      -0.579  -1.445  -1.116  0.00  0.00    +0.011 A 
ATOM     18  C   UNL     1      -0.782  -2.761  -0.862  0.00  0.00    +0.046 A 
ATOM     19  S   UNL     1      -0.536  -2.838   0.905  0.00  0.00    -0.100 S 
ATOM     20  C   UNL     1      -0.173  -1.113   1.184  0.00  0.00    +0.010 A 
ENDBRANCH  14  20
ENDBRANCH   1  14
TORSDOF 4
