REMARK  Name = ZINC35697754
REMARK  13 active torsions:
REMARK  status: ('A' for Active; 'I' for Inactive)
REMARK    1  A    between atoms: C_1  and  C_2
REMARK    2  A    between atoms: C_3  and  C_32
REMARK    3  A    between atoms: C_4  and  C_22
REMARK    4  A    between atoms: C_7  and  C_12
REMARK    5  A    between atoms: C_13  and  N_15
REMARK    6  A    between atoms: N_15  and  C_16
REMARK    7  A    between atoms: C_16  and  C_17
REMARK    8  A    between atoms: C_25  and  O_30
REMARK    9  A    between atoms: C_26  and  O_28
REMARK   10  A    between atoms: O_28  and  C_29
REMARK   11  A    between atoms: O_30  and  C_31
REMARK   12  A    between atoms: C_32  and  O_34
REMARK   13  A    between atoms: O_34  and  C_35
REMARK                            x       y       z     vdW  Elec       q    Type
REMARK                         _______ _______ _______ _____ _____    ______ ____
ROOT
ATOM      1  C   UNL     1       0.371   1.073   0.649  0.00  0.00    +0.066 C 
ATOM      2  C   UNL     1       0.281  -0.409   0.388  0.00  0.00    +0.053 C 
ATOM      3  C   UNL     1      -0.956  -1.022   0.338  0.00  0.00    +0.082 C 
ATOM      4  C   UNL     1      -0.994  -2.511   0.072  0.00  0.00    +0.150 C 
ATOM      5  N   UNL     1       0.311  -3.199  -0.115  0.00  0.00    -0.267 N 
ATOM      6  C   UNL     1       0.514  -4.541  -0.366  0.00  0.00    +0.048 C 
ATOM      7  C   UNL     1       1.790  -4.967  -0.505  0.00  0.00    +0.072 C 
ATOM      8  S   UNL     1       2.709  -3.457  -0.278  0.00  0.00    -0.060 S 
ATOM      9  C   UNL     1       1.423  -2.408  -0.027  0.00  0.00    +0.166 C 
ATOM     10  N   UNL     1       1.386  -1.112   0.203  0.00  0.00    -0.230 NA
ENDROOT
BRANCH   4  11
ATOM     11  C   UNL     1      -1.704  -3.170   1.227  0.00  0.00    -0.018 A 
ATOM     12  C   UNL     1      -1.064  -3.302   2.445  0.00  0.00    +0.009 A 
ATOM     13  C   UNL     1      -1.710  -3.906   3.507  0.00  0.00    +0.050 A 
ATOM     14  C   UNL     1      -3.003  -4.380   3.353  0.00  0.00    +0.162 A 
ATOM     15  C   UNL     1      -3.648  -4.246   2.127  0.00  0.00    +0.162 A 
ATOM     16  C   UNL     1      -2.996  -3.635   1.067  0.00  0.00    +0.055 A 
BRANCH  15  17
ATOM     17  O   UNL     1      -4.917  -4.709   1.970  0.00  0.00    -0.491 OA
ATOM     18  C   UNL     1      -5.477  -4.635   0.657  0.00  0.00    +0.277 C 
ENDBRANCH  15  17
BRANCH  14  19
ATOM     19  O   UNL     1      -3.641  -4.974   4.396  0.00  0.00    -0.491 OA
ATOM     20  C   UNL     1      -2.918  -5.077   5.624  0.00  0.00    +0.277 C 
ENDBRANCH  14  19
ENDBRANCH   4  11
BRANCH   6  21
ATOM     21  C   UNL     1      -0.616  -5.474  -0.478  0.00  0.00    +0.091 C 
ATOM     22  C   UNL     1      -0.388  -6.796  -0.597  0.00  0.00    +0.239 C 
ATOM     23  O   UNL     1       0.873  -7.279  -0.487  0.00  0.00    -0.271 OA
BRANCH  22  24
ATOM     24  N   UNL     1      -1.443  -7.662  -0.831  0.00  0.00    -0.305 N 
ATOM     25  H   UNL     1      -2.353  -7.327  -0.836  0.00  0.00    +0.149 HD
BRANCH  24  26
ATOM     26  C   UNL     1      -1.185  -9.084  -1.071  0.00  0.00    +0.179 C 
BRANCH  26  27
ATOM     27  C   UNL     1      -2.477  -9.778  -1.416  0.00  0.00    +0.122 A 
ATOM     28  C   UNL     1      -2.978  -9.936  -2.654  0.00  0.00    +0.046 A 
ATOM     29  C   UNL     1      -4.197 -10.638  -2.516  0.00  0.00    +0.041 A 
ATOM     30  C   UNL     1      -4.368 -10.868  -1.201  0.00  0.00    +0.195 A 
ATOM     31  O   UNL     1      -3.320 -10.350  -0.541  0.00  0.00    -0.466 OA
ENDBRANCH  26  27
ENDBRANCH  24  26
ENDBRANCH  22  24
ENDBRANCH   6  21
BRANCH   3  32
ATOM     32  C   UNL     1      -2.135  -0.291   0.527  0.00  0.00    +0.339 C 
ATOM     33  O   UNL     1      -2.080   0.908   0.740  0.00  0.00    -0.245 OA
BRANCH  32  34
ATOM     34  O   UNL     1      -3.333  -0.914   0.473  0.00  0.00    -0.465 OA
ATOM     35  C   UNL     1      -4.494  -0.106   0.675  0.00  0.00    +0.280 C 
ENDBRANCH  32  34
ENDBRANCH   3  32
TORSDOF 9
