REMARK  Name = ZINC58886727
REMARK  9 active torsions:
REMARK  status: ('A' for Active; 'I' for Inactive)
REMARK    1  A    between atoms: C_4  and  C_7
REMARK    2  A    between atoms: C_7  and  C_9
REMARK    3  A    between atoms: C_7  and  O_30
REMARK    4  A    between atoms: C_9  and  C_10
REMARK    5  A    between atoms: C_10  and  C_11
REMARK    6  A    between atoms: N_13  and  N_14
REMARK    7  A    between atoms: C_15  and  C_16
REMARK    8  A    between atoms: C_19  and  C_21
REMARK    9  A    between atoms: C_26  and  N_27
REMARK                            x       y       z     vdW  Elec       q    Type
REMARK                         _______ _______ _______ _____ _____    ______ ____
ROOT
ATOM      1  N   UNL     1       7.241  -3.282   4.216  0.00  0.00    -0.185 NA
ATOM      2  C   UNL     1       8.406  -3.870   4.458  0.00  0.00    +0.176 C 
ENDROOT
BRANCH   2   3
ATOM      3  C   UNL     1       8.713  -4.300   5.742  0.00  0.00    +0.148 A 
ATOM      4  C   UNL     1       9.958  -4.959   6.167  0.00  0.00    +0.051 A 
ATOM      5  C   UNL     1       9.827  -5.202   7.496  0.00  0.00    +0.050 A 
ATOM      6  C   UNL     1       8.556  -4.719   7.895  0.00  0.00    +0.138 A 
ATOM      7  O   UNL     1       7.925  -4.187   6.834  0.00  0.00    -0.454 OA
BRANCH   6   8
ATOM      8  C   UNL     1       8.032  -4.783   9.210  0.00  0.00    +0.047 A 
ATOM      9  C   UNL     1       8.055  -5.997   9.925  0.00  0.00    +0.014 A 
ATOM     10  C   UNL     1       7.548  -6.047  11.192  0.00  0.00    +0.001 A 
ATOM     11  C   UNL     1       7.012  -4.908  11.776  0.00  0.00    +0.002 A 
ATOM     12  C   UNL     1       6.984  -3.707  11.082  0.00  0.00    +0.033 A 
ATOM     13  C   UNL     1       7.490  -3.633   9.815  0.00  0.00    +0.137 A 
BRANCH  13  14
ATOM     14  N   UNL     1       7.465  -2.349   9.079  0.00  0.00    +0.057 N 
ATOM     15  O   UNL     1       6.957  -1.274   9.647  0.00  0.00    -0.126 OA
ATOM     16  O   UNL     1       7.949  -2.281   7.856  0.00  0.00    -0.126 OA
ENDBRANCH  13  14
ENDBRANCH   6   8
ENDBRANCH   2   3
BRANCH   1  19
ATOM     17  C   UNL     1       5.773  -2.286   2.777  0.00  0.00    +0.232 C 
ATOM     18  O   UNL     1       4.979  -2.126   3.673  0.00  0.00    -0.274 OA
ATOM     19  N   UNL     1       6.956  -2.882   3.023  0.00  0.00    -0.207 N 
ATOM     20  H   UNL     1       7.594  -3.010   2.303  0.00  0.00    +0.177 HD
BRANCH  17  21
ATOM     21  C   UNL     1       5.440  -1.819   1.383  0.00  0.00    +0.100 C 
BRANCH  21  22
ATOM     22  C   UNL     1       4.049  -1.182   1.377  0.00  0.00    +0.045 C 
BRANCH  22  23
ATOM     23  C   UNL     1       3.711  -0.707  -0.038  0.00  0.00    +0.145 C 
BRANCH  23  27
ATOM     24  C   UNL     1      -0.017   1.378   0.010  0.00  0.00    +0.000 A 
ATOM     25  C   UNL     1       1.171   2.086   0.002  0.00  0.00    +0.000 A 
ATOM     26  C   UNL     1       2.377   1.411  -0.013  0.00  0.00    +0.006 A 
ATOM     27  C   UNL     1       2.396   0.029  -0.020  0.00  0.00    -0.019 A 
ATOM     28  C   UNL     1       1.208  -0.679  -0.012  0.00  0.00    +0.006 A 
ATOM     29  C   UNL     1       0.002  -0.004   0.002  0.00  0.00    +0.000 A 
ENDBRANCH  23  27
BRANCH  23  30
ATOM     30  O   UNL     1       3.614  -1.836  -0.908  0.00  0.00    -0.387 OA
ATOM     31  H   UNL     1       2.934  -2.474  -0.651  0.00  0.00    +0.210 HD
ENDBRANCH  23  30
ENDBRANCH  22  23
ENDBRANCH  21  22
ENDBRANCH  17  21
ENDBRANCH   1  19
TORSDOF 9
