REMARK  Name = ZINC39730775
REMARK  6 active torsions:
REMARK  status: ('A' for Active; 'I' for Inactive)
REMARK    1  A    between atoms: C_1  and  C_2
REMARK    2  A    between atoms: N_10  and  N_14
REMARK    3  A    between atoms: C_15  and  C_17
REMARK    4  A    between atoms: C_17  and  S_18
REMARK    5  A    between atoms: S_18  and  C_19
REMARK    6  A    between atoms: C_23  and  C_25
REMARK                            x       y       z     vdW  Elec       q    Type
REMARK                         _______ _______ _______ _____ _____    ______ ____
ROOT
ATOM      1  N   UNL     1       4.994  -3.352  -0.066  0.00  0.00    -0.223 N 
ATOM      2  C   UNL     1       5.664  -3.692   1.053  0.00  0.00    +0.240 C 
ATOM      3  O   UNL     1       5.056  -3.939   2.073  0.00  0.00    -0.273 OA
ATOM      4  H   UNL     1       5.481  -3.155  -0.881  0.00  0.00    +0.174 HD
ENDROOT
BRANCH   1  14
ATOM      5  C   UNL     1      -0.019   1.526   0.010  0.00  0.00    +0.007 C 
ATOM      6  C   UNL     1       0.002  -0.004   0.002  0.00  0.00    -0.014 C 
ATOM      7  C   UNL     1       0.718  -0.497  -1.257  0.00  0.00    +0.006 C 
ATOM      8  C   UNL     1       0.727  -2.028  -1.271  0.00  0.00    +0.035 C 
ATOM      9  C   UNL     1       1.439  -2.546  -0.026  0.00  0.00    +0.114 C 
ATOM     10  C   UNL     1       0.751  -2.042   1.238  0.00  0.00    +0.035 C 
ATOM     11  C   UNL     1       0.742  -0.511   1.242  0.00  0.00    +0.006 C 
ATOM     12  C   UNL     1       2.892  -2.132  -0.038  0.00  0.00    +0.263 C 
ATOM     13  O   UNL     1       3.334  -1.003  -0.036  0.00  0.00    -0.271 OA
ATOM     14  N   UNL     1       3.595  -3.284  -0.051  0.00  0.00    -0.137 N 
ATOM     15  C   UNL     1       2.789  -4.353  -0.049  0.00  0.00    +0.326 C 
ATOM     16  O   UNL     1       3.189  -5.500  -0.059  0.00  0.00    -0.251 OA
ATOM     17  N   UNL     1       1.486  -4.014  -0.034  0.00  0.00    -0.284 N 
ATOM     18  H   UNL     1       0.728  -4.620  -0.030  0.00  0.00    +0.151 HD
ENDBRANCH   1  14
BRANCH   2  19
ATOM     19  C   UNL     1       7.169  -3.766   1.038  0.00  0.00    +0.171 C 
BRANCH  19  20
ATOM     20  S   UNL     1       7.768  -4.246   2.681  0.00  0.00    -0.087 S 
BRANCH  20  21
ATOM     21  C   UNL     1       9.572  -4.289   2.495  0.00  0.00    +0.339 C 
ATOM     22  N   UNL     1       9.958  -5.239   1.438  0.00  0.00    -0.219 N 
ATOM     23  N   UNL     1      10.620  -4.472   0.468  0.00  0.00    -0.145 NA
ATOM     24  C   UNL     1      10.661  -3.219   0.835  0.00  0.00    +0.238 C 
ATOM     25  O   UNL     1      10.059  -3.020   2.036  0.00  0.00    -0.443 OA
ATOM     26  H   UNL     1       9.789  -6.194   1.417  0.00  0.00    +0.173 HD
BRANCH  24  27
ATOM     27  C   UNL     1      11.256  -2.200   0.079  0.00  0.00    +0.043 C 
ATOM     28  C   UNL     1      11.887  -2.326  -1.159  0.00  0.00    +0.008 A 
ATOM     29  C   UNL     1      12.120  -3.434  -2.002  0.00  0.00    +0.010 A 
ATOM     30  C   UNL     1      12.775  -3.260  -3.178  0.00  0.00    +0.001 A 
ATOM     31  C   UNL     1      13.230  -2.003  -3.583  0.00  0.00    +0.002 A 
ATOM     32  C   UNL     1      13.041  -0.896  -2.824  0.00  0.00    +0.026 A 
ATOM     33  C   UNL     1      12.364  -0.999  -1.581  0.00  0.00    +0.043 A 
ATOM     34  N   UNL     1      12.060  -0.090  -0.675  0.00  0.00    -0.380 N 
ATOM     35  C   UNL     1      11.345  -0.732   0.432  0.00  0.00    +0.154 C 
ATOM     36  H   UNL     1      12.273   0.854  -0.734  0.00  0.00    +0.160 HD
ENDBRANCH  24  27
ENDBRANCH  20  21
ENDBRANCH  19  20
ENDBRANCH   2  19
TORSDOF 5
