REMARK  Name = ZINC20827551
REMARK  12 active torsions:
REMARK  status: ('A' for Active; 'I' for Inactive)
REMARK    1  A    between atoms: C_1  and  C_2
REMARK    2  A    between atoms: C_2  and  C_3
REMARK    3  A    between atoms: C_3  and  N_4
REMARK    4  A    between atoms: N_4  and  C_5
REMARK    5  A    between atoms: C_5  and  C_6
REMARK    6  A    between atoms: C_6  and  C_7
REMARK    7  A    between atoms: C_9  and  C_23
REMARK    8  A    between atoms: C_12  and  C_14
REMARK    9  A    between atoms: C_14  and  C_15
REMARK   10  A    between atoms: C_14  and  C_16
REMARK   11  A    between atoms: C_19  and  C_21
REMARK   12  A    between atoms: C_19  and  C_22
REMARK                            x       y       z     vdW  Elec       q    Type
REMARK                         _______ _______ _______ _____ _____    ______ ____
ROOT
ATOM      1  N   UNL     1      -1.194  -0.711   0.008  0.00  0.00    -0.314 N 
ATOM      2  C   UNL     1      -0.002  -0.008  -0.008  0.00  0.00    +0.139 A 
ATOM      3  C   UNL     1      -0.018   1.398   0.000  0.00  0.00    +0.095 A 
ATOM      4  C   UNL     1       1.202   2.084  -0.017  0.00  0.00    -0.017 A 
ATOM      5  C   UNL     1       2.372   1.354  -0.036  0.00  0.00    +0.004 A 
ATOM      6  C   UNL     1       2.306  -0.031  -0.044  0.00  0.00    +0.052 A 
ATOM      7  N   UNL     1       1.149  -0.661  -0.030  0.00  0.00    -0.235 NA
ATOM      8  C   UNL     1       3.718   2.029  -0.046  0.00  0.00    +0.198 C 
ATOM      9  O   UNL     1       3.577   3.403  -0.407  0.00  0.00    -0.369 OA
ATOM     10  C   UNL     1       2.599   4.096   0.376  0.00  0.00    +0.068 C 
ATOM     11  C   UNL     1       1.211   3.588  -0.018  0.00  0.00    +0.071 C 
ATOM     12  C   UNL     1       2.844   3.824   1.862  0.00  0.00    +0.041 C 
ATOM     13  C   UNL     1       2.697   5.599   0.107  0.00  0.00    +0.041 C 
ENDROOT
BRANCH   6  14
ATOM     14  C   UNL     1       3.583  -0.831  -0.068  0.00  0.00    +0.032 C 
ATOM     15  C   UNL     1       3.651  -1.720   1.175  0.00  0.00    +0.014 C 
ATOM     16  C   UNL     1       3.613  -1.706  -1.323  0.00  0.00    +0.014 C 
ENDBRANCH   6  14
BRANCH   3  17
ATOM     17  C   UNL     1      -1.258   2.114   0.019  0.00  0.00    +0.103 C 
ATOM     18  N   UNL     1      -2.241   2.682   0.034  0.00  0.00    -0.191 NA
ENDBRANCH   3  17
BRANCH   1  19
ATOM     19  C   UNL     1      -1.373  -1.471  -1.236  0.00  0.00    +0.106 C 
BRANCH  19  21
ATOM     20  C   UNL     1      -2.983  -2.822  -2.588  0.00  0.00    +0.005 C 
ATOM     21  C   UNL     1      -2.796  -2.030  -1.293  0.00  0.00    +0.016 C 
ENDBRANCH  19  21
ENDBRANCH   1  19
BRANCH   1  22
ATOM     22  C   UNL     1      -1.270  -1.593   1.180  0.00  0.00    +0.106 C 
BRANCH  22  23
ATOM     23  C   UNL     1      -1.565  -0.759   2.428  0.00  0.00    +0.016 C 
ATOM     24  C   UNL     1      -1.527  -1.660   3.664  0.00  0.00    +0.005 C 
ENDBRANCH  22  23
ENDBRANCH   1  22
TORSDOF 6
