REMARK  Name = ZINC33887956
REMARK  10 active torsions:
REMARK  status: ('A' for Active; 'I' for Inactive)
REMARK    1  A    between atoms: C_1  and  C_2
REMARK    2  A    between atoms: C_2  and  C_3
REMARK    3  A    between atoms: C_6  and  N_9
REMARK    4  A    between atoms: C_14  and  C_32
REMARK    5  A    between atoms: C_17  and  C_22
REMARK    6  A    between atoms: C_17  and  C_29
REMARK    7  A    between atoms: C_22  and  C_23
REMARK    8  A    between atoms: C_36  and  O_39
REMARK    9  A    between atoms: C_37  and  O_38
REMARK   10  A    between atoms: O_39  and  C_40
REMARK                            x       y       z     vdW  Elec       q    Type
REMARK                         _______ _______ _______ _____ _____    ______ ____
ROOT
ATOM      1  N   UNL     1       2.274  -1.807   4.902  0.00  0.00    -0.210 N 
ATOM      2  C   UNL     1       3.639  -1.891   4.775  0.00  0.00    +0.229 C 
ATOM      3  O   UNL     1       4.331  -1.408   3.905  0.00  0.00    -0.275 OA
ATOM      4  C   UNL     1       4.066  -2.679   5.904  0.00  0.00    +0.077 C 
ATOM      5  C   UNL     1       5.269  -2.954   6.709  0.00  0.00    -0.023 C 
ATOM      6  N   UNL     1       4.704  -3.736   7.862  0.00  0.00    +0.396 N 
ATOM      7  C   UNL     1       3.255  -3.396   7.978  0.00  0.00    +0.048 C 
ATOM      8  C   UNL     1       3.048  -2.214   7.020  0.00  0.00    +0.086 C 
ATOM      9  C   UNL     1       1.834  -2.205   6.133  0.00  0.00    +0.229 C 
ATOM     10  O   UNL     1       0.699  -2.493   6.446  0.00  0.00    -0.275 OA
ATOM     11  H   UNL     1       4.811  -4.724   7.689  0.00  0.00    -0.083 HD
ATOM     12  H   UNL     1       5.183  -3.484   8.713  0.00  0.00    -0.083 HD
ENDROOT
BRANCH   1  16
ATOM     13  C   UNL     1      -0.251  -0.469   1.868  0.00  0.00    -0.048 A 
ATOM     14  C   UNL     1       1.114  -0.527   1.654  0.00  0.00    +0.005 A 
ATOM     15  C   UNL     1       1.953  -0.970   2.658  0.00  0.00    +0.024 A 
ATOM     16  C   UNL     1       1.425  -1.357   3.882  0.00  0.00    +0.044 A 
ATOM     17  C   UNL     1       0.054  -1.297   4.094  0.00  0.00    +0.024 A 
ATOM     18  C   UNL     1      -0.780  -0.849   3.088  0.00  0.00    +0.005 A 
BRANCH  13  20
ATOM     19  C   UNL     1      -1.335   1.531   0.880  0.00  0.00    +0.009 C 
ATOM     20  C   UNL     1      -1.164   0.014   0.771  0.00  0.00    +0.032 C 
ENDBRANCH  13  20
ENDBRANCH   1  16
BRANCH   5  21
ATOM     21  C   UNL     1       6.260  -3.781   5.931  0.00  0.00    -0.015 A 
ATOM     22  C   UNL     1       5.858  -4.446   4.787  0.00  0.00    +0.006 A 
ATOM     23  C   UNL     1       6.764  -5.206   4.071  0.00  0.00    +0.004 A 
ATOM     24  C   UNL     1       8.076  -5.304   4.496  0.00  0.00    +0.049 A 
ATOM     25  C   UNL     1       8.485  -4.640   5.641  0.00  0.00    +0.161 A 
ATOM     26  C   UNL     1       7.574  -3.870   6.358  0.00  0.00    +0.160 A 
BRANCH  26  27
ATOM     27  O   UNL     1       7.973  -3.212   7.480  0.00  0.00    -0.503 OA
ATOM     28  H   UNL     1       7.881  -3.729   8.292  0.00  0.00    +0.292 HD
ENDBRANCH  26  27
BRANCH  25  29
ATOM     29  O   UNL     1       9.776  -4.736   6.060  0.00  0.00    -0.491 OA
ATOM     30  C   UNL     1      10.656  -5.539   5.271  0.00  0.00    +0.277 C 
ENDBRANCH  25  29
ENDBRANCH   5  21
BRANCH   7  31
ATOM     31  C   UNL     1       2.929  -2.973   9.387  0.00  0.00    +0.346 C 
ATOM     32  O   UNL     1       3.800  -2.974  10.241  0.00  0.00    -0.248 OA
ATOM     33  O   UNL     1       1.795  -2.630   9.674  0.00  0.00    -0.248 OA
ENDBRANCH   7  31
BRANCH   7  34
ATOM     34  C   UNL     1       2.395  -4.595   7.572  0.00  0.00    +0.003 C 
BRANCH  34  35
ATOM     35  C   UNL     1       2.492  -5.679   8.647  0.00  0.00    -0.012 C 
ATOM     36  C   UNL     1       3.939  -6.165   8.753  0.00  0.00    +0.003 C 
ATOM     37  C   UNL     1       4.037  -7.249   9.828  0.00  0.00    +0.000 C 
ATOM     38  C   UNL     1       3.131  -8.423   9.452  0.00  0.00    +0.000 C 
ATOM     39  C   UNL     1       1.684  -7.938   9.346  0.00  0.00    +0.000 C 
ATOM     40  C   UNL     1       1.587  -6.854   8.271  0.00  0.00    +0.003 C 
ENDBRANCH  34  35
ENDBRANCH   7  34
TORSDOF 8
