REMARK  Name = ZINC09232361
REMARK  5 active torsions:
REMARK  status: ('A' for Active; 'I' for Inactive)
REMARK    1  A    between atoms: C_3  and  C_6
REMARK    2  A    between atoms: N_8  and  N_9
REMARK    3  A    between atoms: C_13  and  C_14
REMARK    4  A    between atoms: C_17  and  S_19
REMARK    5  A    between atoms: S_19  and  C_20
REMARK                            x       y       z     vdW  Elec       q    Type
REMARK                         _______ _______ _______ _____ _____    ______ ____
ROOT
ATOM      1  N   UNL     1      -3.625   2.928  -0.147  0.00  0.00    -0.169 N 
ATOM      2  C   UNL     1      -2.335   2.737  -0.362  0.00  0.00    +0.275 C 
ATOM      3  O   UNL     1      -1.586   3.680  -0.549  0.00  0.00    -0.267 OA
ATOM      4  C   UNL     1      -1.845   1.402  -0.367  0.00  0.00    +0.082 C 
ATOM      5  C   UNL     1      -0.561   0.940  -0.565  0.00  0.00    +0.066 C 
ATOM      6  S   UNL     1      -3.348   0.486  -0.057  0.00  0.00    -0.059 S 
ATOM      7  C   UNL     1      -4.456   1.882   0.061  0.00  0.00    +0.138 C 
ATOM      8  S   UNL     1      -6.143   1.892   0.354  0.00  0.00    -0.026 S 
ENDROOT
BRANCH   5   9
ATOM      9  C   UNL     1       0.507   1.850  -0.660  0.00  0.00    +0.131 A 
ATOM     10  C   UNL     1       1.850   1.524  -0.750  0.00  0.00    +0.050 A 
ATOM     11  C   UNL     1       2.551   2.729  -0.825  0.00  0.00    +0.057 A 
ATOM     12  C   UNL     1       1.631   3.736  -0.779  0.00  0.00    +0.167 A 
ATOM     13  O   UNL     1       0.403   3.199  -0.686  0.00  0.00    -0.449 OA
BRANCH  12  14
ATOM     14  S   UNL     1       1.992   5.460  -0.840  0.00  0.00    -0.052 S 
BRANCH  14  15
ATOM     15  C   UNL     1       2.319   5.764   0.864  0.00  0.00    +0.016 A 
ATOM     16  C   UNL     1       2.121   4.758   1.802  0.00  0.00    +0.016 A 
ATOM     17  C   UNL     1       2.383   4.998   3.136  0.00  0.00    +0.021 A 
ATOM     18  C   UNL     1       2.832   6.243   3.541  0.00  0.00    +0.041 A 
ATOM     19  C   UNL     1       3.026   7.249   2.611  0.00  0.00    +0.021 A 
ATOM     20  C   UNL     1       2.771   7.013   1.274  0.00  0.00    +0.016 A 
ATOM     21 CL   UNL     1       3.154   6.543   5.221  0.00  0.00    -0.084 Cl
ENDBRANCH  14  15
ENDBRANCH  12  14
ENDBRANCH   5   9
BRANCH   1  24
ATOM     22  C   UNL     1      -4.827   4.693  -1.199  0.00  0.00    +0.267 C 
ATOM     23  O   UNL     1      -5.083   3.950  -2.128  0.00  0.00    -0.268 OA
ATOM     24  N   UNL     1      -4.139   4.231  -0.136  0.00  0.00    -0.222 N 
ATOM     25  H   UNL     1      -3.999   4.801   0.636  0.00  0.00    +0.174 HD
BRANCH  22  28
ATOM     26  C   UNL     1      -6.323   8.064  -1.964  0.00  0.00    +0.008 A 
ATOM     27  C   UNL     1      -6.059   6.733  -2.175  0.00  0.00    +0.021 A 
ATOM     28  C   UNL     1      -5.269   6.090  -1.235  0.00  0.00    +0.075 A 
ATOM     29  S   UNL     1      -4.935   7.405  -0.076  0.00  0.00    -0.092 S 
ATOM     30  C   UNL     1      -5.809   8.677  -0.867  0.00  0.00    +0.046 A 
ENDBRANCH  22  28
ENDBRANCH   1  24
TORSDOF 5
