REMARK  Name = ZINC03191047
REMARK  8 active torsions:
REMARK  status: ('A' for Active; 'I' for Inactive)
REMARK    1  A    between atoms: C_4  and  P_7
REMARK    2  A    between atoms: P_7  and  C_9
REMARK    3  A    between atoms: P_7  and  C_15
REMARK    4  A    between atoms: C_15  and  C_17
REMARK    5  A    between atoms: C_15  and  N_26
REMARK    6  A    between atoms: C_22  and  N_23
REMARK    7  A    between atoms: N_26  and  S_27
REMARK    8  A    between atoms: S_27  and  C_30
REMARK                            x       y       z     vdW  Elec       q    Type
REMARK                         _______ _______ _______ _____ _____    ______ ____
ROOT
ATOM      1  C   UNL     1       3.681  -2.169  -0.971  0.00  0.00    +0.178 C 
ENDROOT
BRANCH   1   2
ATOM      2  C   UNL     1       2.354  -2.838  -0.721  0.00  0.00    +0.009 A 
ATOM      3  C   UNL     1       2.285  -4.215  -0.608  0.00  0.00    +0.008 A 
ATOM      4  C   UNL     1       1.068  -4.829  -0.379  0.00  0.00    +0.000 A 
ATOM      5  C   UNL     1      -0.080  -4.067  -0.263  0.00  0.00    +0.002 A 
ATOM      6  C   UNL     1      -0.011  -2.691  -0.376  0.00  0.00    +0.033 A 
ATOM      7  C   UNL     1       1.207  -2.077  -0.600  0.00  0.00    +0.131 A 
BRANCH   7   8
ATOM      8  N   UNL     1       1.282  -0.603  -0.716  0.00  0.00    +0.057 N 
ATOM      9  O   UNL     1       0.302   0.071  -0.499  0.00  0.00    -0.126 OA
ATOM     10  O   UNL     1       2.324  -0.073  -1.026  0.00  0.00    -0.126 OA
ENDBRANCH   7   8
ENDBRANCH   1   2
BRANCH   1  11
ATOM     11  P   UNL     1       4.329  -1.502   0.597  0.00  0.00    +0.166 P 
ATOM     12  O   UNL     1       3.482  -0.372   1.040  0.00  0.00    -0.309 OA
BRANCH  11  16
ATOM     13  C   UNL     1       4.283  -4.787   3.786  0.00  0.00    +0.000 A 
ATOM     14  C   UNL     1       3.955  -3.488   4.127  0.00  0.00    +0.001 A 
ATOM     15  C   UNL     1       3.969  -2.496   3.164  0.00  0.00    +0.012 A 
ATOM     16  C   UNL     1       4.312  -2.803   1.861  0.00  0.00    +0.018 A 
ATOM     17  C   UNL     1       4.641  -4.102   1.520  0.00  0.00    +0.012 A 
ATOM     18  C   UNL     1       4.625  -5.094   2.483  0.00  0.00    +0.001 A 
ENDBRANCH  11  16
BRANCH  11  19
ATOM     19  C   UNL     1       6.030  -0.922   0.350  0.00  0.00    +0.018 A 
ATOM     20  C   UNL     1       6.944  -1.721  -0.311  0.00  0.00    +0.012 A 
ATOM     21  C   UNL     1       8.240  -1.279  -0.499  0.00  0.00    +0.001 A 
ATOM     22  C   UNL     1       8.622  -0.038  -0.027  0.00  0.00    +0.000 A 
ATOM     23  C   UNL     1       7.708   0.762   0.633  0.00  0.00    +0.001 A 
ATOM     24  C   UNL     1       6.411   0.322   0.818  0.00  0.00    +0.012 A 
ENDBRANCH  11  19
ENDBRANCH   1  11
BRANCH   1  25
ATOM     25  N   UNL     1       4.627  -3.147  -1.514  0.00  0.00    -0.175 NA
ATOM     26  H   UNL     1       5.251  -3.597  -0.924  0.00  0.00    +0.149 HD
BRANCH  25  27
ATOM     27  S   UNL     1       4.630  -3.483  -3.135  0.00  0.00    +0.059 S 
ATOM     28  O   UNL     1       5.662  -4.436  -3.351  0.00  0.00    -0.153 OA
ATOM     29  O   UNL     1       3.279  -3.728  -3.502  0.00  0.00    -0.153 OA
BRANCH  27  30
ATOM     30  C   UNL     1       5.119  -2.012  -3.972  0.00  0.00    +0.106 A 
ATOM     31  C   UNL     1       4.150  -1.092  -4.367  0.00  0.00    +0.029 A 
ATOM     32  C   UNL     1       4.494   0.054  -5.015  0.00  0.00    +0.010 A 
ATOM     33  C   UNL     1       5.847   0.317  -5.292  0.00  0.00    -0.018 A 
ATOM     34  C   UNL     1       6.241   1.490  -5.959  0.00  0.00    +0.008 A 
ATOM     35  C   UNL     1       7.560   1.711  -6.210  0.00  0.00    +0.001 A 
ATOM     36  C   UNL     1       8.530   0.791  -5.815  0.00  0.00    +0.001 A 
ATOM     37  C   UNL     1       8.185  -0.356  -5.167  0.00  0.00    +0.008 A 
ATOM     38  C   UNL     1       6.833  -0.619  -4.891  0.00  0.00    -0.016 A 
ATOM     39  C   UNL     1       6.439  -1.788  -4.218  0.00  0.00    +0.037 A 
ENDBRANCH  27  30
ENDBRANCH  25  27
ENDBRANCH   1  25
TORSDOF 8
