REMARK  Name = ZINC01335481
REMARK  13 active torsions:
REMARK  status: ('A' for Active; 'I' for Inactive)
REMARK    1  A    between atoms: C_1  and  C_2
REMARK    2  A    between atoms: C_2  and  C_3
REMARK    3  A    between atoms: C_3  and  C_4
REMARK    4  A    between atoms: C_4  and  C_6
REMARK    5  A    between atoms: C_4  and  N_19
REMARK    6  A    between atoms: N_10  and  C_11
REMARK    7  A    between atoms: C_11  and  C_12
REMARK    8  A    between atoms: N_19  and  C_20
REMARK    9  A    between atoms: N_19  and  C_26
REMARK   10  A    between atoms: C_20  and  C_21
REMARK   11  A    between atoms: C_26  and  C_27
REMARK   12  A    between atoms: C_31  and  O_39
REMARK   13  A    between atoms: O_39  and  C_40
REMARK                            x       y       z     vdW  Elec       q    Type
REMARK                         _______ _______ _______ _____ _____    ______ ____
ROOT
ATOM      1  N   UNL     1      -1.018  -2.591  -1.328  0.00  0.00    -0.284 NA
ENDROOT
BRANCH   1   2
ATOM      2  C   UNL     1      -1.444  -2.445   0.070  0.00  0.00    +0.127 C 
BRANCH   2   3
ATOM      3  C   UNL     1      -0.765  -3.492   0.914  0.00  0.00    +0.169 A 
ATOM      4  N   UNL     1      -0.626  -4.763   0.623  0.00  0.00    -0.112 NA
ATOM      5  N   UNL     1       0.008  -5.326   1.593  0.00  0.00    -0.023 NA
ATOM      6  N   UNL     1       0.277  -4.448   2.495  0.00  0.00    -0.044 NA
ATOM      7  N   UNL     1      -0.178  -3.304   2.111  0.00  0.00    -0.223 N 
BRANCH   7   8
ATOM      8  C   UNL     1      -0.079  -2.038   2.842  0.00  0.00    +0.182 C 
BRANCH   8   9
ATOM      9  C   UNL     1      -1.278  -1.881   3.740  0.00  0.00    -0.026 A 
ATOM     10  C   UNL     1      -2.418  -1.259   3.268  0.00  0.00    +0.008 A 
ATOM     11  C   UNL     1      -3.519  -1.115   4.092  0.00  0.00    +0.038 A 
ATOM     12  C   UNL     1      -3.479  -1.595   5.390  0.00  0.00    +0.123 A 
ATOM     13  C   UNL     1      -2.336  -2.218   5.862  0.00  0.00    +0.038 A 
ATOM     14  C   UNL     1      -1.239  -2.365   5.035  0.00  0.00    +0.008 A 
ATOM     15  F   UNL     1      -4.554  -1.454   6.196  0.00  0.00    -0.205 F 
ENDBRANCH   8   9
ENDBRANCH   7   8
ENDBRANCH   2   3
BRANCH   2  16
ATOM     16  C   UNL     1      -2.961  -2.620   0.162  0.00  0.00    +0.026 C 
BRANCH  16  18
ATOM     17  C   UNL     1      -5.164  -1.717  -0.596  0.00  0.00    +0.004 C 
ATOM     18  C   UNL     1      -3.652  -1.481  -0.590  0.00  0.00    -0.001 C 
ENDBRANCH  16  18
ENDBRANCH   2  16
ENDBRANCH   1   2
BRANCH   1  19
ATOM     19  C   UNL     1      -1.212  -3.970  -1.796  0.00  0.00    +0.127 C 
BRANCH  19  20
ATOM     20  C   UNL     1      -1.155  -4.002  -3.302  0.00  0.00    +0.004 A 
ATOM     21  C   UNL     1      -0.103  -4.279  -4.111  0.00  0.00    +0.012 A 
ATOM     22  C   UNL     1      -0.285  -4.250  -5.480  0.00  0.00    +0.008 A 
ATOM     23  C   UNL     1      -1.510  -3.944  -5.975  0.00  0.00    +0.045 A 
ATOM     24  S   UNL     1      -2.458  -3.692  -4.483  0.00  0.00    -0.100 S 
ENDBRANCH  19  20
ENDBRANCH   1  19
BRANCH   1  25
ATOM     25  C   UNL     1       0.379  -2.169  -1.500  0.00  0.00    +0.126 C 
BRANCH  25  26
ATOM     26  C   UNL     1       0.454  -0.664  -1.487  0.00  0.00    +0.031 A 
ATOM     27  C   UNL     1       0.789  -0.014  -0.345  0.00  0.00    +0.020 A 
ATOM     28  C   UNL     1       0.854   1.448  -0.365  0.00  0.00    +0.002 A 
ATOM     29  C   UNL     1       1.195   2.172   0.783  0.00  0.00    +0.055 A 
ATOM     30  C   UNL     1       1.247   3.550   0.729  0.00  0.00    +0.121 A 
ATOM     31  C   UNL     1       0.962   4.218  -0.459  0.00  0.00    +0.047 A 
ATOM     32  C   UNL     1       0.625   3.517  -1.596  0.00  0.00    +0.030 A 
ATOM     33  C   UNL     1       0.567   2.128  -1.563  0.00  0.00    +0.049 A 
ATOM     34  N   UNL     1       0.232   1.407  -2.692  0.00  0.00    -0.322 N 
ATOM     35  H   UNL     1       0.034   1.877  -3.517  0.00  0.00    +0.169 HD
ATOM     36  C   UNL     1       0.181   0.064  -2.665  0.00  0.00    +0.254 A 
ATOM     37  O   UNL     1      -0.114  -0.540  -3.682  0.00  0.00    -0.268 OA
BRANCH  30  38
ATOM     38  O   UNL     1       1.577   4.258   1.842  0.00  0.00    -0.495 OA
ATOM     39  C   UNL     1       1.612   5.681   1.718  0.00  0.00    +0.277 C 
ENDBRANCH  30  38
ENDBRANCH  25  26
ENDBRANCH   1  25
TORSDOF 11
