REMARK  Name = ZINC34748040
REMARK  10 active torsions:
REMARK  status: ('A' for Active; 'I' for Inactive)
REMARK    1  A    between atoms: C_1  and  C_2
REMARK    2  A    between atoms: C_2  and  N_3
REMARK    3  A    between atoms: N_3  and  C_4
REMARK    4  A    between atoms: C_4  and  C_5
REMARK    5  A    between atoms: C_6  and  C_8
REMARK    6  A    between atoms: C_8  and  N_9
REMARK    7  A    between atoms: N_27  and  C_28
REMARK    8  A    between atoms: C_28  and  C_29
REMARK    9  A    between atoms: C_29  and  C_30
REMARK   10  A    between atoms: C_30  and  C_31
REMARK                            x       y       z     vdW  Elec       q    Type
REMARK                         _______ _______ _______ _____ _____    ______ ____
ROOT
ATOM      1  N   UNL     1      -1.574  -1.097  -4.407  0.00  0.00    +0.387 N 
ATOM      2  C   UNL     1      -2.764  -1.358  -5.228  0.00  0.00    -0.059 C 
ATOM      3  C   UNL     1      -2.332  -1.913  -6.589  0.00  0.00    +0.089 C 
ATOM      4  N   UNL     1      -1.373  -0.975  -7.192  0.00  0.00    -0.304 N 
ATOM      5  C   UNL     1      -0.232  -0.530  -6.377  0.00  0.00    +0.089 C 
ATOM      6  C   UNL     1      -0.763  -0.040  -5.025  0.00  0.00    -0.059 C 
ATOM      7  C   UNL     1      -1.537  -0.527  -8.480  0.00  0.00    +0.202 A 
ATOM      8  N   UNL     1      -2.278   0.537  -8.707  0.00  0.00    -0.208 NA
ATOM      9  C   UNL     1      -2.453   0.992  -9.943  0.00  0.00    +0.117 A 
ATOM     10  C   UNL     1      -1.866   0.370 -11.055  0.00  0.00    +0.076 A 
ATOM     11  C   UNL     1      -2.149   0.985 -12.362  0.00  0.00    -0.023 A 
ATOM     12  C   UNL     1      -2.934   2.075 -12.364  0.00  0.00    -0.004 A 
ATOM     13  S   UNL     1      -3.345   2.349 -10.656  0.00  0.00    -0.073 S 
ATOM     14  C   UNL     1      -3.148   2.619 -13.751  0.00  0.00    +0.043 C 
ATOM     15  C   UNL     1      -2.034   1.968 -14.599  0.00  0.00    +0.010 C 
ATOM     16  C   UNL     1      -1.753   0.675 -13.809  0.00  0.00    +0.037 C 
ATOM     17  C   UNL     1      -1.066  -0.783 -10.780  0.00  0.00    +0.264 A 
ATOM     18  O   UNL     1      -0.517  -1.386 -11.685  0.00  0.00    -0.267 OA
ATOM     19  N   UNL     1      -0.925  -1.188  -9.504  0.00  0.00    -0.280 N 
ATOM     20  H   UNL     1      -1.026  -1.941  -4.335  0.00  0.00    -0.081 HD
ENDROOT
BRANCH   1  21
ATOM     21  C   UNL     1      -1.992  -0.669  -3.065  0.00  0.00    +0.019 C 
BRANCH  21  23
ATOM     22  N   UNL     1      -3.198  -1.634  -1.133  0.00  0.00    -0.304 N 
ATOM     23  C   UNL     1      -2.720  -1.798  -2.382  0.00  0.00    +0.199 C 
ATOM     24  O   UNL     1      -2.876  -2.855  -2.957  0.00  0.00    -0.278 OA
BRANCH  22  26
ATOM     25  C   UNL     1      -5.401  -2.636  -0.779  0.00  0.00    +0.024 C 
ATOM     26  C   UNL     1      -3.905  -2.732  -0.469  0.00  0.00    +0.104 C 
ENDBRANCH  22  26
BRANCH  22  27
ATOM     27  C   UNL     1      -3.010  -0.358  -0.439  0.00  0.00    +0.104 C 
ATOM     28  C   UNL     1      -1.695  -0.392   0.344  0.00  0.00    +0.024 C 
ENDBRANCH  22  27
ENDBRANCH  21  23
ENDBRANCH   1  21
BRANCH  19  29
ATOM     29  C   UNL     1      -0.104  -2.365  -9.210  0.00  0.00    +0.128 C 
BRANCH  29  30
ATOM     30  C   UNL     1      -0.944  -3.631  -9.389  0.00  0.00    +0.026 C 
BRANCH  30  31
ATOM     31  C   UNL     1      -0.086  -4.861  -9.083  0.00  0.00    +0.037 C 
BRANCH  31  32
ATOM     32  C   UNL     1      -0.914  -6.107  -9.260  0.00  0.00    -0.047 A 
ATOM     33  C   UNL     1      -1.628  -6.620  -8.193  0.00  0.00    +0.003 A 
ATOM     34  C   UNL     1      -2.387  -7.764  -8.355  0.00  0.00    +0.000 A 
ATOM     35  C   UNL     1      -2.432  -8.395  -9.584  0.00  0.00    +0.000 A 
ATOM     36  C   UNL     1      -1.719  -7.882 -10.651  0.00  0.00    +0.000 A 
ATOM     37  C   UNL     1      -0.963  -6.736 -10.490  0.00  0.00    +0.003 A 
ENDBRANCH  31  32
ENDBRANCH  30  31
ENDBRANCH  29  30
ENDBRANCH  19  29
TORSDOF 8
