REMARK  Name = ZINC50374433
REMARK  7 active torsions:
REMARK  status: ('A' for Active; 'I' for Inactive)
REMARK    1  A    between atoms: C_1  and  C_2
REMARK    2  A    between atoms: C_2  and  N_3
REMARK    3  A    between atoms: C_4  and  N_22
REMARK    4  A    between atoms: C_5  and  N_12
REMARK    5  A    between atoms: N_12  and  C_13
REMARK    6  A    between atoms: C_18  and  O_20
REMARK    7  A    between atoms: O_20  and  C_21
REMARK                            x       y       z     vdW  Elec       q    Type
REMARK                         _______ _______ _______ _____ _____    ______ ____
ROOT
ATOM      1  N   UNL     1       0.646  -0.848  -1.118  0.00  0.00    -0.281 N 
ATOM      2  C   UNL     1      -0.043  -0.884  -2.309  0.00  0.00    +0.127 A 
ATOM      3  C   UNL     1       0.589  -1.336  -3.436  0.00  0.00    +0.131 A 
ATOM      4  C   UNL     1       1.930  -1.752  -3.346  0.00  0.00    +0.277 A 
ATOM      5  O   UNL     1       2.514  -2.158  -4.337  0.00  0.00    -0.266 OA
ATOM      6  N   UNL     1       2.565  -1.699  -2.159  0.00  0.00    -0.273 N 
ATOM      7  H   UNL     1       3.489  -1.985  -2.095  0.00  0.00    +0.173 HD
ATOM      8  C   UNL     1       1.930  -1.247  -1.062  0.00  0.00    +0.331 A 
ATOM      9  O   UNL     1       2.524  -1.204  -0.002  0.00  0.00    -0.246 OA
ENDROOT
BRANCH   2  10
ATOM     10  N   UNL     1      -1.354  -0.471  -2.366  0.00  0.00    -0.343 N 
ATOM     11  H   UNL     1      -1.797  -0.152  -1.565  0.00  0.00    +0.144 HD
ATOM     12  H   UNL     1      -1.835  -0.499  -3.208  0.00  0.00    +0.144 HD
ENDBRANCH   2  10
BRANCH   1  14
ATOM     13  C   UNL     1       0.179   1.146   0.219  0.00  0.00    +0.027 C 
ATOM     14  C   UNL     1      -0.020  -0.366   0.094  0.00  0.00    +0.125 C 
ENDBRANCH   1  14
BRANCH   3  15
ATOM     15  N   UNL     1      -0.096  -1.384  -4.672  0.00  0.00    -0.332 N 
ATOM     16  H   UNL     1      -1.042  -1.175  -4.711  0.00  0.00    +0.147 HD
BRANCH  15  17
ATOM     17  C   UNL     1       0.624  -1.750  -5.895  0.00  0.00    +0.099 C 
ATOM     18  C   UNL     1       0.722  -3.285  -6.011  0.00  0.00    +0.025 C 
ATOM     19  C   UNL     1      -0.471  -3.674  -6.920  0.00  0.00    +0.004 C 
ATOM     20  C   UNL     1      -0.502  -2.521  -7.954  0.00  0.00    +0.033 C 
ATOM     21  C   UNL     1      -0.154  -1.263  -7.130  0.00  0.00    +0.138 C 
BRANCH  21  22
ATOM     22  O   UNL     1       0.660  -0.380  -7.904  0.00  0.00    -0.378 OA
ATOM     23  C   UNL     1      -0.077   0.613  -8.620  0.00  0.00    +0.194 C 
ENDBRANCH  21  22
ENDBRANCH  15  17
ENDBRANCH   3  15
TORSDOF 5
