REMARK  Name = ZINC49283636
REMARK  5 active torsions:
REMARK  status: ('A' for Active; 'I' for Inactive)
REMARK    1  A    between atoms: C_1  and  C_2
REMARK    2  A    between atoms: C_2  and  C_3
REMARK    3  A    between atoms: C_2  and  C_4
REMARK    4  A    between atoms: N_12  and  C_13
REMARK    5  A    between atoms: C_13  and  C_14
REMARK                            x       y       z     vdW  Elec       q    Type
REMARK                         _______ _______ _______ _____ _____    ______ ____
ROOT
ATOM      1  C   UNL     1       0.731  -0.503   1.223  0.00  0.00    +0.106 A 
ATOM      2  N   UNL     1       1.971  -0.289   1.613  0.00  0.00    -0.144 NA
ATOM      3  N   UNL     1       2.377  -0.815   2.688  0.00  0.00    -0.126 NA
ATOM      4  C   UNL     1       1.595  -1.573   3.431  0.00  0.00    +0.189 A 
ATOM      5  S   UNL     1       0.155  -1.547   2.555  0.00  0.00    -0.035 S 
ATOM      6  N   UNL     1       1.882  -2.221   4.628  0.00  0.00    -0.247 N 
ATOM      7  C   UNL     1       3.108  -2.111   5.177  0.00  0.00    +0.305 C 
ATOM      8  O   UNL     1       3.963  -1.446   4.625  0.00  0.00    -0.252 OA
ATOM      9  N   UNL     1       3.386  -2.739   6.337  0.00  0.00    -0.299 N 
ATOM     10  H   UNL     1       1.199  -2.752   5.068  0.00  0.00    +0.158 HD
ATOM     11  H   UNL     1       2.703  -3.270   6.777  0.00  0.00    +0.150 HD
ENDROOT
BRANCH   1  13
ATOM     12  C   UNL     1      -0.019   1.526   0.010  0.00  0.00    +0.014 C 
ATOM     13  C   UNL     1       0.002  -0.004   0.002  0.00  0.00    +0.040 C 
ATOM     14  C   UNL     1       0.718  -0.497  -1.257  0.00  0.00    +0.014 C 
ENDBRANCH   1  13
BRANCH   9  15
ATOM     15  C   UNL     1       4.719  -2.620   6.933  0.00  0.00    +0.109 C 
BRANCH  15  16
ATOM     16  C   UNL     1       4.768  -3.422   8.235  0.00  0.00    +0.010 C 
ATOM     17  C   UNL     1       6.193  -3.394   8.804  0.00  0.00    +0.009 C 
ATOM     18  C   UNL     1       6.254  -4.346  10.001  0.00  0.00    +0.027 C 
ATOM     19  C   UNL     1       5.115  -4.071  10.938  0.00  0.00    -0.031 C 
ATOM     20  C   UNL     1       4.056  -3.400  10.616  0.00  0.00    -0.031 C 
ATOM     21  C   UNL     1       3.821  -2.797   9.261  0.00  0.00    +0.032 C 
ENDBRANCH  15  16
ENDBRANCH   9  15
TORSDOF 3
