REMARK  Name = ZINC03913428
REMARK  5 active torsions:
REMARK  status: ('A' for Active; 'I' for Inactive)
REMARK    1  A    between atoms: C_1  and  C_2
REMARK    2  A    between atoms: C_7  and  N_12
REMARK    3  A    between atoms: C_9  and  C_11
REMARK    4  A    between atoms: N_12  and  S_13
REMARK    5  A    between atoms: S_13  and  C_16
REMARK                            x       y       z     vdW  Elec       q    Type
REMARK                         _______ _______ _______ _____ _____    ______ ____
ROOT
ATOM      1  S   UNL     1       0.817   0.440   5.046  0.00  0.00    +0.061 S 
ATOM      2  O   UNL     1       1.535  -0.308   6.017  0.00  0.00    -0.153 OA
ATOM      3  O   UNL     1       1.230   1.731   4.620  0.00  0.00    -0.153 OA
ENDROOT
BRANCH   1   4
ATOM      4  C   UNL     1      -0.826   0.615   5.659  0.00  0.00    +0.133 A 
ATOM      5  C   UNL     1      -1.155   0.097   6.865  0.00  0.00    +0.031 A 
ATOM      6  C   UNL     1      -2.446   0.216   7.382  0.00  0.00    +0.004 A 
ATOM      7  C   UNL     1      -3.425   0.855   6.700  0.00  0.00    +0.031 A 
ATOM      8  C   UNL     1      -3.151   1.424   5.427  0.00  0.00    +0.102 A 
ATOM      9  C   UNL     1      -1.801   1.305   4.889  0.00  0.00    +0.126 A 
ATOM     10  N   UNL     1      -1.660   1.879   3.693  0.00  0.00    -0.189 NA
ATOM     11  S   UNL     1      -3.102   2.496   3.335  0.00  0.00    +0.117 S 
ATOM     12  N   UNL     1      -3.982   2.084   4.617  0.00  0.00    -0.191 NA
ENDBRANCH   1   4
BRANCH   1  13
ATOM     13  N   UNL     1       0.735  -0.503   3.687  0.00  0.00    -0.187 NA
ATOM     14  H   UNL     1       1.155  -1.377   3.677  0.00  0.00    +0.148 HD
BRANCH  13  20
ATOM     15  C   UNL     1      -0.019   1.526   0.010  0.00  0.00    +0.008 C 
ATOM     16  C   UNL     1       0.002  -0.004   0.002  0.00  0.00    -0.010 C 
ATOM     17  C   UNL     1      -1.433  -0.534   0.013  0.00  0.00    +0.003 C 
ATOM     18  C   UNL     1      -2.149  -0.040   1.272  0.00  0.00    +0.002 C 
ATOM     19  C   UNL     1      -1.409  -0.547   2.511  0.00  0.00    +0.020 C 
ATOM     20  C   UNL     1       0.026  -0.018   2.500  0.00  0.00    +0.080 C 
ATOM     21  C   UNL     1       0.742  -0.511   1.242  0.00  0.00    +0.007 C 
ATOM     22  C   UNL     1       2.178   0.019   1.231  0.00  0.00    +0.009 C 
ENDBRANCH  13  20
ENDBRANCH   1  13
TORSDOF 3
