REMARK  Name = ZINC40214868
REMARK  3 active torsions:
REMARK  status: ('A' for Active; 'I' for Inactive)
REMARK    1  A    between atoms: C_4  and  N_10
REMARK    2  A    between atoms: C_6  and  N_7
REMARK    3  A    between atoms: C_11  and  C_13
REMARK                            x       y       z     vdW  Elec       q    Type
REMARK                         _______ _______ _______ _____ _____    ______ ____
ROOT
ATOM      1  C   UNL     1      -0.023   1.366   0.040  0.00  0.00    +0.034 A 
ATOM      2  C   UNL     1       1.161   2.081   0.025  0.00  0.00    +0.024 A 
ATOM      3  C   UNL     1       2.371   1.415  -0.000  0.00  0.00    +0.062 A 
ATOM      4  C   UNL     1       2.398   0.025  -0.011  0.00  0.00    +0.054 A 
ATOM      5  C   UNL     1       1.207  -0.689   0.004  0.00  0.00    +0.057 A 
ATOM      6  C   UNL     1       0.000  -0.016   0.029  0.00  0.00    +0.128 A 
ATOM      7 CL   UNL     1       3.857   2.313  -0.020  0.00  0.00    -0.082 Cl
ENDROOT
BRANCH   4   8
ATOM      8  N   UNL     1       3.621  -0.653  -0.037  0.00  0.00    -0.280 N 
ATOM      9  C   UNL     1       3.689  -1.902  -0.538  0.00  0.00    +0.255 C 
ATOM     10  O   UNL     1       2.709  -2.403  -1.059  0.00  0.00    -0.269 OA
ATOM     11  H   UNL     1       4.421  -0.224   0.305  0.00  0.00    +0.155 HD
BRANCH   9  12
ATOM     12  C   UNL     1       4.941  -2.657  -0.456  0.00  0.00    +0.075 A 
ATOM     13  C   UNL     1       5.221  -3.938  -0.909  0.00  0.00    +0.022 A 
ATOM     14  C   UNL     1       6.501  -4.384  -0.687  0.00  0.00    +0.024 A 
ATOM     15  C   UNL     1       7.383  -3.567  -0.057  0.00  0.00    +0.056 A 
ATOM     16  S   UNL     1       6.505  -2.167   0.245  0.00  0.00    -0.077 S 
ATOM     17 BR   UNL     1       9.190  -3.920   0.374  0.00  0.00    -0.043 Br
ENDBRANCH   9  12
ENDBRANCH   4   8
BRANCH   6  18
ATOM     18  N   UNL     1      -1.269  -0.777   0.045  0.00  0.00    +0.056 N 
ATOM     19  O   UNL     1      -2.326  -0.190   0.067  0.00  0.00    -0.126 OA
ATOM     20  O   UNL     1      -1.250  -1.986   0.036  0.00  0.00    -0.126 OA
ENDBRANCH   6  18
TORSDOF 3
