REMARK  Name = ZINC08695985
REMARK  12 active torsions:
REMARK  status: ('A' for Active; 'I' for Inactive)
REMARK    1  A    between atoms: C_1  and  N_2
REMARK    2  A    between atoms: N_2  and  C_3
REMARK    3  A    between atoms: N_2  and  C_4
REMARK    4  A    between atoms: C_7  and  N_10
REMARK    5  A    between atoms: C_11  and  C_13
REMARK    6  A    between atoms: C_13  and  C_15
REMARK    7  A    between atoms: C_13  and  N_20
REMARK    8  A    between atoms: N_20  and  C_21
REMARK    9  A    between atoms: C_21  and  C_22
REMARK   10  A    between atoms: C_25  and  C_28
REMARK   11  A    between atoms: C_32  and  C_34
REMARK   12  A    between atoms: C_34  and  N_35
REMARK                            x       y       z     vdW  Elec       q    Type
REMARK                         _______ _______ _______ _____ _____    ______ ____
ROOT
ATOM      1  N   UNL     1       0.052  -0.073  -0.760  0.00  0.00    -0.279 N 
ATOM      2  C   UNL     1       0.181   1.266  -0.844  0.00  0.00    +0.235 C 
ATOM      3  O   UNL     1      -0.545   1.987  -0.193  0.00  0.00    -0.274 OA
ENDROOT
BRANCH   1   4
ATOM      4  C   UNL     1      -0.867  -0.661   0.218  0.00  0.00    +0.214 C 
BRANCH   4   5
ATOM      5  C   UNL     1      -1.818  -1.595  -0.484  0.00  0.00    +0.101 A 
ATOM      6  C   UNL     1      -3.049  -1.907   0.007  0.00  0.00    +0.094 A 
ATOM      7  S   UNL     1      -3.631  -2.987  -1.216  0.00  0.00    +0.028 S 
ATOM      8  N   UNL     1      -2.380  -2.976  -2.178  0.00  0.00    -0.110 NA
ATOM      9  N   UNL     1      -1.530  -2.187  -1.625  0.00  0.00    -0.144 NA
ENDBRANCH   4   5
BRANCH   4  11
ATOM     10  N   UNL     1      -0.669  -2.417   1.948  0.00  0.00    -0.284 N 
ATOM     11  C   UNL     1      -0.080  -1.427   1.249  0.00  0.00    +0.244 C 
ATOM     12  O   UNL     1       1.085  -1.153   1.450  0.00  0.00    -0.273 OA
ATOM     13  H   UNL     1      -1.574  -2.692   1.732  0.00  0.00    +0.155 HD
BRANCH  10  17
ATOM     14  C   UNL     1       1.397  -4.300   5.045  0.00  0.00    +0.029 A 
ATOM     15  C   UNL     1       1.609  -2.951   4.787  0.00  0.00    +0.025 A 
ATOM     16  C   UNL     1       0.925  -2.328   3.762  0.00  0.00    +0.025 A 
ATOM     17  C   UNL     1       0.025  -3.050   2.989  0.00  0.00    +0.034 A 
ATOM     18  C   UNL     1      -0.192  -4.396   3.250  0.00  0.00    +0.025 A 
ATOM     19  C   UNL     1       0.496  -5.021   4.271  0.00  0.00    +0.025 A 
BRANCH  14  21
ATOM     20  C   UNL     1       3.041  -4.170   6.897  0.00  0.00    +0.129 C 
ATOM     21  N   UNL     1       2.090  -4.931   6.082  0.00  0.00    -0.336 N 
ATOM     22  C   UNL     1       1.866  -6.353   6.354  0.00  0.00    +0.129 C 
ENDBRANCH  14  21
ENDBRANCH  10  17
ENDBRANCH   4  11
ENDBRANCH   1   4
BRANCH   1  23
ATOM     23  C   UNL     1       0.830  -0.941  -1.648  0.00  0.00    +0.144 C 
BRANCH  23  24
ATOM     24  C   UNL     1       2.155  -1.259  -1.005  0.00  0.00    -0.030 A 
ATOM     25  C   UNL     1       3.192  -0.347  -1.072  0.00  0.00    +0.006 A 
ATOM     26  C   UNL     1       4.406  -0.637  -0.479  0.00  0.00    +0.013 A 
ATOM     27  C   UNL     1       4.587  -1.843   0.173  0.00  0.00    +0.055 A 
ATOM     28  C   UNL     1       3.551  -2.756   0.236  0.00  0.00    +0.013 A 
ATOM     29  C   UNL     1       2.335  -2.465  -0.354  0.00  0.00    +0.006 A 
BRANCH  27  30
ATOM     30  C   UNL     1       5.912  -2.161   0.816  0.00  0.00    +0.417 C 
ATOM     31  F   UNL     1       6.737  -2.807  -0.111  0.00  0.00    -0.166 F 
ATOM     32  F   UNL     1       6.523  -0.975   1.237  0.00  0.00    -0.166 F 
ATOM     33  F   UNL     1       5.707  -2.996   1.919  0.00  0.00    -0.166 F 
ENDBRANCH  27  30
ENDBRANCH  23  24
ENDBRANCH   1  23
BRANCH   2  34
ATOM     34  C   UNL     1       1.225   1.867  -1.749  0.00  0.00    +0.212 C 
BRANCH  34  35
ATOM     35  N   UNL     1       0.945   3.292  -1.938  0.00  0.00    -0.225 N 
ATOM     36  C   UNL     1       0.177   3.793  -2.923  0.00  0.00    +0.254 C 
ATOM     37  O   UNL     1      -0.386   3.145  -3.782  0.00  0.00    -0.270 OA
ATOM     38  C   UNL     1       0.130   5.264  -2.782  0.00  0.00    +0.049 A 
ATOM     39  C   UNL     1      -0.489   6.284  -3.486  0.00  0.00    +0.014 A 
ATOM     40  C   UNL     1      -0.319   7.599  -3.082  0.00  0.00    +0.001 A 
ATOM     41  C   UNL     1       0.462   7.899  -1.982  0.00  0.00    +0.001 A 
ATOM     42  C   UNL     1       1.087   6.888  -1.268  0.00  0.00    +0.014 A 
ATOM     43  C   UNL     1       0.927   5.569  -1.660  0.00  0.00    +0.049 A 
ATOM     44  C   UNL     1       1.427   4.273  -1.154  0.00  0.00    +0.254 C 
ATOM     45  O   UNL     1       2.151   4.120  -0.192  0.00  0.00    -0.270 OA
ENDBRANCH  34  35
ENDBRANCH   2  34
TORSDOF 10
