REMARK  Name = ZINC37077846
REMARK  7 active torsions:
REMARK  status: ('A' for Active; 'I' for Inactive)
REMARK    1  A    between atoms: C_1  and  C_2
REMARK    2  A    between atoms: C_2  and  C_3
REMARK    3  A    between atoms: C_2  and  O_4
REMARK    4  A    between atoms: O_4  and  C_5
REMARK    5  A    between atoms: C_6  and  N_22
REMARK    6  A    between atoms: C_9  and  S_11
REMARK    7  A    between atoms: S_11  and  C_12
REMARK                            x       y       z     vdW  Elec       q    Type
REMARK                         _______ _______ _______ _____ _____    ______ ____
ROOT
ATOM      1  C   UNL     1      -1.928  -0.706  -1.193  0.00  0.00    +0.237 A 
ATOM      2  C   UNL     1      -3.237  -1.182  -1.248  0.00  0.00    +0.087 A 
ATOM      3  C   UNL     1      -3.830  -1.390  -2.488  0.00  0.00    +0.031 A 
ATOM      4  C   UNL     1      -3.093  -1.114  -3.629  0.00  0.00    +0.037 A 
ATOM      5  C   UNL     1      -1.794  -0.641  -3.500  0.00  0.00    +0.108 A 
ATOM      6  N   UNL     1      -1.258  -0.448  -2.303  0.00  0.00    -0.205 NA
ENDROOT
BRANCH   2   7
ATOM      7  N   UNL     1      -3.946  -1.448  -0.068  0.00  0.00    -0.354 N 
ATOM      8  H   UNL     1      -3.526  -1.301   0.794  0.00  0.00    +0.142 HD
ATOM      9  H   UNL     1      -4.857  -1.779  -0.114  0.00  0.00    +0.142 HD
ENDBRANCH   2   7
BRANCH   1  10
ATOM     10  O   UNL     1      -1.339  -0.499   0.012  0.00  0.00    -0.472 OA
BRANCH  10  12
ATOM     11  C   UNL     1      -0.019   1.526   0.010  0.00  0.00    +0.051 C 
ATOM     12  C   UNL     1       0.002  -0.004   0.002  0.00  0.00    +0.169 C 
ATOM     13  C   UNL     1       0.742  -0.511   1.242  0.00  0.00    +0.051 C 
ENDBRANCH  10  12
ENDBRANCH   1  10
BRANCH   5  14
ATOM     14  S   UNL     1      -0.848  -0.288  -4.944  0.00  0.00    -0.032 S 
BRANCH  14  15
ATOM     15  C   UNL     1       0.699   0.272  -4.314  0.00  0.00    +0.173 A 
ATOM     16  N   UNL     1       1.760   0.669  -5.078  0.00  0.00    -0.333 N 
ATOM     17  H   UNL     1       1.795   0.693  -6.047  0.00  0.00    +0.168 HD
ATOM     18  C   UNL     1       2.777   1.031  -4.210  0.00  0.00    +0.067 A 
ATOM     19  C   UNL     1       4.068   1.505  -4.387  0.00  0.00    +0.028 A 
ATOM     20  C   UNL     1       4.856   1.781  -3.288  0.00  0.00    +0.002 A 
ATOM     21  C   UNL     1       4.364   1.586  -2.006  0.00  0.00    +0.002 A 
ATOM     22  C   UNL     1       3.085   1.116  -1.811  0.00  0.00    +0.030 A 
ATOM     23  C   UNL     1       2.275   0.832  -2.914  0.00  0.00    +0.090 A 
ATOM     24  N   UNL     1       1.002   0.374  -3.044  0.00  0.00    -0.222 NA
ENDBRANCH  14  15
ENDBRANCH   5  14
TORSDOF 5
