REMARK  Name = ZINC09045599
REMARK  7 active torsions:
REMARK  status: ('A' for Active; 'I' for Inactive)
REMARK    1  A    between atoms: C_1  and  C_2
REMARK    2  A    between atoms: C_2  and  C_3
REMARK    3  A    between atoms: C_2  and  O_4
REMARK    4  A    between atoms: O_4  and  C_5
REMARK    5  A    between atoms: C_8  and  C_11
REMARK    6  A    between atoms: C_11  and  C_13
REMARK    7  A    between atoms: C_18  and  C_20
REMARK                            x       y       z     vdW  Elec       q    Type
REMARK                         _______ _______ _______ _____ _____    ______ ____
ROOT
ATOM      1  C   UNL     1       2.340   5.534  -0.015  0.00  0.00    +0.077 C 
ATOM      2  C   UNL     1       0.987   5.586  -0.034  0.00  0.00    +0.250 C 
ATOM      3  C   UNL     1       0.449   4.212  -0.075  0.00  0.00    +0.293 C 
ATOM      4  O   UNL     1      -0.732   3.926  -0.100  0.00  0.00    -0.266 OA
ATOM      5  N   UNL     1       1.459   3.323  -0.082  0.00  0.00    -0.232 N 
ATOM      6  C   UNL     1       2.720   4.072  -0.039  0.00  0.00    +0.152 C 
ATOM      7  C   UNL     1       1.331   1.941  -0.118  0.00  0.00    +0.168 A 
ATOM      8  N   UNL     1       0.232   1.212  -0.152  0.00  0.00    -0.233 NA
ATOM      9  C   UNL     1       0.287  -0.105  -0.184  0.00  0.00    +0.120 A 
ATOM     10  C   UNL     1       1.506  -0.701  -0.180  0.00  0.00    +0.068 A 
ATOM     11  S   UNL     1       2.575   0.730  -0.129  0.00  0.00    -0.060 S 
ATOM     12  O   UNL     1       0.246   6.718  -0.018  0.00  0.00    -0.282 OA
ENDROOT
BRANCH   6  13
ATOM     13  C   UNL     1       3.543   3.773  -1.265  0.00  0.00    -0.022 A 
ATOM     14  C   UNL     1       2.939   3.729  -2.508  0.00  0.00    +0.007 A 
ATOM     15  C   UNL     1       3.694   3.461  -3.634  0.00  0.00    +0.020 A 
ATOM     16  C   UNL     1       5.053   3.225  -3.516  0.00  0.00    +0.041 A 
ATOM     17  C   UNL     1       5.655   3.264  -2.271  0.00  0.00    +0.020 A 
ATOM     18  C   UNL     1       4.900   3.538  -1.147  0.00  0.00    +0.007 A 
ATOM     19 CL   UNL     1       6.000   2.881  -4.929  0.00  0.00    -0.084 Cl
ENDBRANCH   6  13
BRANCH   1  20
ATOM     20  C   UNL     1       3.259   6.676   0.026  0.00  0.00    +0.195 C 
ATOM     21  O   UNL     1       3.329   7.434  -0.923  0.00  0.00    -0.287 OA
BRANCH  20  25
ATOM     22  C   UNL     1       5.672   7.338   3.457  0.00  0.00    +0.121 A 
ATOM     23  C   UNL     1       5.693   8.251   2.409  0.00  0.00    +0.046 A 
ATOM     24  C   UNL     1       4.912   8.040   1.294  0.00  0.00    +0.015 A 
ATOM     25  C   UNL     1       4.098   6.906   1.218  0.00  0.00    +0.022 A 
ATOM     26  C   UNL     1       4.076   5.993   2.277  0.00  0.00    +0.015 A 
ATOM     27  C   UNL     1       4.863   6.209   3.386  0.00  0.00    +0.046 A 
BRANCH  22  28
ATOM     28  O   UNL     1       6.443   7.550   4.554  0.00  0.00    -0.489 OA
BRANCH  28  30
ATOM     29  C   UNL     1       7.648   9.103   5.959  0.00  0.00    +0.051 C 
ATOM     30  C   UNL     1       7.312   8.683   4.527  0.00  0.00    +0.167 C 
ATOM     31  C   UNL     1       8.601   8.320   3.786  0.00  0.00    +0.051 C 
ENDBRANCH  28  30
ENDBRANCH  22  28
ENDBRANCH  20  25
ENDBRANCH   1  20
TORSDOF 5
