REMARK  Name = ZINC66409568
REMARK  7 active torsions:
REMARK  status: ('A' for Active; 'I' for Inactive)
REMARK    1  A    between atoms: C_1  and  C_2
REMARK    2  A    between atoms: C_5  and  C_7
REMARK    3  A    between atoms: C_7  and  S_8
REMARK    4  A    between atoms: S_8  and  C_9
REMARK    5  A    between atoms: N_13  and  C_14
REMARK    6  A    between atoms: C_14  and  C_15
REMARK    7  A    between atoms: C_24  and  C_27
REMARK                            x       y       z     vdW  Elec       q    Type
REMARK                         _______ _______ _______ _____ _____    ______ ____
ROOT
ATOM      1  C   UNL     1       1.845  -6.309   1.742  0.00  0.00    +0.194 A 
ATOM      2  N   UNL     1       0.631  -6.725   2.013  0.00  0.00    -0.121 NA
ATOM      3  N   UNL     1       0.702  -8.085   2.339  0.00  0.00    -0.112 NA
ATOM      4  C   UNL     1       1.956  -8.456   2.258  0.00  0.00    +0.221 A 
ATOM      5  N   UNL     1       2.695  -7.370   1.882  0.00  0.00    -0.283 N 
ATOM      6  N   UNL     1       2.448  -9.732   2.505  0.00  0.00    -0.299 N 
ATOM      7  C   UNL     1       2.769 -10.158   3.874  0.00  0.00    +0.108 C 
ATOM      8  C   UNL     1       2.029 -11.466   4.170  0.00  0.00    +0.019 C 
ATOM      9  C   UNL     1       2.373 -12.497   3.094  0.00  0.00    +0.006 C 
ATOM     10  C   UNL     1       1.917 -11.982   1.726  0.00  0.00    +0.003 C 
ATOM     11  C   UNL     1       2.651 -10.682   1.403  0.00  0.00    +0.111 C 
ATOM     12  C   UNL     1       2.232 -13.029   0.656  0.00  0.00    +0.009 C 
ENDROOT
BRANCH   1  13
ATOM     13  S   UNL     1       2.299  -4.672   1.274  0.00  0.00    -0.081 S 
BRANCH  13  14
ATOM     14  C   UNL     1       0.729  -3.764   1.275  0.00  0.00    +0.121 C 
BRANCH  14  19
ATOM     15  C   UNL     1       1.773   1.704   0.816  0.00  0.00    +0.073 C 
ATOM     16  C   UNL     1       1.469   0.233   0.691  0.00  0.00    +0.075 A 
ATOM     17  N   UNL     1       1.230  -0.459  -0.395  0.00  0.00    -0.252 NA
ATOM     18  C   UNL     1       0.978  -1.752  -0.342  0.00  0.00    +0.123 A 
ATOM     19  C   UNL     1       0.978  -2.329   0.886  0.00  0.00    +0.020 A 
ATOM     20  S   UNL     1       1.362  -0.920   1.913  0.00  0.00    -0.077 S 
ENDBRANCH  14  19
ENDBRANCH  13  14
ENDBRANCH   1  13
BRANCH   5  21
ATOM     21  C   UNL     1       4.144  -7.346   1.669  0.00  0.00    +0.201 C 
BRANCH  21  22
ATOM     22  C   UNL     1       4.831  -6.909   2.938  0.00  0.00    +0.125 A 
ATOM     23  C   UNL     1       5.306  -7.725   3.896  0.00  0.00    +0.046 A 
ATOM     24  C   UNL     1       5.866  -6.898   4.896  0.00  0.00    +0.041 A 
ATOM     25  C   UNL     1       5.699  -5.627   4.490  0.00  0.00    +0.195 A 
ATOM     26  O   UNL     1       5.077  -5.640   3.300  0.00  0.00    -0.466 OA
ENDBRANCH  21  22
ENDBRANCH   5  21
TORSDOF 5
