REMARK  Name = ZINC20726100
REMARK  7 active torsions:
REMARK  status: ('A' for Active; 'I' for Inactive)
REMARK    1  A    between atoms: C_1  and  O_2
REMARK    2  A    between atoms: O_2  and  C_3
REMARK    3  A    between atoms: C_3  and  C_5
REMARK    4  A    between atoms: C_8  and  N_11
REMARK    5  A    between atoms: C_23  and  C_25
REMARK    6  A    between atoms: C_30  and  O_31
REMARK    7  A    between atoms: O_31  and  C_32
REMARK                            x       y       z     vdW  Elec       q    Type
REMARK                         _______ _______ _______ _____ _____    ______ ____
ROOT
ATOM      1  N   UNL     1      -1.831  -5.942  -0.161  0.00  0.00    -0.269 N 
ATOM      2  C   UNL     1      -2.903  -6.729   0.057  0.00  0.00    +0.307 C 
ATOM      3  O   UNL     1      -4.003  -6.231   0.200  0.00  0.00    -0.252 OA
ATOM      4  N   UNL     1      -2.756  -8.067   0.117  0.00  0.00    -0.272 N 
ATOM      5  C   UNL     1      -1.419  -8.679   0.120  0.00  0.00    +0.116 C 
ATOM      6  C   UNL     1      -1.196  -9.398   1.456  0.00  0.00    +0.076 C 
ATOM      7  C   UNL     1      -2.429 -10.201   1.788  0.00  0.00    +0.066 A 
ATOM      8  C   UNL     1      -3.642 -10.003   1.228  0.00  0.00    +0.064 A 
ATOM      9  N   UNL     1      -4.494 -10.908   1.780  0.00  0.00    -0.346 N 
ATOM     10  H   UNL     1      -5.437 -11.010   1.579  0.00  0.00    +0.167 HD
ATOM     11  C   UNL     1      -3.775 -11.640   2.663  0.00  0.00    +0.197 A 
ATOM     12  N   UNL     1      -2.541 -11.209   2.660  0.00  0.00    -0.240 NA
ATOM     13  C   UNL     1      -3.931  -8.955   0.188  0.00  0.00    +0.160 C 
ATOM     14  H   UNL     1      -0.979  -6.339  -0.401  0.00  0.00    +0.156 HD
ENDROOT
BRANCH   1  18
ATOM     15  C   UNL     1      -2.177  -1.806   0.193  0.00  0.00    +0.059 A 
ATOM     16  C   UNL     1      -0.927  -2.419   0.326  0.00  0.00    +0.017 A 
ATOM     17  C   UNL     1      -0.817  -3.786   0.208  0.00  0.00    +0.024 A 
ATOM     18  C   UNL     1      -1.947  -4.558  -0.043  0.00  0.00    +0.035 A 
ATOM     19  C   UNL     1      -3.192  -3.951  -0.176  0.00  0.00    +0.024 A 
ATOM     20  C   UNL     1      -3.311  -2.586  -0.054  0.00  0.00    +0.017 A 
BRANCH  15  21
ATOM     21  C   UNL     1      -2.299  -0.342   0.319  0.00  0.00    +0.339 C 
ATOM     22  O   UNL     1      -3.386   0.188   0.208  0.00  0.00    -0.245 OA
BRANCH  21  24
ATOM     23  C   UNL     1      -1.397   1.819   0.667  0.00  0.00    +0.280 C 
ATOM     24  O   UNL     1      -1.205   0.407   0.557  0.00  0.00    -0.464 OA
ENDBRANCH  21  24
ENDBRANCH  15  21
ENDBRANCH   1  18
BRANCH  13  25
ATOM     25  C   UNL     1      -4.157  -9.613  -1.148  0.00  0.00    +0.021 A 
ATOM     26  C   UNL     1      -3.903 -10.962  -1.307  0.00  0.00    +0.009 A 
ATOM     27  C   UNL     1      -4.110 -11.566  -2.533  0.00  0.00    +0.001 A 
ATOM     28  C   UNL     1      -4.573 -10.823  -3.603  0.00  0.00    +0.004 A 
ATOM     29  C   UNL     1      -4.830  -9.475  -3.450  0.00  0.00    +0.046 A 
ATOM     30  C   UNL     1      -4.628  -8.867  -2.219  0.00  0.00    +0.135 A 
BRANCH  30  31
ATOM     31  O   UNL     1      -4.885  -7.542  -2.064  0.00  0.00    -0.405 OA
BRANCH  31  32
ATOM     32  C   UNL     1      -5.367  -6.836  -3.209  0.00  0.00    +0.575 C 
ATOM     33  F   UNL     1      -6.572  -7.405  -3.635  0.00  0.00    -0.133 F 
ATOM     34  F   UNL     1      -5.577  -5.494  -2.876  0.00  0.00    -0.133 F 
ATOM     35  F   UNL     1      -4.423  -6.918  -4.239  0.00  0.00    -0.133 F 
ENDBRANCH  31  32
ENDBRANCH  30  31
ENDBRANCH  13  25
TORSDOF 6
