REMARK  Name = ZINC37675720
REMARK  7 active torsions:
REMARK  status: ('A' for Active; 'I' for Inactive)
REMARK    1  A    between atoms: C_1  and  C_2
REMARK    2  A    between atoms: C_3  and  C_18
REMARK    3  A    between atoms: C_4  and  N_7
REMARK    4  A    between atoms: C_8  and  C_10
REMARK    5  A    between atoms: C_13  and  C_15
REMARK    6  A    between atoms: C_15  and  S_16
REMARK    7  A    between atoms: S_16  and  C_17
REMARK                            x       y       z     vdW  Elec       q    Type
REMARK                         _______ _______ _______ _____ _____    ______ ____
ROOT
ATOM      1  N   UNL     1       0.033  -3.095  -2.002  0.00  0.00    -0.272 N 
ATOM      2  C   UNL     1       0.053  -4.395  -1.645  0.00  0.00    +0.284 C 
ATOM      3  O   UNL     1       0.064  -4.702  -0.468  0.00  0.00    -0.266 OA
ATOM      4  H   UNL     1       0.025  -2.850  -2.941  0.00  0.00    +0.156 HD
ENDROOT
BRANCH   1   8
ATOM      5  C   UNL     1      -0.018   1.503   0.010  0.00  0.00    +0.067 C 
ATOM      6  C   UNL     1       0.002  -0.004   0.002  0.00  0.00    +0.063 A 
ATOM      7  C   UNL     1       0.006  -0.723  -1.196  0.00  0.00    +0.114 A 
ATOM      8  C   UNL     1       0.025  -2.112  -1.031  0.00  0.00    +0.106 A 
ATOM      9  S   UNL     1       0.036  -2.289   0.637  0.00  0.00    +0.028 S 
ATOM     10  N   UNL     1       0.022  -0.686   1.111  0.00  0.00    -0.213 NA
BRANCH   7  11
ATOM     11  C   UNL     1      -0.010  -0.079  -2.509  0.00  0.00    +0.391 C 
ATOM     12  O   UNL     1      -0.027   1.143  -2.592  0.00  0.00    -0.240 OA
ATOM     13  O   UNL     1      -0.006  -0.761  -3.526  0.00  0.00    -0.240 OA
ENDBRANCH   7  11
ENDBRANCH   1   8
BRANCH   2  14
ATOM     14  C   UNL     1       0.061  -5.438  -2.675  0.00  0.00    +0.190 A 
ATOM     15  C   UNL     1       0.075  -6.785  -2.453  0.00  0.00    +0.055 A 
ATOM     16  C   UNL     1       0.078  -7.402  -3.714  0.00  0.00    +0.046 A 
ATOM     17  C   UNL     1       0.066  -6.417  -4.639  0.00  0.00    +0.116 A 
ATOM     18  O   UNL     1       0.050  -5.235  -4.009  0.00  0.00    -0.454 OA
BRANCH  17  19
ATOM     19  C   UNL     1       0.064  -6.616  -6.133  0.00  0.00    +0.143 C 
BRANCH  19  20
ATOM     20  S   UNL     1      -1.647  -6.712  -6.727  0.00  0.00    -0.156 S 
ATOM     21  C   UNL     1      -1.477  -6.949  -8.518  0.00  0.00    +0.084 C 
ENDBRANCH  19  20
ENDBRANCH  17  19
ENDBRANCH   2  14
TORSDOF 5
