REMARK  Name = ZINC12281517
REMARK  12 active torsions:
REMARK  status: ('A' for Active; 'I' for Inactive)
REMARK    1  A    between atoms: C_1  and  C_2
REMARK    2  A    between atoms: C_2  and  C_40
REMARK    3  A    between atoms: C_7  and  C_11
REMARK    4  A    between atoms: C_11  and  C_12
REMARK    5  A    between atoms: C_12  and  O_13
REMARK    6  A    between atoms: O_13  and  C_14
REMARK    7  A    between atoms: C_17  and  C_22
REMARK    8  A    between atoms: C_19  and  O_20
REMARK    9  A    between atoms: O_20  and  C_21
REMARK   10  A    between atoms: C_22  and  N_23
REMARK   11  A    between atoms: N_23  and  C_24
REMARK   12  A    between atoms: C_33  and  C_35
REMARK                            x       y       z     vdW  Elec       q    Type
REMARK                         _______ _______ _______ _____ _____    ______ ____
ROOT
ATOM      1  C   UNL     1      -0.968  -0.322   0.470  0.00  0.00    +0.162 A 
ATOM      2  C   UNL     1      -1.071  -1.703   0.503  0.00  0.00    +0.050 A 
ATOM      3  C   UNL     1       0.067  -2.484   0.421  0.00  0.00    +0.009 A 
ATOM      4  C   UNL     1       1.310  -1.889   0.307  0.00  0.00    -0.026 A 
ATOM      5  C   UNL     1       1.420  -0.512   0.268  0.00  0.00    +0.054 A 
ATOM      6  C   UNL     1       0.283   0.277   0.355  0.00  0.00    +0.162 A 
ENDROOT
BRANCH   6   7
ATOM      7  O   UNL     1       0.390   1.632   0.322  0.00  0.00    -0.491 OA
ATOM      8  C   UNL     1       1.706   2.176   0.203  0.00  0.00    +0.277 C 
ENDBRANCH   6   7
BRANCH   1   9
ATOM      9  O   UNL     1      -2.086   0.448   0.550  0.00  0.00    -0.488 OA
BRANCH   9  10
ATOM     10  C   UNL     1      -3.336  -0.235   0.667  0.00  0.00    +0.233 C 
BRANCH  10  11
ATOM     11  C   UNL     1      -4.471   0.788   0.744  0.00  0.00    +0.071 C 
BRANCH  11  17
ATOM     12  C   UNL     1      -5.982  -2.746   0.728  0.00  0.00    +0.012 C 
ATOM     13  C   UNL     1      -6.965  -1.925  -0.108  0.00  0.00    -0.025 C 
ATOM     14  C   UNL     1      -8.106  -1.297   0.711  0.00  0.00    -0.000 C 
ATOM     15  C   UNL     1      -7.665  -0.870   2.118  0.00  0.00    +0.031 C 
ATOM     16  C   UNL     1      -6.339  -0.152   2.039  0.00  0.00    -0.027 C 
ATOM     17  C   UNL     1      -5.789   0.069   0.867  0.00  0.00    -0.067 C 
ATOM     18  C   UNL     1      -6.536  -0.424  -0.360  0.00  0.00    +0.021 C 
ATOM     19  C   UNL     1      -8.036  -0.108  -0.270  0.00  0.00    +0.012 C 
ATOM     20  C   UNL     1      -7.435  -2.651  -1.370  0.00  0.00    +0.012 C 
ENDBRANCH  11  17
ENDBRANCH  10  11
ENDBRANCH   9  10
ENDBRANCH   1   9
BRANCH   4  21
ATOM     21  C   UNL     1       2.547  -2.745   0.220  0.00  0.00    +0.144 C 
BRANCH  21  22
ATOM     22  N   UNL     1       2.756  -3.161  -1.170  0.00  0.00    -0.280 N 
ATOM     23  C   UNL     1       3.451  -2.371  -2.012  0.00  0.00    +0.268 C 
ATOM     24  O   UNL     1       3.534  -2.662  -3.189  0.00  0.00    -0.268 OA
BRANCH  22  25
ATOM     25  C   UNL     1       2.209  -4.434  -1.643  0.00  0.00    +0.163 C 
ATOM     26  C   UNL     1       1.279  -4.184  -2.833  0.00  0.00    +0.032 C 
ATOM     27  C   UNL     1       0.263  -5.305  -2.967  0.00  0.00    +0.004 C 
ATOM     28  C   UNL     1       0.871  -6.643  -3.344  0.00  0.00    +0.019 C 
ATOM     29  C   UNL     1       1.751  -7.180  -2.213  0.00  0.00    +0.104 C 
ATOM     30  N   UNL     1       3.104  -6.622  -2.363  0.00  0.00    -0.314 N 
ATOM     31  C   UNL     1       3.338  -5.336  -2.097  0.00  0.00    +0.234 C 
ATOM     32  O   UNL     1       4.458  -4.887  -2.218  0.00  0.00    -0.274 OA
ATOM     33  H   UNL     1       3.831  -7.193  -2.657  0.00  0.00    +0.149 HD
ENDBRANCH  22  25
BRANCH  23  34
ATOM     34  C   UNL     1       4.113  -1.152  -1.505  0.00  0.00    +0.154 A 
ATOM     35  C   UNL     1       4.730  -0.217  -2.332  0.00  0.00    +0.155 A 
ATOM     36  N   UNL     1       5.257   0.792  -1.688  0.00  0.00    -0.198 NA
ATOM     37  S   UNL     1       4.961   0.520  -0.169  0.00  0.00    +0.116 S 
ATOM     38  N   UNL     1       4.173  -0.839  -0.222  0.00  0.00    -0.186 NA
ENDBRANCH  23  34
ENDBRANCH  21  22
ENDBRANCH   4  21
TORSDOF 9
