REMARK  Name = ZINC14184899
REMARK  5 active torsions:
REMARK  status: ('A' for Active; 'I' for Inactive)
REMARK    1  A    between atoms: C_1  and  C_2
REMARK    2  A    between atoms: C_2  and  C_29
REMARK    3  A    between atoms: N_5  and  C_9
REMARK    4  A    between atoms: C_9  and  C_10
REMARK    5  A    between atoms: C_21  and  C_23
REMARK                            x       y       z     vdW  Elec       q    Type
REMARK                         _______ _______ _______ _____ _____    ______ ____
ROOT
ATOM      1  C   UNL     1      -2.374  -0.122   0.303  0.00  0.00    +0.238 C 
ATOM      2  O   UNL     1      -3.414  -0.741   0.213  0.00  0.00    -0.273 OA
ATOM      3  N   UNL     1      -1.204  -0.727   0.018  0.00  0.00    -0.256 N 
ATOM      4  C   UNL     1      -1.146  -2.102  -0.266  0.00  0.00    +0.079 A 
ATOM      5  C   UNL     1      -2.232  -2.915   0.012  0.00  0.00    +0.027 A 
ATOM      6  C   UNL     1      -2.172  -4.267  -0.273  0.00  0.00    +0.002 A 
ATOM      7  C   UNL     1      -1.029  -4.806  -0.835  0.00  0.00    +0.004 A 
ATOM      8  C   UNL     1       0.058  -3.999  -1.114  0.00  0.00    +0.047 A 
ATOM      9  C   UNL     1       0.007  -2.642  -0.830  0.00  0.00    +0.142 A 
ATOM     10  O   UNL     1       1.081  -1.857  -1.104  0.00  0.00    -0.488 OA
ATOM     11  C   UNL     1       0.865  -0.449  -1.221  0.00  0.00    +0.256 C 
ATOM     12  C   UNL     1       0.059   0.031  -0.005  0.00  0.00    +0.149 C 
ENDROOT
BRANCH  12  13
ATOM     13  C   UNL     1       0.836  -0.229   1.260  0.00  0.00    -0.023 A 
ATOM     14  C   UNL     1       0.873  -1.502   1.798  0.00  0.00    +0.005 A 
ATOM     15  C   UNL     1       1.588  -1.742   2.957  0.00  0.00    +0.000 A 
ATOM     16  C   UNL     1       2.260  -0.707   3.580  0.00  0.00    +0.000 A 
ATOM     17  C   UNL     1       2.219   0.567   3.045  0.00  0.00    +0.000 A 
ATOM     18  C   UNL     1       1.506   0.805   1.884  0.00  0.00    +0.005 A 
ENDBRANCH  12  13
BRANCH   1  19
ATOM     19  C   UNL     1      -2.392   1.322   0.731  0.00  0.00    +0.214 C 
BRANCH  19  24
ATOM     20  C   UNL     1      -6.277   3.944   1.053  0.00  0.00    +0.047 C 
ATOM     21  C   UNL     1      -5.914   2.457   1.054  0.00  0.00    +0.135 C 
ATOM     22  C   UNL     1      -4.658   2.219   0.239  0.00  0.00    +0.251 C 
ATOM     23  O   UNL     1      -4.498   2.441  -0.942  0.00  0.00    -0.272 OA
ATOM     24  N   UNL     1      -3.757   1.706   1.100  0.00  0.00    -0.215 N 
ATOM     25  C   UNL     1      -4.261   1.595   2.334  0.00  0.00    +0.310 C 
ATOM     26  O   UNL     1      -3.636   1.163   3.283  0.00  0.00    -0.252 OA
ATOM     27  N   UNL     1      -5.537   2.017   2.408  0.00  0.00    -0.281 N 
ATOM     28  H   UNL     1      -6.098   2.028   3.199  0.00  0.00    +0.152 HD
BRANCH  21  29
ATOM     29  C   UNL     1      -7.061   1.633   0.529  0.00  0.00    -0.015 A 
ATOM     30  C   UNL     1      -7.171   1.389  -0.828  0.00  0.00    +0.009 A 
ATOM     31  C   UNL     1      -8.220   0.629  -1.310  0.00  0.00    +0.039 A 
ATOM     32  C   UNL     1      -9.166   0.121  -0.436  0.00  0.00    +0.123 A 
ATOM     33  C   UNL     1      -9.057   0.370   0.922  0.00  0.00    +0.039 A 
ATOM     34  C   UNL     1      -8.004   1.126   1.403  0.00  0.00    +0.009 A 
ATOM     35  F   UNL     1     -10.194  -0.618  -0.907  0.00  0.00    -0.205 F 
ENDBRANCH  21  29
ENDBRANCH  19  24
ENDBRANCH   1  19
TORSDOF 4
