REMARK  Name = ZINC10246993
REMARK  6 active torsions:
REMARK  status: ('A' for Active; 'I' for Inactive)
REMARK    1  A    between atoms: C_1  and  C_2
REMARK    2  A    between atoms: C_7  and  N_8
REMARK    3  A    between atoms: C_10  and  C_15
REMARK    4  A    between atoms: N_17  and  C_18
REMARK    5  A    between atoms: C_26  and  C_27
REMARK    6  A    between atoms: N_29  and  C_30
REMARK                            x       y       z     vdW  Elec       q    Type
REMARK                         _______ _______ _______ _____ _____    ______ ____
ROOT
ATOM      1  C   UNL     1       5.324  -4.760   1.184  0.00  0.00    +0.092 A 
ATOM      2  C   UNL     1       6.711  -5.125   1.498  0.00  0.00    +0.042 A 
ATOM      3  C   UNL     1       7.384  -6.337   1.651  0.00  0.00    +0.013 A 
ATOM      4  C   UNL     1       8.716  -6.339   1.959  0.00  0.00    +0.001 A 
ATOM      5  C   UNL     1       9.401  -5.143   2.119  0.00  0.00    +0.004 A 
ATOM      6  C   UNL     1       8.753  -3.935   1.972  0.00  0.00    +0.047 A 
ATOM      7  C   UNL     1       7.399  -3.910   1.659  0.00  0.00    +0.138 A 
ATOM      8  O   UNL     1       6.520  -2.908   1.458  0.00  0.00    -0.448 OA
ATOM      9  C   UNL     1       5.290  -3.392   1.173  0.00  0.00    +0.212 A 
ENDROOT
BRANCH   1  12
ATOM     10  C   UNL     1       4.468  -6.769   0.261  0.00  0.00    +0.222 C 
ATOM     11  O   UNL     1       5.596  -7.111  -0.024  0.00  0.00    -0.275 OA
ATOM     12  N   UNL     1       4.263  -5.626   0.945  0.00  0.00    -0.282 N 
ATOM     13  H   UNL     1       3.376  -5.408   1.270  0.00  0.00    +0.155 HD
BRANCH  10  16
ATOM     14  N   UNL     1       3.917  -8.873  -2.099  0.00  0.00    -0.270 N 
ATOM     15  C   UNL     1       3.766  -9.007  -0.645  0.00  0.00    +0.127 C 
ATOM     16  C   UNL     1       3.295  -7.622  -0.149  0.00  0.00    +0.102 C 
ATOM     17  C   UNL     1       2.611  -7.051  -1.413  0.00  0.00    +0.110 C 
ATOM     18  C   UNL     1       3.273  -7.786  -2.558  0.00  0.00    +0.221 C 
ATOM     19  O   UNL     1       3.230  -7.444  -3.721  0.00  0.00    -0.275 OA
BRANCH  14  26
ATOM     20  C   UNL     1       6.588  -8.189  -2.798  0.00  0.00    +0.045 C 
ATOM     21  C   UNL     1       5.944  -9.467  -3.268  0.00  0.00    -0.029 A 
ATOM     22  C   UNL     1       6.654 -10.348  -4.062  0.00  0.00    +0.005 A 
ATOM     23  C   UNL     1       6.063 -11.521  -4.494  0.00  0.00    +0.000 A 
ATOM     24  C   UNL     1       4.762 -11.818  -4.132  0.00  0.00    +0.002 A 
ATOM     25  C   UNL     1       4.049 -10.945  -3.334  0.00  0.00    +0.024 A 
ATOM     26  C   UNL     1       4.638  -9.762  -2.903  0.00  0.00    +0.039 A 
ENDBRANCH  14  26
ENDBRANCH  10  16
ENDBRANCH   1  12
BRANCH   9  27
ATOM     27  C   UNL     1       4.106  -2.580   0.901  0.00  0.00    +0.285 C 
ATOM     28  O   UNL     1       3.022  -3.115   0.753  0.00  0.00    -0.266 OA
ATOM     29  N   UNL     1       4.214  -1.240   0.813  0.00  0.00    -0.279 N 
ATOM     30  H   UNL     1       5.085  -0.818   0.879  0.00  0.00    +0.155 HD
BRANCH  29  31
ATOM     31  C   UNL     1       3.069  -0.456   0.627  0.00  0.00    +0.037 A 
ATOM     32  C   UNL     1       2.013  -0.938  -0.136  0.00  0.00    +0.027 A 
ATOM     33  C   UNL     1       0.884  -0.165  -0.321  0.00  0.00    +0.051 A 
ATOM     34  C   UNL     1       0.800   1.095   0.255  0.00  0.00    +0.162 A 
ATOM     35  C   UNL     1       1.853   1.579   1.021  0.00  0.00    +0.164 A 
ATOM     36  C   UNL     1       2.988   0.803   1.204  0.00  0.00    +0.072 A 
ATOM     37  O   UNL     1       1.785   2.809   1.600  0.00  0.00    -0.485 OA
ATOM     38  C   UNL     1       0.795   3.708   1.089  0.00  0.00    +0.270 C 
ATOM     39  C   UNL     1      -0.527   2.941   0.954  0.00  0.00    +0.270 C 
ATOM     40  O   UNL     1      -0.319   1.846   0.055  0.00  0.00    -0.485 OA
ENDBRANCH  29  31
ENDBRANCH   9  27
TORSDOF 5
