REMARK  Name = ZINC09090459
REMARK  8 active torsions:
REMARK  status: ('A' for Active; 'I' for Inactive)
REMARK    1  A    between atoms: C_1  and  C_2
REMARK    2  A    between atoms: C_2  and  N_3
REMARK    3  A    between atoms: C_7  and  C_24
REMARK    4  A    between atoms: C_9  and  C_17
REMARK    5  A    between atoms: C_11  and  C_12
REMARK    6  A    between atoms: C_11  and  O_16
REMARK    7  A    between atoms: C_17  and  C_19
REMARK    8  A    between atoms: C_27  and  N_30
REMARK                            x       y       z     vdW  Elec       q    Type
REMARK                         _______ _______ _______ _____ _____    ______ ____
ROOT
ATOM      1  N   UNL     1       2.328  -0.665  -0.225  0.00  0.00    -0.250 N 
ATOM      2  C   UNL     1       1.651  -1.740  -0.656  0.00  0.00    +0.305 C 
ATOM      3  O   UNL     1       2.267  -2.647  -1.180  0.00  0.00    -0.253 OA
ATOM      4  N   UNL     1       0.320  -1.852  -0.533  0.00  0.00    -0.292 N 
ATOM      5  C   UNL     1      -0.478  -0.797   0.094  0.00  0.00    +0.120 C 
ATOM      6  C   UNL     1       0.214   0.551  -0.112  0.00  0.00    +0.145 C 
ATOM      7  C   UNL     1       1.646   0.455   0.425  0.00  0.00    +0.246 C 
ATOM      8  H   UNL     1      -0.123  -2.647  -0.869  0.00  0.00    +0.151 HD
ENDROOT
BRANCH   5   9
ATOM      9  C   UNL     1      -0.606  -1.073   1.571  0.00  0.00    -0.026 A 
ATOM     10  C   UNL     1       0.314  -1.887   2.204  0.00  0.00    +0.008 A 
ATOM     11  C   UNL     1       0.200  -2.136   3.559  0.00  0.00    +0.033 A 
ATOM     12  C   UNL     1      -0.840  -1.577   4.279  0.00  0.00    +0.126 A 
ATOM     13  C   UNL     1      -1.762  -0.767   3.645  0.00  0.00    +0.033 A 
ATOM     14  C   UNL     1      -1.645  -0.514   2.291  0.00  0.00    +0.008 A 
BRANCH  12  15
ATOM     15  N   UNL     1      -0.965  -1.848   5.729  0.00  0.00    +0.056 N 
ATOM     16  O   UNL     1      -1.881  -1.357   6.363  0.00  0.00    -0.126 OA
ATOM     17  O   UNL     1      -0.152  -2.563   6.287  0.00  0.00    -0.126 OA
ENDBRANCH  12  15
ENDBRANCH   5   9
BRANCH   7  18
ATOM     18  C   UNL     1       2.394   1.754   0.121  0.00  0.00    +0.436 C 
ATOM     19  F   UNL     1       2.555   1.888  -1.262  0.00  0.00    -0.166 F 
ATOM     20  F   UNL     1       1.661   2.840   0.613  0.00  0.00    -0.166 F 
ATOM     21  F   UNL     1       3.651   1.724   0.736  0.00  0.00    -0.166 F 
ENDBRANCH   7  18
BRANCH   1  23
ATOM     22  C   UNL     1       4.474  -1.086   0.871  0.00  0.00    +0.024 C 
ATOM     23  C   UNL     1       3.781  -0.612  -0.408  0.00  0.00    +0.109 C 
ENDBRANCH   1  23
BRANCH   7  24
ATOM     24  O   UNL     1       1.613   0.240   1.837  0.00  0.00    -0.364 OA
ATOM     25  H   UNL     1       2.487   0.164   2.244  0.00  0.00    +0.212 HD
ENDBRANCH   7  24
BRANCH   6  26
ATOM     26  C   UNL     1       0.246   0.879  -1.583  0.00  0.00    +0.180 C 
ATOM     27  O   UNL     1       1.177   0.507  -2.268  0.00  0.00    -0.291 OA
BRANCH  26  28
ATOM     28  C   UNL     1      -0.808   1.617  -2.164  0.00  0.00    +0.055 A 
ATOM     29  C   UNL     1      -0.971   2.021  -3.486  0.00  0.00    +0.019 A 
ATOM     30  C   UNL     1      -2.101   2.736  -3.783  0.00  0.00    +0.008 A 
ATOM     31  C   UNL     1      -2.993   3.013  -2.793  0.00  0.00    +0.046 A 
ATOM     32  S   UNL     1      -2.281   2.270  -1.398  0.00  0.00    -0.094 S 
ENDBRANCH  26  28
ENDBRANCH   6  26
TORSDOF 7
