REMARK  Name = ZINC67415036
REMARK  6 active torsions:
REMARK  status: ('A' for Active; 'I' for Inactive)
REMARK    1  A    between atoms: C_1  and  C_2
REMARK    2  A    between atoms: C_9  and  C_11
REMARK    3  A    between atoms: C_11  and  N_12
REMARK    4  A    between atoms: C_16  and  C_19
REMARK    5  A    between atoms: C_19  and  N_20
REMARK    6  A    between atoms: C_21  and  C_23
REMARK                            x       y       z     vdW  Elec       q    Type
REMARK                         _______ _______ _______ _____ _____    ______ ____
ROOT
ATOM      1  N   UNL     1      -2.826  -4.980  -1.440  0.00  0.00    +0.386 N 
ATOM      2  C   UNL     1      -4.234  -4.613  -1.250  0.00  0.00    -0.078 C 
ATOM      3  C   UNL     1      -5.083  -5.242  -2.357  0.00  0.00    -0.018 C 
ATOM      4  C   UNL     1      -4.938  -6.766  -2.299  0.00  0.00    +0.001 C 
ATOM      5  C   UNL     1      -3.457  -7.133  -2.423  0.00  0.00    -0.011 C 
ATOM      6  C   UNL     1      -2.669  -6.434  -1.314  0.00  0.00    -0.073 C 
ATOM      7  H   UNL     1      -2.525  -4.688  -2.358  0.00  0.00    -0.081 HD
ENDROOT
BRANCH   1   8
ATOM      8  C   UNL     1      -2.006  -4.310  -0.421  0.00  0.00    +0.019 C 
BRANCH   8  16
ATOM      9  C   UNL     1      -0.019   1.526   0.010  0.00  0.00    +0.039 C 
ATOM     10  C   UNL     1       0.002  -0.004   0.002  0.00  0.00    +0.132 C 
ATOM     11  C   UNL     1      -1.436  -0.536   0.015  0.00  0.00    +0.139 C 
ATOM     12  N   UNL     1      -1.389  -1.995   0.196  0.00  0.00    -0.298 N 
ATOM     13  C   UNL     1      -0.578  -2.530   1.302  0.00  0.00    +0.136 C 
ATOM     14  C   UNL     1       0.818  -1.901   1.226  0.00  0.00    +0.179 C 
ATOM     15  O   UNL     1       0.691  -0.479   1.161  0.00  0.00    -0.374 OA
ATOM     16  C   UNL     1      -2.069  -2.818  -0.627  0.00  0.00    +0.199 C 
ATOM     17  O   UNL     1      -2.732  -2.358  -1.532  0.00  0.00    -0.278 OA
ENDBRANCH   8  16
ENDBRANCH   1   8
BRANCH   5  18
ATOM     18  C   UNL     1      -3.293  -8.649  -2.289  0.00  0.00    +0.105 C 
BRANCH  18  19
ATOM     19  N   UNL     1      -3.953  -9.313  -3.417  0.00  0.00    -0.315 N 
ATOM     20  C   UNL     1      -3.938 -10.657  -3.509  0.00  0.00    +0.210 C 
ATOM     21  O   UNL     1      -3.379 -11.318  -2.659  0.00  0.00    -0.276 OA
ATOM     22  C   UNL     1      -4.616 -11.340  -4.669  0.00  0.00    +0.109 C 
ATOM     23  H   UNL     1      -4.400  -8.785  -4.096  0.00  0.00    +0.149 HD
ENDBRANCH  18  19
ENDBRANCH   5  18
TORSDOF 4
