REMARK  Name = ZINC49737408
REMARK  9 active torsions:
REMARK  status: ('A' for Active; 'I' for Inactive)
REMARK    1  A    between atoms: C_1  and  C_2
REMARK    2  A    between atoms: C_2  and  C_3
REMARK    3  A    between atoms: C_2  and  C_4
REMARK    4  A    between atoms: C_4  and  C_5
REMARK    5  A    between atoms: C_5  and  C_7
REMARK    6  A    between atoms: C_5  and  N_24
REMARK    7  A    between atoms: C_7  and  N_8
REMARK    8  A    between atoms: N_8  and  S_9
REMARK    9  A    between atoms: S_9  and  C_12
REMARK                            x       y       z     vdW  Elec       q    Type
REMARK                         _______ _______ _______ _____ _____    ______ ____
ROOT
ATOM      1  N   UNL     1      -4.249  -0.399  -2.279  0.00  0.00    -0.191 NA
ATOM      2  H   UNL     1      -3.799  -0.050  -3.065  0.00  0.00    +0.148 HD
ENDROOT
BRANCH   1   3
ATOM      3  S   UNL     1      -5.788  -0.996  -2.404  0.00  0.00    +0.058 S 
ATOM      4  O   UNL     1      -6.177  -0.836  -3.761  0.00  0.00    -0.153 OA
ATOM      5  O   UNL     1      -5.787  -2.260  -1.756  0.00  0.00    -0.153 OA
BRANCH   3   6
ATOM      6  C   UNL     1      -6.834   0.056  -1.453  0.00  0.00    +0.107 A 
ATOM      7  C   UNL     1      -7.050  -0.216  -0.113  0.00  0.00    +0.030 A 
ATOM      8  C   UNL     1      -7.868   0.603   0.640  0.00  0.00    +0.030 A 
ATOM      9  C   UNL     1      -8.475   1.702   0.052  0.00  0.00    +0.067 A 
ATOM     10  C   UNL     1      -8.257   1.976  -1.300  0.00  0.00    +0.069 A 
ATOM     11  C   UNL     1      -7.430   1.152  -2.047  0.00  0.00    +0.056 A 
ATOM     12  N   UNL     1      -8.986   3.124  -1.600  0.00  0.00    -0.306 N 
ATOM     13  H   UNL     1      -9.031   3.558  -2.467  0.00  0.00    +0.170 HD
ATOM     14  C   UNL     1      -9.619   3.530  -0.483  0.00  0.00    +0.325 A 
ATOM     15  O   UNL     1     -10.342   4.505  -0.402  0.00  0.00    -0.247 OA
ATOM     16  N   UNL     1      -9.330   2.692   0.531  0.00  0.00    -0.306 N 
ATOM     17  H   UNL     1      -9.662   2.765   1.440  0.00  0.00    +0.170 HD
ENDBRANCH   3   6
ENDBRANCH   1   3
BRANCH   1  18
ATOM     18  C   UNL     1      -3.566  -0.397  -0.983  0.00  0.00    +0.090 C 
BRANCH  18  19
ATOM     19  C   UNL     1      -2.055  -0.296  -1.202  0.00  0.00    -0.053 C 
BRANCH  19  20
ATOM     20  N   UNL     1      -1.558  -1.554  -1.774  0.00  0.00    +0.382 N 
ATOM     21  C   UNL     1      -2.125  -1.738  -3.116  0.00  0.00    -0.078 C 
ATOM     22  C   UNL     1      -1.548  -3.005  -3.749  0.00  0.00    -0.019 C 
ATOM     23  C   UNL     1      -1.901  -4.212  -2.874  0.00  0.00    -0.004 C 
ATOM     24  C   UNL     1      -1.369  -3.977  -1.458  0.00  0.00    -0.019 C 
ATOM     25  C   UNL     1      -1.953  -2.673  -0.910  0.00  0.00    -0.078 C 
ATOM     26  H   UNL     1      -0.552  -1.519  -1.839  0.00  0.00    -0.081 HD
ENDBRANCH  19  20
BRANCH  19  27
ATOM     27  C   UNL     1      -1.362  -0.036   0.137  0.00  0.00    -0.011 C 
BRANCH  27  29
ATOM     28  C   UNL     1       0.373   1.421  -0.916  0.00  0.00    +0.007 C 
ATOM     29  C   UNL     1       0.138   0.152  -0.094  0.00  0.00    -0.019 C 
ATOM     30  C   UNL     1       0.850   0.280   1.255  0.00  0.00    +0.007 C 
ENDBRANCH  27  29
ENDBRANCH  19  27
ENDBRANCH  18  19
ENDBRANCH   1  18
TORSDOF 7
