REMARK  Name = ZINC57415414
REMARK  10 active torsions:
REMARK  status: ('A' for Active; 'I' for Inactive)
REMARK    1  A    between atoms: C_1  and  C_2
REMARK    2  A    between atoms: C_2  and  O_3
REMARK    3  A    between atoms: O_3  and  C_4
REMARK    4  A    between atoms: C_7  and  C_10
REMARK    5  A    between atoms: C_12  and  C_32
REMARK    6  A    between atoms: C_13  and  C_18
REMARK    7  A    between atoms: C_18  and  N_19
REMARK    8  A    between atoms: N_22  and  C_25
REMARK    9  A    between atoms: C_32  and  O_34
REMARK   10  A    between atoms: O_34  and  C_35
REMARK                            x       y       z     vdW  Elec       q    Type
REMARK                         _______ _______ _______ _____ _____    ______ ____
ROOT
ATOM      1  C   UNL     1       1.013  -6.001  -1.865  0.00  0.00    +0.144 C 
ATOM      2  C   UNL     1       2.362  -6.385  -1.292  0.00  0.00    +0.079 C 
ATOM      3  C   UNL     1       3.248  -6.985  -2.116  0.00  0.00    +0.038 C 
ATOM      4  N   UNL     1       2.936  -7.237  -3.422  0.00  0.00    -0.271 N 
ATOM      5  C   UNL     1       1.761  -6.919  -3.979  0.00  0.00    +0.304 C 
ATOM      6  O   UNL     1       1.576  -7.184  -5.151  0.00  0.00    -0.252 OA
ATOM      7  N   UNL     1       0.778  -6.316  -3.284  0.00  0.00    -0.288 N 
ATOM      8  H   UNL     1       3.604  -7.670  -3.976  0.00  0.00    +0.156 HD
ATOM      9  H   UNL     1      -0.066  -6.095  -3.708  0.00  0.00    +0.151 HD
ENDROOT
BRANCH   1  13
ATOM     10  C   UNL     1       0.515  -1.788  -1.350  0.00  0.00    +0.121 A 
ATOM     11  C   UNL     1      -0.030  -2.670  -0.428  0.00  0.00    +0.046 A 
ATOM     12  C   UNL     1       0.133  -4.031  -0.597  0.00  0.00    +0.009 A 
ATOM     13  C   UNL     1       0.838  -4.515  -1.683  0.00  0.00    -0.022 A 
ATOM     14  C   UNL     1       1.382  -3.638  -2.603  0.00  0.00    +0.009 A 
ATOM     15  C   UNL     1       1.217  -2.276  -2.442  0.00  0.00    +0.046 A 
BRANCH  10  16
ATOM     16  O   UNL     1       0.356  -0.448  -1.186  0.00  0.00    -0.492 OA
BRANCH  16  18
ATOM     17  C   UNL     1      -0.451   1.511  -0.024  0.00  0.00    +0.048 C 
ATOM     18  C   UNL     1      -0.378  -0.017  -0.038  0.00  0.00    +0.225 C 
ENDBRANCH  16  18
ENDBRANCH  10  16
ENDBRANCH   1  13
BRANCH   2  19
ATOM     19  C   UNL     1       2.684  -6.123   0.061  0.00  0.00    +0.339 C 
ATOM     20  O   UNL     1       2.209  -6.813   0.944  0.00  0.00    -0.245 OA
BRANCH  19  21
ATOM     21  O   UNL     1       3.517  -5.109   0.372  0.00  0.00    -0.465 OA
ATOM     22  C   UNL     1       3.798  -4.902   1.758  0.00  0.00    +0.280 C 
ENDBRANCH  19  21
ENDBRANCH   2  19
BRANCH   3  23
ATOM     23  C   UNL     1       4.601  -7.383  -1.587  0.00  0.00    +0.136 C 
BRANCH  23  24
ATOM     24  N   UNL     1       4.736  -8.845  -1.636  0.00  0.00    -0.294 NA
ATOM     25  C   UNL     1       3.789  -9.492  -0.718  0.00  0.00    +0.103 C 
ATOM     26  C   UNL     1       3.833 -11.009  -0.929  0.00  0.00    +0.120 C 
ATOM     27  N   UNL     1       5.228 -11.459  -0.803  0.00  0.00    -0.327 N 
ATOM     28  C   UNL     1       6.257 -10.764  -1.592  0.00  0.00    +0.120 C 
ATOM     29  C   UNL     1       6.118  -9.257  -1.355  0.00  0.00    +0.103 C 
BRANCH  27  30
ATOM     30  C   UNL     1       5.567 -12.518   0.044  0.00  0.00    +0.030 A 
ATOM     31  C   UNL     1       4.571 -13.241   0.687  0.00  0.00    +0.026 A 
ATOM     32  C   UNL     1       4.908 -14.287   1.524  0.00  0.00    +0.040 A 
ATOM     33  C   UNL     1       6.238 -14.614   1.722  0.00  0.00    +0.124 A 
ATOM     34  C   UNL     1       7.234 -13.895   1.083  0.00  0.00    +0.040 A 
ATOM     35  C   UNL     1       6.901 -12.851   0.241  0.00  0.00    +0.026 A 
ATOM     36  F   UNL     1       6.566 -15.637   2.541  0.00  0.00    -0.205 F 
ENDBRANCH  27  30
ENDBRANCH  23  24
ENDBRANCH   3  23
TORSDOF 8
