REMARK  Name = ZINC04246141
REMARK  8 active torsions:
REMARK  status: ('A' for Active; 'I' for Inactive)
REMARK    1  A    between atoms: C_1  and  C_2
REMARK    2  A    between atoms: C_5  and  N_9
REMARK    3  A    between atoms: C_10  and  C_12
REMARK    4  A    between atoms: C_12  and  O_13
REMARK    5  A    between atoms: O_13  and  C_14
REMARK    6  A    between atoms: C_14  and  C_16
REMARK    7  A    between atoms: C_19  and  N_23
REMARK    8  A    between atoms: C_21  and  N_22
REMARK                            x       y       z     vdW  Elec       q    Type
REMARK                         _______ _______ _______ _____ _____    ______ ____
ROOT
ATOM      1  O   UNL     1      -4.792   1.175  -0.289  0.00  0.00    -0.452 OA
ENDROOT
BRANCH   1   2
ATOM      2  C   UNL     1      -6.039   1.679  -0.382  0.00  0.00    +0.341 C 
ATOM      3  O   UNL     1      -6.208   2.883  -0.384  0.00  0.00    -0.245 OA
BRANCH   2   4
ATOM      4  C   UNL     1      -7.195   0.772  -0.482  0.00  0.00    +0.080 A 
ATOM      5  C   UNL     1      -7.016  -0.610  -0.371  0.00  0.00    +0.019 A 
ATOM      6  C   UNL     1      -8.102  -1.452  -0.465  0.00  0.00    +0.033 A 
ATOM      7  C   UNL     1      -9.373  -0.938  -0.671  0.00  0.00    +0.128 A 
ATOM      8  C   UNL     1      -9.565   0.423  -0.783  0.00  0.00    +0.056 A 
ATOM      9  C   UNL     1      -8.484   1.290  -0.685  0.00  0.00    +0.041 A 
BRANCH   9  10
ATOM     10  N   UNL     1      -8.676   2.661  -0.791  0.00  0.00    -0.357 N 
ATOM     11  H   UNL     1      -7.949   3.232  -1.086  0.00  0.00    +0.142 HD
ATOM     12  H   UNL     1      -9.538   3.049  -0.571  0.00  0.00    +0.142 HD
ENDBRANCH   9  10
BRANCH   7  13
ATOM     13  N   UNL     1     -10.530  -1.855  -0.770  0.00  0.00    +0.056 N 
ATOM     14  O   UNL     1     -10.364  -3.058  -0.671  0.00  0.00    -0.126 OA
ATOM     15  O   UNL     1     -11.648  -1.407  -0.951  0.00  0.00    -0.126 OA
ENDBRANCH   7  13
ENDBRANCH   2   4
ENDBRANCH   1   2
BRANCH   1  16
ATOM     16  C   UNL     1      -3.701   2.128  -0.194  0.00  0.00    +0.328 C 
BRANCH  16  18
ATOM     17  N   UNL     1      -1.236   2.069  -0.001  0.00  0.00    -0.282 N 
ATOM     18  C   UNL     1      -2.393   1.385  -0.098  0.00  0.00    +0.255 C 
ATOM     19  O   UNL     1      -2.382   0.172  -0.110  0.00  0.00    -0.272 OA
ATOM     20  H   UNL     1      -1.249   3.035   0.090  0.00  0.00    +0.155 HD
BRANCH  17  25
ATOM     21  C   UNL     1       3.718  -0.694  -0.134  0.00  0.00    +0.044 C 
ATOM     22  C   UNL     1       2.402   0.039  -0.097  0.00  0.00    -0.049 A 
ATOM     23  C   UNL     1       1.283  -0.522  -0.683  0.00  0.00    +0.005 A 
ATOM     24  C   UNL     1       0.075   0.147  -0.651  0.00  0.00    +0.025 A 
ATOM     25  C   UNL     1      -0.015   1.385  -0.030  0.00  0.00    +0.048 A 
ATOM     26  C   UNL     1       1.112   1.948   0.558  0.00  0.00    +0.039 A 
ATOM     27  C   UNL     1       2.318   1.273   0.522  0.00  0.00    +0.020 A 
ATOM     28 BR   UNL     1       0.996   3.635   1.405  0.00  0.00    -0.048 Br
ENDBRANCH  17  25
ENDBRANCH  16  18
ENDBRANCH   1  16
TORSDOF 7
