REMARK  Name = ZINC32579245
REMARK  9 active torsions:
REMARK  status: ('A' for Active; 'I' for Inactive)
REMARK    1  A    between atoms: C_1  and  C_2
REMARK    2  A    between atoms: C_4  and  O_5
REMARK    3  A    between atoms: N_13  and  C_14
REMARK    4  A    between atoms: C_14  and  N_16
REMARK    5  A    between atoms: N_16  and  N_17
REMARK    6  A    between atoms: C_18  and  C_20
REMARK    7  A    between atoms: C_20  and  C_22
REMARK    8  A    between atoms: C_20  and  O_23
REMARK    9  A    between atoms: O_23  and  C_24
REMARK                            x       y       z     vdW  Elec       q    Type
REMARK                         _______ _______ _______ _____ _____    ______ ____
ROOT
ATOM      1  C   UNL     1       3.209   6.076   1.723  0.00  0.00    +0.151 C 
ATOM      2  S   UNL     1       3.105   7.703   2.247  0.00  0.00    -0.017 S 
ENDROOT
BRANCH   1  14
ATOM      3  C   UNL     1       9.274   9.822   2.257  0.00  0.00    +0.045 C 
ATOM      4  C   UNL     1       9.104   8.387   2.686  0.00  0.00    -0.033 A 
ATOM      5  C   UNL     1      10.085   7.744   3.373  0.00  0.00    +0.091 A 
ATOM      6  C   UNL     1       9.902   6.402   3.764  0.00  0.00    +0.285 A 
ATOM      7  O   UNL     1       8.775   5.731   3.476  0.00  0.00    -0.425 OA
ATOM      8  C   UNL     1       7.763   6.311   2.798  0.00  0.00    +0.141 A 
ATOM      9  C   UNL     1       7.878   7.650   2.376  0.00  0.00    +0.021 A 
ATOM     10  C   UNL     1       6.831   8.257   1.673  0.00  0.00    +0.013 A 
ATOM     11  C   UNL     1       5.701   7.545   1.392  0.00  0.00    +0.024 A 
ATOM     12  C   UNL     1       5.578   6.221   1.811  0.00  0.00    +0.036 A 
ATOM     13  C   UNL     1       6.606   5.604   2.509  0.00  0.00    +0.070 A 
ATOM     14  N   UNL     1       4.414   5.509   1.521  0.00  0.00    -0.296 N 
ATOM     15  H   UNL     1       4.481   4.484   1.127  0.00  0.00    +0.154 HD
BRANCH   6  16
ATOM     16  O   UNL     1      10.788   5.837   4.379  0.00  0.00    -0.480 OA
ATOM     17  H   UNL     1      10.660   4.790   4.691  0.00  0.00    +0.295 HD
ENDBRANCH   6  16
ENDBRANCH   1  14
BRANCH   1  18
ATOM     18  N   UNL     1       2.084   5.363   1.513  0.00  0.00    -0.246 N 
ATOM     19  H   UNL     1       1.101   5.827   1.678  0.00  0.00    +0.172 HD
BRANCH  18  20
ATOM     20  N   UNL     1       2.169   4.032   1.084  0.00  0.00    -0.232 N 
ATOM     21  C   UNL     1       1.045   3.319   0.874  0.00  0.00    +0.270 C 
ATOM     22  O   UNL     1      -0.040   3.830   1.056  0.00  0.00    -0.270 OA
ATOM     23  H   UNL     1       3.153   3.569   0.919  0.00  0.00    +0.173 HD
BRANCH  21  24
ATOM     24  C   UNL     1       1.135   1.887   0.413  0.00  0.00    +0.257 C 
ATOM     25  C   UNL     1       1.866   1.830  -0.930  0.00  0.00    +0.062 C 
BRANCH  24  26
ATOM     26  O   UNL     1      -0.180   1.351   0.263  0.00  0.00    -0.480 OA
BRANCH  26  27
ATOM     27  C   UNL     1      -0.318   0.005   0.398  0.00  0.00    +0.122 A 
ATOM     28  C   UNL     1      -1.582  -0.564   0.426  0.00  0.00    +0.048 A 
ATOM     29  C   UNL     1      -1.720  -1.933   0.557  0.00  0.00    +0.042 A 
ATOM     30  C   UNL     1      -0.597  -2.734   0.674  0.00  0.00    +0.124 A 
ATOM     31  C   UNL     1       0.666  -2.166   0.653  0.00  0.00    +0.042 A 
ATOM     32  C   UNL     1       0.807  -0.799   0.515  0.00  0.00    +0.048 A 
ATOM     33  F   UNL     1      -0.733  -4.072   0.807  0.00  0.00    -0.205 F 
ENDBRANCH  26  27
ENDBRANCH  24  26
ENDBRANCH  21  24
ENDBRANCH  18  20
ENDBRANCH   1  18
TORSDOF 7
