REMARK  Name = ZINC41484049
REMARK  5 active torsions:
REMARK  status: ('A' for Active; 'I' for Inactive)
REMARK    1  A    between atoms: C_1  and  C_2
REMARK    2  A    between atoms: C_2  and  O_3
REMARK    3  A    between atoms: O_3  and  C_4
REMARK    4  A    between atoms: C_9  and  C_10
REMARK    5  A    between atoms: C_17  and  C_18
REMARK                            x       y       z     vdW  Elec       q    Type
REMARK                         _______ _______ _______ _____ _____    ______ ____
ROOT
ATOM      1  C   UNL     1       2.052  -1.463   3.435  0.00  0.00    +0.013 A 
ATOM      2  C   UNL     1       1.422  -1.303   4.693  0.00  0.00    -0.019 A 
ATOM      3  C   UNL     1       1.970  -0.490   5.617  0.00  0.00    +0.023 A 
ATOM      4  N   UNL     1       3.121   0.196   5.346  0.00  0.00    -0.325 N 
ATOM      5  H   UNL     1       3.488   0.782   6.026  0.00  0.00    +0.169 HD
ATOM      6  C   UNL     1       3.760   0.086   4.171  0.00  0.00    +0.267 A 
ATOM      7  O   UNL     1       4.787   0.713   3.972  0.00  0.00    -0.266 OA
ATOM      8  C   UNL     1       3.240  -0.767   3.167  0.00  0.00    +0.124 A 
ATOM      9  C   UNL     1       1.367  -0.295   6.987  0.00  0.00    +0.053 C 
ATOM     10  C   UNL     1      -0.093  -0.738   7.004  0.00  0.00    +0.006 C 
ATOM     11  C   UNL     1      -0.174  -2.152   6.415  0.00  0.00    +0.005 C 
ATOM     12  C   UNL     1       0.143  -2.066   4.924  0.00  0.00    +0.037 C 
ENDROOT
BRANCH   1  18
ATOM     13  C   UNL     1       0.802  -1.822   1.306  0.00  0.00    +0.128 A 
ATOM     14  C   UNL     1       0.261  -2.672   0.353  0.00  0.00    +0.046 A 
ATOM     15  C   UNL     1       0.372  -4.040   0.502  0.00  0.00    +0.004 A 
ATOM     16  C   UNL     1       1.024  -4.574   1.602  0.00  0.00    +0.001 A 
ATOM     17  C   UNL     1       1.567  -3.744   2.558  0.00  0.00    +0.012 A 
ATOM     18  C   UNL     1       1.466  -2.358   2.417  0.00  0.00    +0.026 A 
BRANCH  13  19
ATOM     19  O   UNL     1       0.693  -0.477   1.160  0.00  0.00    -0.492 OA
BRANCH  19  21
ATOM     20  C   UNL     1      -0.019   1.526   0.010  0.00  0.00    +0.048 C 
ATOM     21  C   UNL     1       0.002  -0.004   0.002  0.00  0.00    +0.226 C 
ENDBRANCH  19  21
ENDBRANCH  13  19
ENDBRANCH   1  18
BRANCH   8  22
ATOM     22  C   UNL     1       3.908  -0.911   1.908  0.00  0.00    +0.105 C 
ATOM     23  N   UNL     1       4.437  -1.026   0.910  0.00  0.00    -0.191 NA
ENDBRANCH   8  22
TORSDOF 4
