REMARK  Name = ZINC05042939
REMARK  3 active torsions:
REMARK  status: ('A' for Active; 'I' for Inactive)
REMARK    1  A    between atoms: C_3  and  C_6
REMARK    2  A    between atoms: C_16  and  C_18
REMARK    3  A    between atoms: C_23  and  C_25
REMARK                            x       y       z     vdW  Elec       q    Type
REMARK                         _______ _______ _______ _____ _____    ______ ____
ROOT
ATOM      1  C   UNL     1      -1.210   2.187   0.020  0.00  0.00    +0.051 C 
ATOM      2  C   UNL     1      -2.440   1.620   0.023  0.00  0.00    -0.021 C 
ATOM      3  C   UNL     1      -2.564   0.126   0.017  0.00  0.00    +0.037 C 
ATOM      4  C   UNL     1      -3.983  -0.380  -0.139  0.00  0.00    +0.005 C 
ATOM      5  C   UNL     1      -5.027   0.532   0.502  0.00  0.00    +0.012 C 
ATOM      6  C   UNL     1      -4.983   1.883  -0.215  0.00  0.00    +0.069 C 
ATOM      7  C   UNL     1      -3.586   2.443   0.039  0.00  0.00    +0.068 C 
ATOM      8  N   UNL     1      -3.696   3.709   0.257  0.00  0.00    -0.180 NA
ATOM      9  N   UNL     1      -5.021   4.134   0.418  0.00  0.00    -0.175 N 
ATOM     10  C   UNL     1      -5.877   2.927   0.475  0.00  0.00    +0.176 C 
ATOM     11  C   UNL     1      -5.440   5.412   0.506  0.00  0.00    +0.302 C 
ATOM     12  O   UNL     1      -6.625   5.655   0.646  0.00  0.00    -0.265 OA
ENDROOT
BRANCH   1  15
ATOM     13  C   UNL     1       2.094   0.640  -0.015  0.00  0.00    +0.042 A 
ATOM     14  C   UNL     1       1.278   1.785  -0.001  0.00  0.00    +0.049 A 
ATOM     15  C   UNL     1      -0.016   1.344   0.009  0.00  0.00    +0.128 A 
ATOM     16  O   UNL     1       0.002  -0.004   0.002  0.00  0.00    -0.464 OA
ATOM     17  C   UNL     1       1.275  -0.432  -0.012  0.00  0.00    +0.195 A 
ENDBRANCH   1  15
BRANCH  10  18
ATOM     18  C   UNL     1      -6.165   2.535   1.901  0.00  0.00    +0.128 A 
ATOM     19  C   UNL     1      -7.294   1.952   2.344  0.00  0.00    +0.046 A 
ATOM     20  C   UNL     1      -7.138   1.763   3.736  0.00  0.00    +0.041 A 
ATOM     21  C   UNL     1      -5.923   2.242   4.061  0.00  0.00    +0.195 A 
ATOM     22  O   UNL     1      -5.337   2.703   2.944  0.00  0.00    -0.466 OA
ENDBRANCH  10  18
BRANCH  11  23
ATOM     23  C   UNL     1      -4.470   6.508   0.434  0.00  0.00    +0.191 A 
ATOM     24  C   UNL     1      -4.759   7.842   0.503  0.00  0.00    +0.054 A 
ATOM     25  C   UNL     1      -3.538   8.525   0.395  0.00  0.00    +0.042 A 
ATOM     26  C   UNL     1      -2.571   7.592   0.257  0.00  0.00    +0.196 A 
ATOM     27  O   UNL     1      -3.136   6.378   0.281  0.00  0.00    -0.458 OA
ENDBRANCH  11  23
TORSDOF 3
