REMARK  Name = ZINC02646122
REMARK  7 active torsions:
REMARK  status: ('A' for Active; 'I' for Inactive)
REMARK    1  A    between atoms: C_1  and  C_2
REMARK    2  A    between atoms: C_2  and  N_14
REMARK    3  A    between atoms: C_3  and  C_4
REMARK    4  A    between atoms: C_4  and  C_5
REMARK    5  A    between atoms: N_14  and  N_15
REMARK    6  A    between atoms: C_16  and  C_18
REMARK    7  A    between atoms: N_27  and  C_30
REMARK                            x       y       z     vdW  Elec       q    Type
REMARK                         _______ _______ _______ _____ _____    ______ ____
ROOT
ATOM      1  N   UNL     1      -0.006   0.977  -0.103  0.00  0.00    -0.232 N 
ATOM      2  C   UNL     1      -1.178   1.640  -0.148  0.00  0.00    +0.267 C 
ATOM      3  O   UNL     1      -1.188   2.857  -0.173  0.00  0.00    -0.268 OA
ATOM      4  H   UNL     1       0.002   0.007  -0.083  0.00  0.00    +0.173 HD
ENDROOT
BRANCH   2   5
ATOM      5  C   UNL     1      -2.438   0.897  -0.167  0.00  0.00    +0.078 A 
ATOM      6  C   UNL     1      -3.726   1.384  -0.207  0.00  0.00    +0.031 A 
ATOM      7  C   UNL     1      -4.798   0.488  -0.222  0.00  0.00    +0.016 A 
ATOM      8  C   UNL     1      -6.288   0.513  -0.262  0.00  0.00    +0.008 A 
ATOM      9  C   UNL     1      -7.213   1.551  -0.308  0.00  0.00    +0.010 A 
ATOM     10  C   UNL     1      -8.561   1.260  -0.337  0.00  0.00    +0.001 A 
ATOM     11  C   UNL     1      -8.991  -0.058  -0.321  0.00  0.00    +0.002 A 
ATOM     12  C   UNL     1      -8.082  -1.094  -0.276  0.00  0.00    +0.026 A 
ATOM     13  C   UNL     1      -6.719  -0.819  -0.246  0.00  0.00    +0.050 A 
ATOM     14  N   UNL     1      -5.599  -1.631  -0.199  0.00  0.00    -0.337 N 
ATOM     15  C   UNL     1      -4.472  -0.870  -0.185  0.00  0.00    +0.089 A 
ATOM     16  S   UNL     1      -2.696  -0.869  -0.138  0.00  0.00    -0.066 S 
ATOM     17  C   UNL     1      -5.624  -3.095  -0.170  0.00  0.00    +0.150 C 
ENDBRANCH   2   5
BRANCH   1  18
ATOM     18  N   UNL     1       1.201   1.688  -0.090  0.00  0.00    -0.269 N 
ATOM     19  H   UNL     1       1.197   2.653  -0.186  0.00  0.00    +0.170 HD
BRANCH  18  21
ATOM     20  C   UNL     1       2.424  -0.496   0.085  0.00  0.00    +0.061 C 
ATOM     21  C   UNL     1       2.405   1.010   0.060  0.00  0.00    +0.015 C 
ATOM     22  C   UNL     1       3.532   1.687   0.182  0.00  0.00    -0.003 C 
BRANCH  22  23
ATOM     23  C   UNL     1       3.500   3.188   0.303  0.00  0.00    +0.064 C 
BRANCH  23  24
ATOM     24  C   UNL     1       4.159   3.602   1.594  0.00  0.00    -0.040 A 
ATOM     25  C   UNL     1       5.518   3.859   1.623  0.00  0.00    +0.008 A 
ATOM     26  C   UNL     1       6.127   4.239   2.804  0.00  0.00    +0.050 A 
ATOM     27  C   UNL     1       5.377   4.362   3.963  0.00  0.00    +0.166 A 
ATOM     28  C   UNL     1       4.009   4.104   3.933  0.00  0.00    +0.166 A 
ATOM     29  C   UNL     1       3.404   3.729   2.745  0.00  0.00    +0.053 A 
ATOM     30  O   UNL     1       3.502   4.294   5.186  0.00  0.00    -0.453 OA
ATOM     31  C   UNL     1       4.493   5.065   5.889  0.00  0.00    +0.466 C 
ATOM     32  O   UNL     1       5.727   4.715   5.234  0.00  0.00    -0.453 OA
ENDBRANCH  23  24
ENDBRANCH  22  23
ENDBRANCH  18  21
ENDBRANCH   1  18
TORSDOF 5
