REMARK  Name = ZINC51168481
REMARK  5 active torsions:
REMARK  status: ('A' for Active; 'I' for Inactive)
REMARK    1  A    between atoms: C_1  and  C_2
REMARK    2  A    between atoms: C_4  and  N_16
REMARK    3  A    between atoms: C_6  and  C_8
REMARK    4  A    between atoms: C_11  and  O_15
REMARK    5  A    between atoms: N_16  and  N_17
REMARK                            x       y       z     vdW  Elec       q    Type
REMARK                         _______ _______ _______ _____ _____    ______ ____
ROOT
ATOM      1  C   UNL     1      -0.018   1.503   0.010  0.00  0.00    +0.066 C 
ATOM      2  C   UNL     1       0.002  -0.004   0.002  0.00  0.00    +0.044 A 
ATOM      3  C   UNL     1       0.006  -0.696  -1.194  0.00  0.00    +0.067 A 
ATOM      4  C   UNL     1       0.025  -2.092  -1.157  0.00  0.00    +0.136 A 
ATOM      5  N   UNL     1       0.039  -2.706   0.021  0.00  0.00    -0.212 NA
ATOM      6  C   UNL     1       0.035  -2.005   1.147  0.00  0.00    +0.162 A 
ATOM      7  N   UNL     1       0.022  -0.679   1.141  0.00  0.00    -0.232 NA
ENDROOT
BRANCH   6   8
ATOM      8  C   UNL     1       0.050  -2.722   2.444  0.00  0.00    +0.021 A 
ATOM      9  C   UNL     1       0.040  -2.004   3.639  0.00  0.00    +0.015 A 
ATOM     10  C   UNL     1       0.055  -2.673   4.845  0.00  0.00    +0.047 A 
ATOM     11  C   UNL     1       0.080  -4.061   4.870  0.00  0.00    +0.135 A 
ATOM     12  C   UNL     1       0.090  -4.780   3.681  0.00  0.00    +0.083 A 
ATOM     13  C   UNL     1       0.069  -4.116   2.472  0.00  0.00    +0.035 A 
ATOM     14 CL   UNL     1       0.122  -6.515   3.717  0.00  0.00    -0.080 Cl
BRANCH  11  15
ATOM     15  O   UNL     1       0.094  -4.717   6.059  0.00  0.00    -0.505 OA
ATOM     16  H   UNL     1      -0.785  -4.923   6.406  0.00  0.00    +0.292 HD
ENDBRANCH  11  15
ENDBRANCH   6   8
BRANCH   4  17
ATOM     17  N   UNL     1       0.029  -2.827  -2.332  0.00  0.00    -0.267 N 
ATOM     18  H   UNL     1       0.018  -2.371  -3.189  0.00  0.00    +0.167 HD
BRANCH  17  19
ATOM     19  N   UNL     1       0.048  -4.192  -2.284  0.00  0.00    -0.255 NA
ATOM     20  H   UNL     1       0.048  -4.586  -3.213  0.00  0.00    +0.140 HD
ATOM     21  H   UNL     1       0.836  -4.524  -1.750  0.00  0.00    +0.140 HD
ENDBRANCH  17  19
ENDBRANCH   4  17
TORSDOF 4
