REMARK  Name = ZINC59350272
REMARK  12 active torsions:
REMARK  status: ('A' for Active; 'I' for Inactive)
REMARK    1  A    between atoms: C_1  and  C_2
REMARK    2  A    between atoms: C_2  and  C_3
REMARK    3  A    between atoms: C_3  and  C_4
REMARK    4  A    between atoms: C_4  and  C_5
REMARK    5  A    between atoms: C_5  and  N_6
REMARK    6  A    between atoms: N_6  and  C_7
REMARK    7  A    between atoms: N_6  and  C_23
REMARK    8  A    between atoms: C_7  and  C_8
REMARK    9  A    between atoms: N_10  and  C_11
REMARK   10  A    between atoms: C_12  and  C_20
REMARK   11  A    between atoms: C_23  and  C_24
REMARK   12  A    between atoms: C_23  and  C_25
REMARK                            x       y       z     vdW  Elec       q    Type
REMARK                         _______ _______ _______ _____ _____    ______ ____
ROOT
ATOM      1  C   UNL     1      -3.767  -6.377  -0.254  0.00  0.00    +0.201 C 
ATOM      2  O   UNL     1      -2.643  -6.795  -0.071  0.00  0.00    -0.278 OA
ATOM      3  N   UNL     1      -4.773  -7.236  -0.507  0.00  0.00    -0.281 N 
ATOM      4  H   UNL     1      -5.672  -6.902  -0.654  0.00  0.00    +0.155 HD
ENDROOT
BRANCH   3   5
ATOM      5  C   UNL     1      -4.524  -8.599  -0.559  0.00  0.00    +0.084 A 
ATOM      6  C   UNL     1      -5.426  -9.622  -0.811  0.00  0.00    +0.068 A 
ATOM      7  C   UNL     1      -4.909 -10.979  -0.809  0.00  0.00    -0.023 A 
ATOM      8  C   UNL     1      -3.585 -11.065  -0.557  0.00  0.00    -0.004 A 
ATOM      9  S   UNL     1      -3.059  -9.390  -0.339  0.00  0.00    -0.077 S 
ATOM     10  C   UNL     1      -2.762 -12.314  -0.486  0.00  0.00    +0.043 C 
ATOM     11  C   UNL     1      -3.715 -13.513  -0.370  0.00  0.00    +0.005 C 
ATOM     12  C   UNL     1      -4.813 -13.378  -1.429  0.00  0.00    +0.005 C 
ATOM     13  C   UNL     1      -5.747 -12.222  -1.066  0.00  0.00    +0.037 C 
BRANCH   6  14
ATOM     14  C   UNL     1      -6.843  -9.344  -1.067  0.00  0.00    +0.244 C 
ATOM     15  O   UNL     1      -7.230  -9.154  -2.205  0.00  0.00    -0.270 OA
ATOM     16  N   UNL     1      -7.717  -9.301  -0.041  0.00  0.00    -0.325 N 
ATOM     17  H   UNL     1      -7.408  -9.453   0.866  0.00  0.00    +0.145 HD
ATOM     18  H   UNL     1      -8.654  -9.118  -0.211  0.00  0.00    +0.145 HD
ENDBRANCH   6  14
ENDBRANCH   3   5
BRANCH   1  19
ATOM     19  C   UNL     1      -4.038  -4.895  -0.198  0.00  0.00    +0.019 C 
BRANCH  19  20
ATOM     20  N   UNL     1      -2.827  -4.192   0.247  0.00  0.00    +0.387 N 
ATOM     21  H   UNL     1      -2.011  -4.675  -0.100  0.00  0.00    -0.081 HD
BRANCH  20  22
ATOM     22  C   UNL     1      -2.790  -4.161   1.715  0.00  0.00    -0.074 C 
ATOM     23  C   UNL     1      -3.984  -3.360   2.238  0.00  0.00    -0.014 C 
ATOM     24  C   UNL     1      -2.856  -5.590   2.258  0.00  0.00    -0.014 C 
ENDBRANCH  20  22
BRANCH  20  25
ATOM     25  C   UNL     1      -2.840  -2.818  -0.273  0.00  0.00    -0.078 C 
BRANCH  25  26
ATOM     26  C   UNL     1      -1.534  -2.117   0.108  0.00  0.00    -0.019 C 
BRANCH  26  27
ATOM     27  C   UNL     1      -1.490  -0.733  -0.543  0.00  0.00    -0.002 C 
BRANCH  27  29
ATOM     28  C   UNL     1      -0.141   1.352  -0.813  0.00  0.00    +0.004 C 
ATOM     29  C   UNL     1      -0.185  -0.032  -0.162  0.00  0.00    -0.003 C 
ENDBRANCH  27  29
ENDBRANCH  26  27
ENDBRANCH  25  26
ENDBRANCH  20  25
ENDBRANCH  19  20
ENDBRANCH   1  19
TORSDOF 9
