REMARK  Name = ZINC49223176
REMARK  5 active torsions:
REMARK  status: ('A' for Active; 'I' for Inactive)
REMARK    1  A    between atoms: C_1  and  C_2
REMARK    2  A    between atoms: C_4  and  C_21
REMARK    3  A    between atoms: C_7  and  C_12
REMARK    4  A    between atoms: N_14  and  C_15
REMARK    5  A    between atoms: C_15  and  C_20
REMARK                            x       y       z     vdW  Elec       q    Type
REMARK                         _______ _______ _______ _____ _____    ______ ____
ROOT
ATOM      1  C   UNL     1      -0.018   1.503   0.010  0.00  0.00    +0.044 C 
ATOM      2  C   UNL     1       0.002  -0.004   0.002  0.00  0.00    -0.048 A 
ATOM      3  C   UNL     1       0.006  -0.685  -1.209  0.00  0.00    +0.007 A 
ATOM      4  C   UNL     1       0.024  -2.049  -1.239  0.00  0.00    -0.041 A 
ATOM      5  C   UNL     1       0.040  -2.772  -0.039  0.00  0.00    +0.003 A 
ATOM      6  C   UNL     1       0.060  -4.156   0.263  0.00  0.00    +0.041 A 
ATOM      7  C   UNL     1       0.068  -4.284   1.615  0.00  0.00    +0.103 A 
ATOM      8  N   UNL     1       0.053  -3.028   2.189  0.00  0.00    -0.351 N 
ATOM      9  H   UNL     1       0.056  -2.842   3.142  0.00  0.00    +0.166 HD
ATOM     10  C   UNL     1       0.036  -2.084   1.190  0.00  0.00    +0.048 A 
ATOM     11  C   UNL     1       0.023  -0.692   1.194  0.00  0.00    +0.029 A 
ATOM     12  C   UNL     1       0.027  -2.776  -2.559  0.00  0.00    +0.044 C 
ENDROOT
BRANCH   7  13
ATOM     13  C   UNL     1       0.088  -5.558   2.350  0.00  0.00    +0.261 C 
ATOM     14  O   UNL     1       0.099  -6.611   1.742  0.00  0.00    -0.269 OA
ATOM     15  N   UNL     1       0.095  -5.558   3.698  0.00  0.00    -0.305 N 
ATOM     16  H   UNL     1       0.086  -4.718   4.183  0.00  0.00    +0.150 HD
BRANCH  15  17
ATOM     17  C   UNL     1       0.115  -6.826   4.430  0.00  0.00    +0.032 C 
ATOM     18  C   UNL     1      -1.162  -7.630   4.128  0.00  0.00    +0.025 C 
ATOM     19  C   UNL     1      -1.890  -7.823   5.475  0.00  0.00    +0.002 C 
ATOM     20  C   UNL     1      -1.373  -6.660   6.357  0.00  0.00    +0.002 C 
ATOM     21  C   UNL     1       0.119  -6.559   5.950  0.00  0.00    +0.025 C 
ATOM     22  C   UNL     1       1.351  -7.638   4.038  0.00  0.00    +0.031 C 
ENDBRANCH  15  17
ENDBRANCH   7  13
TORSDOF 2
