REMARK  Name = ZINC02625643
REMARK  10 active torsions:
REMARK  status: ('A' for Active; 'I' for Inactive)
REMARK    1  A    between atoms: C_1  and  C_2
REMARK    2  A    between atoms: C_5  and  C_8
REMARK    3  A    between atoms: C_9  and  C_19
REMARK    4  A    between atoms: C_11  and  C_13
REMARK    5  A    between atoms: C_19  and  C_20
REMARK    6  A    between atoms: N_22  and  N_23
REMARK    7  A    between atoms: C_24  and  C_26
REMARK    8  A    between atoms: C_26  and  N_27
REMARK    9  A    between atoms: N_27  and  C_28
REMARK   10  A    between atoms: C_31  and  C_34
REMARK                            x       y       z     vdW  Elec       q    Type
REMARK                         _______ _______ _______ _____ _____    ______ ____
ROOT
ATOM      1  C   UNL     1      -3.733   2.737   1.526  0.00  0.00    +0.142 C 
ENDROOT
BRANCH   1   3
ATOM      2  C   UNL     1      -2.505   1.002   0.019  0.00  0.00    +0.082 A 
ATOM      3  C   UNL     1      -3.591   1.481   0.705  0.00  0.00    +0.026 A 
ATOM      4  S   UNL     1      -4.792   0.202   0.359  0.00  0.00    -0.071 S 
ATOM      5  C   UNL     1      -3.736  -0.826  -0.653  0.00  0.00    +0.111 A 
ATOM      6  N   UNL     1      -2.608  -0.133  -0.645  0.00  0.00    -0.239 NA
BRANCH   2  11
ATOM      7  C   UNL     1       2.452   3.933  -0.000  0.00  0.00    +0.044 C 
ATOM      8  C   UNL     1       1.155   3.167   0.008  0.00  0.00    -0.050 A 
ATOM      9  C   UNL     1       1.172   1.783   0.000  0.00  0.00    +0.004 A 
ATOM     10  C   UNL     1      -0.013   1.076   0.008  0.00  0.00    +0.010 A 
ATOM     11  C   UNL     1      -1.228   1.758   0.017  0.00  0.00    +0.001 A 
ATOM     12  C   UNL     1      -1.240   3.151   0.030  0.00  0.00    +0.010 A 
ATOM     13  C   UNL     1      -0.049   3.848   0.023  0.00  0.00    +0.004 A 
ENDBRANCH   2  11
BRANCH   5  14
ATOM     14  C   UNL     1      -4.043  -2.106  -1.326  0.00  0.00    +0.025 A 
ATOM     15  C   UNL     1      -3.066  -2.765  -2.082  0.00  0.00    +0.013 A 
ATOM     16  C   UNL     1      -3.404  -3.960  -2.692  0.00  0.00    +0.020 A 
ATOM     17  C   UNL     1      -4.684  -4.462  -2.535  0.00  0.00    +0.111 A 
ATOM     18  N   UNL     1      -5.584  -3.819  -1.816  0.00  0.00    -0.263 NA
ATOM     19  C   UNL     1      -5.309  -2.682  -1.212  0.00  0.00    +0.121 A 
ENDBRANCH   5  14
ENDBRANCH   1   3
BRANCH   1  20
ATOM     20  C   UNL     1      -4.200   3.865   0.641  0.00  0.00    +0.234 C 
ATOM     21  O   UNL     1      -4.398   3.667  -0.539  0.00  0.00    -0.274 OA
ATOM     22  N   UNL     1      -4.398   5.092   1.162  0.00  0.00    -0.234 N 
ATOM     23  H   UNL     1      -4.240   5.250   2.106  0.00  0.00    +0.173 HD
BRANCH  22  24
ATOM     24  N   UNL     1      -4.832   6.140   0.340  0.00  0.00    -0.233 N 
ATOM     25  C   UNL     1      -5.030   7.367   0.861  0.00  0.00    +0.246 C 
ATOM     26  O   UNL     1      -4.832   7.564   2.041  0.00  0.00    -0.273 OA
ATOM     27  H   UNL     1      -4.991   5.982  -0.604  0.00  0.00    +0.173 HD
BRANCH  25  28
ATOM     28  C   UNL     1      -5.497   8.495  -0.024  0.00  0.00    +0.199 C 
BRANCH  28  29
ATOM     29  N   UNL     1      -5.635   9.716   0.774  0.00  0.00    -0.335 N 
ATOM     30  H   UNL     1      -5.433   9.701   1.722  0.00  0.00    +0.147 HD
BRANCH  29  31
ATOM     31  C   UNL     1      -6.059  10.901   0.168  0.00  0.00    +0.028 A 
ATOM     32  C   UNL     1      -6.343  10.925  -1.191  0.00  0.00    +0.023 A 
ATOM     33  C   UNL     1      -6.766  12.098  -1.786  0.00  0.00    +0.005 A 
ATOM     34  C   UNL     1      -6.896  13.249  -1.031  0.00  0.00    -0.050 A 
ATOM     35  C   UNL     1      -6.609  13.230   0.321  0.00  0.00    +0.005 A 
ATOM     36  C   UNL     1      -6.190  12.060   0.923  0.00  0.00    +0.023 A 
ATOM     37  C   UNL     1      -7.353  14.528  -1.685  0.00  0.00    +0.044 C 
ENDBRANCH  29  31
ENDBRANCH  28  29
ENDBRANCH  25  28
ENDBRANCH  22  24
ENDBRANCH   1  20
TORSDOF 8
