REMARK  Name = ZINC12209267
REMARK  10 active torsions:
REMARK  status: ('A' for Active; 'I' for Inactive)
REMARK    1  A    between atoms: C_1  and  C_2
REMARK    2  A    between atoms: C_2  and  C_4
REMARK    3  A    between atoms: C_2  and  N_9
REMARK    4  A    between atoms: C_10  and  C_12
REMARK    5  A    between atoms: C_13  and  O_35
REMARK    6  A    between atoms: C_23  and  C_24
REMARK    7  A    between atoms: C_23  and  N_65
REMARK    8  A    between atoms: C_28  and  O_30
REMARK    9  A    between atoms: O_30  and  C_31
REMARK   10  A    between atoms: O_35  and  C_36
REMARK                            x       y       z     vdW  Elec       q    Type
REMARK                         _______ _______ _______ _____ _____    ______ ____
ROOT
ATOM      1  C   UNL     1      -8.321  -4.380  -1.074  0.00  0.00    +0.098 A 
ATOM      2  C   UNL     1      -9.155  -5.298  -0.298  0.00  0.00    +0.139 A 
ATOM      3  C   UNL     1      -8.669  -5.738   0.917  0.00  0.00    +0.116 A 
ATOM      4  C   UNL     1      -7.411  -5.306   1.339  0.00  0.00    +0.255 A 
ATOM      5  O   UNL     1      -6.987  -5.688   2.417  0.00  0.00    -0.268 OA
ATOM      6  N   UNL     1      -6.645  -4.477   0.591  0.00  0.00    -0.313 N 
ATOM      7  C   UNL     1      -7.085  -3.992  -0.577  0.00  0.00    +0.036 A 
ATOM      8  C   UNL     1      -6.305  -2.999  -1.402  0.00  0.00    +0.036 C 
ATOM      9  C   UNL     1      -4.800  -3.167  -1.201  0.00  0.00    -0.072 C 
ATOM     10  C   UNL     1      -5.082  -2.643   1.140  0.00  0.00    -0.056 C 
ATOM     11  C   UNL     1      -5.319  -4.154   1.128  0.00  0.00    +0.106 C 
ATOM     12  N   UNL     1      -4.356  -2.293  -0.095  0.00  0.00    +0.384 N 
ATOM     13  H   UNL     1      -3.350  -2.432   0.057  0.00  0.00    -0.081 HD
ENDROOT
BRANCH   1  15
ATOM     14  N   UNL     1      -9.318  -2.632  -2.461  0.00  0.00    -0.302 N 
ATOM     15  C   UNL     1      -8.791  -3.869  -2.373  0.00  0.00    +0.250 C 
ATOM     16  O   UNL     1      -8.704  -4.565  -3.368  0.00  0.00    -0.270 OA
ATOM     17  H   UNL     1      -9.320  -2.050  -1.685  0.00  0.00    +0.150 HD
BRANCH  14  19
ATOM     18  C   UNL     1      -8.773  -1.595  -4.608  0.00  0.00    +0.036 C 
ATOM     19  C   UNL     1      -9.887  -2.166  -3.728  0.00  0.00    +0.136 C 
BRANCH  19  20
ATOM     20  C   UNL     1     -10.911  -1.094  -3.455  0.00  0.00    +0.125 A 
ATOM     21  C   UNL     1     -12.089  -0.952  -4.088  0.00  0.00    +0.046 A 
ATOM     22  C   UNL     1     -12.726   0.174  -3.519  0.00  0.00    +0.041 A 
ATOM     23  C   UNL     1     -11.899   0.654  -2.573  0.00  0.00    +0.195 A 
ATOM     24  O   UNL     1     -10.803  -0.122  -2.534  0.00  0.00    -0.466 OA
ENDBRANCH  19  20
ENDBRANCH  14  19
ENDBRANCH   1  15
BRANCH   2  25
ATOM     25  O   UNL     1     -10.363  -5.702  -0.755  0.00  0.00    -0.494 OA
ATOM     26  C   UNL     1     -11.104  -6.600   0.074  0.00  0.00    +0.277 C 
ENDBRANCH   2  25
BRANCH  12  27
ATOM     27  C   UNL     1      -4.598  -0.876  -0.441  0.00  0.00    -0.043 C 
BRANCH  27  28
ATOM     28  C   UNL     1      -3.949  -0.002   0.601  0.00  0.00    -0.057 A 
ATOM     29  C   UNL     1      -4.668   0.396   1.713  0.00  0.00    +0.051 A 
ATOM     30  C   UNL     1      -4.075   1.200   2.674  0.00  0.00    +0.170 A 
ATOM     31  C   UNL     1      -2.752   1.602   2.520  0.00  0.00    +0.208 A 
ATOM     32  C   UNL     1      -2.035   1.205   1.399  0.00  0.00    +0.166 A 
ATOM     33  C   UNL     1      -2.636   0.400   0.442  0.00  0.00    +0.051 A 
ATOM     34  O   UNL     1      -2.406   2.383   3.587  0.00  0.00    -0.449 OA
ATOM     35  C   UNL     1      -3.651   2.782   4.192  0.00  0.00    +0.467 C 
ATOM     36  O   UNL     1      -4.557   1.720   3.840  0.00  0.00    -0.452 OA
BRANCH  32  37
ATOM     37  O   UNL     1      -0.743   1.600   1.242  0.00  0.00    -0.491 OA
ATOM     38  C   UNL     1      -0.065   1.149   0.068  0.00  0.00    +0.277 C 
ENDBRANCH  32  37
ENDBRANCH  27  28
ENDBRANCH  12  27
TORSDOF 7
