REMARK  Name = ZINC32871460
REMARK  10 active torsions:
REMARK  status: ('A' for Active; 'I' for Inactive)
REMARK    1  A    between atoms: C_1  and  C_2
REMARK    2  A    between atoms: C_3  and  C_12
REMARK    3  A    between atoms: C_12  and  C_13
REMARK    4  A    between atoms: C_13  and  C_14
REMARK    5  A    between atoms: C_14  and  O_16
REMARK    6  A    between atoms: O_16  and  C_17
REMARK    7  A    between atoms: C_17  and  C_18
REMARK    8  A    between atoms: C_18  and  N_20
REMARK    9  A    between atoms: N_22  and  C_26
REMARK   10  A    between atoms: C_26  and  C_27
REMARK                            x       y       z     vdW  Elec       q    Type
REMARK                         _______ _______ _______ _____ _____    ______ ____
ROOT
ATOM      1  C   UNL     1      -1.440   2.885  -0.584  0.00  0.00    +0.329 C 
ENDROOT
BRANCH   1   2
ATOM      2  C   UNL     1      -0.289   1.926  -0.428  0.00  0.00    +0.276 C 
ATOM      3  O   UNL     1      -0.493   0.727  -0.420  0.00  0.00    -0.270 OA
BRANCH   2   4
ATOM      4  N   UNL     1       0.949   2.389  -0.305  0.00  0.00    -0.153 NA
ATOM      5  C   UNL     1       1.969   1.539  -0.172  0.00  0.00    +0.166 A 
ATOM      6  N   UNL     1       3.297   1.811  -0.034  0.00  0.00    -0.324 N 
ATOM      7  C   UNL     1       4.171   0.778   0.087  0.00  0.00    +0.095 A 
ATOM      8  C   UNL     1       3.696  -0.471   0.067  0.00  0.00    +0.066 A 
ATOM      9  S   UNL     1       1.943  -0.195  -0.124  0.00  0.00    -0.061 S 
BRANCH   6  10
ATOM     10  C   UNL     1       3.775   3.196  -0.017  0.00  0.00    +0.160 C 
BRANCH  10  11
ATOM     11  C   UNL     1       3.959   3.682  -1.431  0.00  0.00    -0.009 A 
ATOM     12  C   UNL     1       2.940   4.368  -2.065  0.00  0.00    +0.007 A 
ATOM     13  C   UNL     1       3.109   4.813  -3.363  0.00  0.00    +0.000 A 
ATOM     14  C   UNL     1       4.297   4.573  -4.027  0.00  0.00    +0.001 A 
ATOM     15  C   UNL     1       5.317   3.888  -3.395  0.00  0.00    +0.020 A 
ATOM     16  C   UNL     1       5.151   3.446  -2.094  0.00  0.00    +0.046 A 
ATOM     17 CL   UNL     1       6.434   2.592  -1.296  0.00  0.00    -0.083 Cl
ENDBRANCH  10  11
ENDBRANCH   6  10
ENDBRANCH   2   4
ENDBRANCH   1   2
BRANCH   1  18
ATOM     18  O   UNL     1      -2.679   2.139  -0.706  0.00  0.00    -0.455 OA
BRANCH  18  19
ATOM     19  C   UNL     1      -3.808   2.850  -0.853  0.00  0.00    +0.308 C 
ATOM     20  O   UNL     1      -3.762   4.058  -0.878  0.00  0.00    -0.251 OA
BRANCH  19  21
ATOM     21  C   UNL     1      -5.133   2.144  -0.985  0.00  0.00    +0.125 C 
BRANCH  21  22
ATOM     22  C   UNL     1      -6.249   3.179  -1.139  0.00  0.00    +0.053 C 
BRANCH  22  25
ATOM     23  C   UNL     1      -7.898   2.741   1.170  0.00  0.00    +0.064 C 
ATOM     24  C   UNL     1      -8.351   2.266  -0.186  0.00  0.00    +0.026 A 
ATOM     25  C   UNL     1      -7.574   2.472  -1.271  0.00  0.00    +0.036 A 
ATOM     26  C   UNL     1      -8.017   2.011  -2.534  0.00  0.00    +0.257 A 
ATOM     27  O   UNL     1      -7.332   2.181  -3.526  0.00  0.00    -0.267 OA
ATOM     28  N   UNL     1      -9.206   1.381  -2.628  0.00  0.00    -0.275 N 
ATOM     29  H   UNL     1      -9.561   1.019  -3.604  0.00  0.00    +0.173 HD
ATOM     30  C   UNL     1      -9.963   1.194  -1.531  0.00  0.00    +0.327 A 
ATOM     31  O   UNL     1     -11.033   0.624  -1.631  0.00  0.00    -0.247 OA
ATOM     32  N   UNL     1      -9.553   1.627  -0.325  0.00  0.00    -0.311 N 
ATOM     33  H   UNL     1     -10.193   1.463   0.554  0.00  0.00    +0.170 HD
ENDBRANCH  22  25
ENDBRANCH  21  22
ENDBRANCH  19  21
ENDBRANCH  18  19
ENDBRANCH   1  18
TORSDOF 9
