REMARK  Name = ZINC63491191
REMARK  7 active torsions:
REMARK  status: ('A' for Active; 'I' for Inactive)
REMARK    1  A    between atoms: C_1  and  C_2
REMARK    2  A    between atoms: N_4  and  C_23
REMARK    3  A    between atoms: C_8  and  C_9
REMARK    4  A    between atoms: C_8  and  N_10
REMARK    5  A    between atoms: N_10  and  C_11
REMARK    6  A    between atoms: C_11  and  C_12
REMARK    7  A    between atoms: C_12  and  C_13
REMARK                            x       y       z     vdW  Elec       q    Type
REMARK                         _______ _______ _______ _____ _____    ______ ____
ROOT
ATOM      1  C   UNL     1       0.032   1.505   0.007  0.00  0.00    +0.068 C 
ATOM      2  C   UNL     1       0.037  -0.002  -0.001  0.00  0.00    +0.070 C 
ATOM      3  N   UNL     1      -0.044  -0.763  -1.048  0.00  0.00    -0.179 NA
ATOM      4  N   UNL     1      -0.011  -2.113  -0.699  0.00  0.00    -0.158 N 
ATOM      5  C   UNL     1       0.097  -2.242   0.639  0.00  0.00    +0.271 C 
ATOM      6  O   UNL     1       0.152  -3.282   1.274  0.00  0.00    -0.268 OA
ATOM      7  C   UNL     1       0.140  -0.877   1.177  0.00  0.00    +0.077 C 
ATOM      8  C   UNL     1       0.251  -0.495   2.503  0.00  0.00    +0.015 C 
ATOM      9  C   UNL     1       0.471  -1.537   3.570  0.00  0.00    +0.061 C 
ENDROOT
BRANCH   4  10
ATOM     10  C   UNL     1      -0.082  -3.227  -1.647  0.00  0.00    +0.249 C 
ATOM     11  N   UNL     1      -1.297  -3.144  -2.470  0.00  0.00    -0.315 N 
ATOM     12  C   UNL     1      -1.133  -2.999  -3.846  0.00  0.00    +0.043 A 
ATOM     13  C   UNL     1      -2.173  -2.903  -4.788  0.00  0.00    +0.024 A 
ATOM     14  C   UNL     1      -1.907  -2.762  -6.130  0.00  0.00    +0.002 A 
ATOM     15  C   UNL     1      -0.608  -2.709  -6.600  0.00  0.00    +0.001 A 
ATOM     16  C   UNL     1       0.436  -2.801  -5.695  0.00  0.00    +0.016 A 
ATOM     17  C   UNL     1       0.169  -2.943  -4.352  0.00  0.00    +0.032 A 
ATOM     18  S   UNL     1       1.227  -3.090  -2.928  0.00  0.00    -0.080 S 
ATOM     19  H   UNL     1      -2.179  -3.188  -2.070  0.00  0.00    +0.149 HD
ENDBRANCH   4  10
BRANCH   8  20
ATOM     20  N   UNL     1       0.163   0.807   2.840  0.00  0.00    -0.346 N 
ATOM     21  H   UNL     1      -0.059   1.469   2.166  0.00  0.00    +0.146 HD
BRANCH  20  22
ATOM     22  C   UNL     1       0.401   1.224   4.224  0.00  0.00    +0.105 C 
BRANCH  22  23
ATOM     23  C   UNL     1       0.240   2.741   4.336  0.00  0.00    +0.052 C 
BRANCH  23  24
ATOM     24  C   UNL     1       0.485   3.169   5.760  0.00  0.00    -0.040 C 
ATOM     25  C   UNL     1       1.646   3.623   6.284  0.00  0.00    +0.000 A 
ATOM     26  C   UNL     1       2.978   3.844   5.707  0.00  0.00    +0.030 A 
ATOM     27  C   UNL     1       3.967   4.317   6.501  0.00  0.00    +0.042 A 
ATOM     28  C   UNL     1       3.751   4.600   7.858  0.00  0.00    +0.022 A 
ATOM     29  C   UNL     1       2.555   4.423   8.458  0.00  0.00    +0.027 A 
ATOM     30  C   UNL     1       1.445   3.930   7.718  0.00  0.00    +0.043 A 
ATOM     31  N   UNL     1       0.207   3.676   8.066  0.00  0.00    -0.380 N 
ATOM     32  C   UNL     1      -0.519   3.185   6.890  0.00  0.00    +0.144 C 
ATOM     33 CL   UNL     1       5.543   4.579   5.823  0.00  0.00    -0.084 Cl
ATOM     34  H   UNL     1      -0.168   3.797   8.953  0.00  0.00    +0.160 HD
ENDBRANCH  23  24
ENDBRANCH  22  23
ENDBRANCH  20  22
ENDBRANCH   8  20
TORSDOF 5
