REMARK  Name = ZINC12766922
REMARK  13 active torsions:
REMARK  status: ('A' for Active; 'I' for Inactive)
REMARK    1  A    between atoms: C_1  and  C_2
REMARK    2  A    between atoms: C_5  and  N_8
REMARK    3  A    between atoms: C_9  and  C_25
REMARK    4  A    between atoms: C_11  and  C_17
REMARK    5  A    between atoms: N_19  and  C_20
REMARK    6  A    between atoms: C_20  and  C_21
REMARK    7  A    between atoms: C_21  and  C_22
REMARK    8  A    between atoms: C_22  and  C_23
REMARK    9  A    between atoms: C_22  and  C_24
REMARK   10  A    between atoms: C_28  and  O_33
REMARK   11  A    between atoms: C_29  and  O_31
REMARK   12  A    between atoms: O_31  and  C_32
REMARK   13  A    between atoms: O_33  and  C_34
REMARK                            x       y       z     vdW  Elec       q    Type
REMARK                         _______ _______ _______ _____ _____    ______ ____
ROOT
ATOM      1  N   UNL     1      -2.456   3.823   0.044  0.00  0.00    -0.263 N 
ATOM      2  C   UNL     1      -3.681   3.041  -0.066  0.00  0.00    +0.123 C 
ATOM      3  C   UNL     1      -4.879   3.851   0.436  0.00  0.00    +0.101 C 
ATOM      4  C   UNL     1      -4.871   5.215  -0.265  0.00  0.00    +0.024 C 
ATOM      5  C   UNL     1      -3.658   6.006   0.230  0.00  0.00    +0.097 C 
ATOM      6  C   UNL     1      -2.425   5.152   0.153  0.00  0.00    +0.220 C 
ATOM      7  O   UNL     1      -1.344   5.700   0.192  0.00  0.00    -0.275 OA
ENDROOT
BRANCH   1  12
ATOM      8  C   UNL     1       2.490   1.044  -0.016  0.00  0.00    +0.044 C 
ATOM      9  C   UNL     1       1.176   1.782   0.000  0.00  0.00    -0.050 A 
ATOM     10  C   UNL     1       0.345   1.736  -1.104  0.00  0.00    +0.005 A 
ATOM     11  C   UNL     1      -0.858   2.415  -1.095  0.00  0.00    +0.024 A 
ATOM     12  C   UNL     1      -1.236   3.138   0.029  0.00  0.00    +0.037 A 
ATOM     13  C   UNL     1      -0.399   3.183   1.137  0.00  0.00    +0.024 A 
ATOM     14  C   UNL     1       0.804   2.505   1.119  0.00  0.00    +0.005 A 
ENDBRANCH   1  12
BRANCH   2  15
ATOM     15  C   UNL     1      -3.548   1.788   0.762  0.00  0.00    -0.022 A 
ATOM     16  C   UNL     1      -2.933   1.842   2.000  0.00  0.00    +0.009 A 
ATOM     17  C   UNL     1      -2.809   0.696   2.763  0.00  0.00    +0.050 A 
ATOM     18  C   UNL     1      -3.300  -0.509   2.288  0.00  0.00    +0.162 A 
ATOM     19  C   UNL     1      -3.919  -0.563   1.043  0.00  0.00    +0.162 A 
ATOM     20  C   UNL     1      -4.045   0.590   0.285  0.00  0.00    +0.055 A 
BRANCH  19  21
ATOM     21  O   UNL     1      -4.402  -1.744   0.573  0.00  0.00    -0.491 OA
ATOM     22  C   UNL     1      -5.025  -1.724  -0.714  0.00  0.00    +0.277 C 
ENDBRANCH  19  21
BRANCH  18  23
ATOM     23  O   UNL     1      -3.179  -1.637   3.038  0.00  0.00    -0.491 OA
ATOM     24  C   UNL     1      -2.532  -1.507   4.306  0.00  0.00    +0.277 C 
ENDBRANCH  18  23
ENDBRANCH   2  15
BRANCH   3  25
ATOM     25  C   UNL     1      -6.155   3.121   0.106  0.00  0.00    +0.218 C 
ATOM     26  O   UNL     1      -6.112   2.047  -0.456  0.00  0.00    -0.275 OA
ATOM     27  N   UNL     1      -7.345   3.660   0.437  0.00  0.00    -0.315 N 
ATOM     28  H   UNL     1      -7.380   4.519   0.887  0.00  0.00    +0.149 HD
BRANCH  27  29
ATOM     29  C   UNL     1      -8.586   2.950   0.117  0.00  0.00    +0.104 C 
BRANCH  29  30
ATOM     30  C   UNL     1      -9.783   3.774   0.596  0.00  0.00    +0.022 C 
BRANCH  30  31
ATOM     31  C   UNL     1     -11.079   3.033   0.262  0.00  0.00    -0.016 C 
ATOM     32  C   UNL     1     -11.140   1.728   1.059  0.00  0.00    +0.007 C 
ATOM     33  C   UNL     1     -12.277   3.910   0.628  0.00  0.00    +0.007 C 
ENDBRANCH  30  31
ENDBRANCH  29  30
ENDBRANCH  27  29
ENDBRANCH   3  25
TORSDOF 8
