REMARK  Name = ZINC01557364
REMARK  4 active torsions:
REMARK  status: ('A' for Active; 'I' for Inactive)
REMARK    1  A    between atoms: C_1  and  C_2
REMARK    2  A    between atoms: C_5  and  S_8
REMARK    3  A    between atoms: S_8  and  N_11
REMARK    4  A    between atoms: N_11  and  N_12
REMARK                            x       y       z     vdW  Elec       q    Type
REMARK                         _______ _______ _______ _____ _____    ______ ____
ROOT
ATOM      1  S   UNL     1       4.957   0.521  -0.272  0.00  0.00    +0.086 S 
ATOM      2  O   UNL     1       6.074   1.364  -0.513  0.00  0.00    -0.149 OA
ATOM      3  O   UNL     1       4.906  -0.382   0.824  0.00  0.00    -0.149 OA
ENDROOT
BRANCH   1   8
ATOM      4  C   UNL     1       4.179  -2.780  -5.263  0.00  0.00    +0.044 C 
ATOM      5  C   UNL     1       4.374  -1.956  -4.016  0.00  0.00    -0.050 A 
ATOM      6  C   UNL     1       5.024  -0.738  -4.087  0.00  0.00    +0.005 A 
ATOM      7  C   UNL     1       5.202   0.018  -2.944  0.00  0.00    +0.029 A 
ATOM      8  C   UNL     1       4.729  -0.443  -1.729  0.00  0.00    +0.110 A 
ATOM      9  C   UNL     1       4.084  -1.663  -1.657  0.00  0.00    +0.029 A 
ATOM     10  C   UNL     1       3.902  -2.417  -2.802  0.00  0.00    +0.005 A 
ENDBRANCH   1   8
BRANCH   1  11
ATOM     11  N   UNL     1       3.638   1.512  -0.130  0.00  0.00    -0.136 N 
ATOM     12  H   UNL     1       3.753   2.475  -0.126  0.00  0.00    +0.197 HD
BRANCH  11  13
ATOM     13  N   UNL     1       2.355   0.959  -0.015  0.00  0.00    -0.167 NA
ATOM     14  C   UNL     1       1.300   1.744  -0.002  0.00  0.00    +0.083 A 
ATOM     15  C   UNL     1      -0.013   1.076  -0.017  0.00  0.00    +0.029 A 
ATOM     16  C   UNL     1      -1.236   1.658  -0.013  0.00  0.00    +0.002 A 
ATOM     17  C   UNL     1      -1.563   3.028   0.018  0.00  0.00    +0.000 A 
ATOM     18  C   UNL     1      -0.755   4.114   0.038  0.00  0.00    +0.000 A 
ATOM     19  C   UNL     1       0.652   4.197   0.042  0.00  0.00    +0.002 A 
ATOM     20  C   UNL     1       1.561   3.193   0.025  0.00  0.00    +0.029 A 
ENDBRANCH  11  13
ENDBRANCH   1  11
TORSDOF 3
