REMARK  Name = ZINC08313260
REMARK  10 active torsions:
REMARK  status: ('A' for Active; 'I' for Inactive)
REMARK    1  A    between atoms: C_1  and  C_2
REMARK    2  A    between atoms: N_11  and  C_15
REMARK    3  A    between atoms: C_15  and  C_16
REMARK    4  A    between atoms: C_16  and  C_18
REMARK    5  A    between atoms: C_21  and  C_23
REMARK    6  A    between atoms: C_23  and  N_24
REMARK    7  A    between atoms: C_25  and  C_27
REMARK    8  A    between atoms: C_27  and  C_28
REMARK    9  A    between atoms: C_27  and  C_29
REMARK   10  A    between atoms: C_27  and  C_30
REMARK                            x       y       z     vdW  Elec       q    Type
REMARK                         _______ _______ _______ _____ _____    ______ ____
ROOT
ATOM      1  C   UNL     1      -1.082  -0.909   0.007  0.00  0.00    +0.187 C 
ATOM      2  O   UNL     1      -0.874  -2.106  -0.002  0.00  0.00    -0.290 OA
ENDROOT
BRANCH   1   3
ATOM      3  C   UNL     1       0.002  -0.004   0.002  0.00  0.00    +0.056 A 
ATOM      4  C   UNL     1       1.367  -0.271  -0.013  0.00  0.00    +0.019 A 
ATOM      5  C   UNL     1       2.212   0.808  -0.015  0.00  0.00    +0.013 A 
ATOM      6  C   UNL     1       1.688   2.063  -0.003  0.00  0.00    +0.008 A 
ATOM      7  S   UNL     1      -0.022   1.780   0.012  0.00  0.00    -0.089 S 
BRANCH   6   8
ATOM      8  C   UNL     1       2.418   3.382  -0.002  0.00  0.00    +0.146 C 
BRANCH   8   9
ATOM      9  N   UNL     1       2.640   3.817  -1.383  0.00  0.00    -0.310 N 
ATOM     10  C   UNL     1       3.280   4.978  -1.629  0.00  0.00    +0.219 C 
ATOM     11  O   UNL     1       3.671   5.662  -0.707  0.00  0.00    -0.275 OA
ATOM     12  H   UNL     1       2.328   3.270  -2.121  0.00  0.00    +0.149 HD
BRANCH  10  13
ATOM     13  C   UNL     1       3.509   5.426  -3.050  0.00  0.00    +0.039 C 
ATOM     14  C   UNL     1       4.250   6.765  -3.049  0.00  0.00    +0.020 C 
ATOM     15  C   UNL     1       4.348   4.379  -3.786  0.00  0.00    +0.020 C 
ATOM     16  C   UNL     1       2.162   5.589  -3.757  0.00  0.00    +0.020 C 
ENDBRANCH  10  13
ENDBRANCH   8   9
ENDBRANCH   6   8
ENDBRANCH   1   3
BRANCH   1  17
ATOM     17  C   UNL     1      -2.497  -0.391   0.023  0.00  0.00    +0.198 C 
BRANCH  17  27
ATOM     18  C   UNL     1      -2.908  -4.786  -0.587  0.00  0.00    +0.010 C 
ATOM     19  C   UNL     1      -4.333  -4.557  -1.092  0.00  0.00    +0.018 C 
ATOM     20  C   UNL     1      -5.248  -5.662  -0.558  0.00  0.00    +0.006 C 
ATOM     21  C   UNL     1      -6.677  -5.420  -1.047  0.00  0.00    +0.000 C 
ATOM     22  C   UNL     1      -7.173  -4.068  -0.532  0.00  0.00    +0.003 C 
ATOM     23  C   UNL     1      -6.266  -2.956  -1.065  0.00  0.00    +0.035 C 
ATOM     24  C   UNL     1      -4.833  -3.202  -0.603  0.00  0.00    +0.115 C 
ATOM     25  C   UNL     1      -3.929  -2.094  -1.090  0.00  0.00    +0.247 C 
ATOM     26  O   UNL     1      -3.697  -1.787  -2.240  0.00  0.00    -0.273 OA
ATOM     27  N   UNL     1      -3.431  -1.519   0.025  0.00  0.00    -0.217 N 
ATOM     28  C   UNL     1      -3.901  -2.105   1.133  0.00  0.00    +0.310 C 
ATOM     29  O   UNL     1      -3.599  -1.761   2.259  0.00  0.00    -0.252 OA
ATOM     30  N   UNL     1      -4.744  -3.119   0.861  0.00  0.00    -0.285 N 
ATOM     31  H   UNL     1      -5.202  -3.682   1.504  0.00  0.00    +0.151 HD
ENDBRANCH  17  27
ENDBRANCH   1  17
TORSDOF 6
