REMARK  Name = ZINC10048499
REMARK  12 active torsions:
REMARK  status: ('A' for Active; 'I' for Inactive)
REMARK    1  A    between atoms: C_1  and  C_2
REMARK    2  A    between atoms: C_2  and  C_3
REMARK    3  A    between atoms: C_6  and  N_9
REMARK    4  A    between atoms: C_10  and  C_37
REMARK    5  A    between atoms: N_19  and  C_24
REMARK    6  A    between atoms: N_22  and  C_23
REMARK    7  A    between atoms: C_24  and  C_25
REMARK    8  A    between atoms: C_25  and  C_27
REMARK    9  A    between atoms: C_25  and  C_28
REMARK   10  A    between atoms: C_28  and  N_29
REMARK   11  A    between atoms: N_29  and  C_30
REMARK   12  A    between atoms: C_35  and  O_36
REMARK                            x       y       z     vdW  Elec       q    Type
REMARK                         _______ _______ _______ _____ _____    ______ ____
ROOT
ATOM      1  N   UNL     1       4.568   2.424  -0.028  0.00  0.00    -0.283 N 
ATOM      2  C   UNL     1       4.662   1.044  -0.036  0.00  0.00    +0.040 A 
ATOM      3  C   UNL     1       3.430   0.544  -0.027  0.00  0.00    +0.116 A 
ATOM      4  N   UNL     1       2.531   1.596  -0.013  0.00  0.00    -0.277 N 
ATOM      5  C   UNL     1       3.236   2.752  -0.014  0.00  0.00    +0.223 A 
ATOM      6  N   UNL     1       2.395   3.776  -0.001  0.00  0.00    -0.193 NA
ATOM      7  C   UNL     1       1.141   3.334   0.009  0.00  0.00    +0.170 A 
ATOM      8  C   UNL     1       1.188   1.940   0.001  0.00  0.00    +0.157 A 
ATOM      9  C   UNL     1      -0.015   1.215   0.009  0.00  0.00    +0.283 A 
ATOM     10  O   UNL     1       0.002  -0.004   0.002  0.00  0.00    -0.265 OA
ATOM     11  N   UNL     1      -1.188   1.880   0.018  0.00  0.00    -0.259 N 
ATOM     12  C   UNL     1      -1.224   3.223   0.032  0.00  0.00    +0.333 A 
ATOM     13  O   UNL     1      -2.301   3.788   0.045  0.00  0.00    -0.246 OA
ATOM     14  N   UNL     1      -0.097   3.960   0.024  0.00  0.00    -0.279 N 
ATOM     15  C   UNL     1      -0.177   5.423   0.032  0.00  0.00    +0.155 C 
ATOM     16  C   UNL     1       5.940   0.245  -0.053  0.00  0.00    +0.065 C 
ENDROOT
BRANCH   1  20
ATOM     17  C   UNL     1       7.758   5.104  -0.046  0.00  0.00    -0.047 A 
ATOM     18  C   UNL     1       7.545   4.278  -1.134  0.00  0.00    +0.005 A 
ATOM     19  C   UNL     1       6.489   3.388  -1.131  0.00  0.00    +0.026 A 
ATOM     20  C   UNL     1       5.640   3.324  -0.034  0.00  0.00    +0.050 A 
ATOM     21  C   UNL     1       5.853   4.159   1.055  0.00  0.00    +0.026 A 
ATOM     22  C   UNL     1       6.915   5.043   1.048  0.00  0.00    +0.005 A 
BRANCH  17  24
ATOM     23  C   UNL     1       8.457   7.405  -0.652  0.00  0.00    +0.009 C 
ATOM     24  C   UNL     1       8.912   6.073  -0.052  0.00  0.00    +0.032 C 
ENDBRANCH  17  24
ENDBRANCH   1  20
BRANCH  11  25
ATOM     25  C   UNL     1      -2.444   1.125   0.020  0.00  0.00    +0.134 C 
BRANCH  25  26
ATOM     26  C   UNL     1      -2.874   0.856   1.463  0.00  0.00    +0.023 C 
ATOM     27  C   UNL     1      -3.197   2.181   2.156  0.00  0.00    +0.011 C 
BRANCH  26  28
ATOM     28  C   UNL     1      -4.116  -0.037   1.467  0.00  0.00    +0.106 C 
BRANCH  28  29
ATOM     29  N   UNL     1      -4.458  -0.394   2.846  0.00  0.00    -0.341 N 
ATOM     30  H   UNL     1      -3.917  -0.064   3.580  0.00  0.00    +0.146 HD
BRANCH  29  31
ATOM     31  C   UNL     1      -5.565  -1.210   3.104  0.00  0.00    +0.069 A 
ATOM     32  C   UNL     1      -6.344  -1.678   2.056  0.00  0.00    +0.026 A 
ATOM     33  C   UNL     1      -7.434  -2.488   2.313  0.00  0.00    +0.002 A 
ATOM     34  C   UNL     1      -7.757  -2.825   3.615  0.00  0.00    +0.004 A 
ATOM     35  C   UNL     1      -6.988  -2.358   4.665  0.00  0.00    +0.047 A 
ATOM     36  C   UNL     1      -5.892  -1.550   4.415  0.00  0.00    +0.138 A 
BRANCH  36  37
ATOM     37  O   UNL     1      -5.135  -1.089   5.448  0.00  0.00    -0.505 OA
ATOM     38  H   UNL     1      -5.431  -0.240   5.804  0.00  0.00    +0.292 HD
ENDBRANCH  36  37
ENDBRANCH  29  31
ENDBRANCH  28  29
ENDBRANCH  26  28
ENDBRANCH  25  26
ENDBRANCH  11  25
TORSDOF 8
