REMARK  Name = ZINC08726695
REMARK  9 active torsions:
REMARK  status: ('A' for Active; 'I' for Inactive)
REMARK    1  A    between atoms: C_1  and  C_2
REMARK    2  A    between atoms: C_3  and  C_14
REMARK    3  A    between atoms: C_4  and  C_13
REMARK    4  A    between atoms: N_5  and  C_7
REMARK    5  A    between atoms: C_14  and  N_62
REMARK    6  A    between atoms: C_15  and  N_62
REMARK    7  A    between atoms: C_16  and  C_17
REMARK    8  A    between atoms: C_16  and  N_62
REMARK    9  A    between atoms: N_19  and  N_20
REMARK                            x       y       z     vdW  Elec       q    Type
REMARK                         _______ _______ _______ _____ _____    ______ ____
ROOT
ATOM      1  C   UNL     1       2.338   8.507   2.621  0.00  0.00    +0.020 C 
ENDROOT
BRANCH   1   2
ATOM      2  C   UNL     1       1.571   8.976   3.830  0.00  0.00    +0.213 C 
ATOM      3  O   UNL     1       0.697   8.278   4.301  0.00  0.00    -0.276 OA
ATOM      4  N   UNL     1       1.855  10.169   4.388  0.00  0.00    -0.225 N 
ATOM      5  H   UNL     1       2.553  10.727   4.011  0.00  0.00    +0.173 HD
BRANCH   4   6
ATOM      6  N   UNL     1       1.141  10.605   5.512  0.00  0.00    -0.137 N 
ATOM      7  C   UNL     1       1.634  10.611   6.768  0.00  0.00    +0.263 C 
ATOM      8  O   UNL     1       2.736  10.255   7.125  0.00  0.00    -0.271 OA
ATOM      9  C   UNL     1       0.522  11.155   7.635  0.00  0.00    +0.114 C 
ATOM     10  C   UNL     1       0.964  12.446   8.316  0.00  0.00    +0.035 C 
ATOM     11  C   UNL     1      -0.184  12.996   9.167  0.00  0.00    +0.003 C 
ATOM     12  C   UNL     1      -0.583  11.957  10.216  0.00  0.00    +0.000 C 
ATOM     13  C   UNL     1      -1.047  10.677   9.517  0.00  0.00    +0.003 C 
ATOM     14  C   UNL     1       0.097  10.118   8.668  0.00  0.00    +0.035 C 
ATOM     15  N   UNL     1      -0.571  11.419   6.690  0.00  0.00    -0.284 N 
ATOM     16  C   UNL     1      -0.113  11.071   5.472  0.00  0.00    +0.326 C 
ATOM     17  O   UNL     1      -0.767  11.168   4.452  0.00  0.00    -0.251 OA
ATOM     18  H   UNL     1      -1.447  11.777   6.901  0.00  0.00    +0.151 HD
ENDBRANCH   4   6
ENDBRANCH   1   2
BRANCH   1  20
ATOM     19  C   UNL     1       2.141   6.171   3.225  0.00  0.00    -0.095 C 
ATOM     20  N   UNL     1       1.815   7.189   2.205  0.00  0.00    +0.386 N 
ATOM     21  H   UNL     1       0.795   7.250   2.109  0.00  0.00    -0.081 HD
BRANCH  20  22
ATOM     22  C   UNL     1       2.397   6.803   0.902  0.00  0.00    -0.039 C 
BRANCH  22  25
ATOM     23  C   UNL     1      -0.215   6.762  -0.891  0.00  0.00    +0.068 C 
ATOM     24  C   UNL     1       0.534   5.553  -0.393  0.00  0.00    +0.062 A 
ATOM     25  C   UNL     1       1.688   5.572   0.399  0.00  0.00    -0.020 A 
ATOM     26  C   UNL     1       2.050   4.290   0.636  0.00  0.00    +0.043 A 
ATOM     27  N   UNL     1       1.161   3.488   0.009  0.00  0.00    -0.237 N 
ATOM     28  N   UNL     1       0.218   4.305  -0.627  0.00  0.00    -0.171 NA
ATOM     29  C   UNL     1       3.235   3.839   1.452  0.00  0.00    +0.066 C 
BRANCH  27  30
ATOM     30  C   UNL     1       1.177   2.086   0.002  0.00  0.00    +0.066 A 
ATOM     31  C   UNL     1      -0.017   1.377   0.010  0.00  0.00    +0.028 A 
ATOM     32  C   UNL     1       0.002  -0.004   0.002  0.00  0.00    +0.002 A 
ATOM     33  C   UNL     1       1.208  -0.680  -0.013  0.00  0.00    +0.000 A 
ATOM     34  C   UNL     1       2.398   0.023  -0.021  0.00  0.00    +0.002 A 
ATOM     35  C   UNL     1       2.386   1.404  -0.013  0.00  0.00    +0.028 A 
ENDBRANCH  27  30
ENDBRANCH  22  25
ENDBRANCH  20  22
ENDBRANCH   1  20
TORSDOF 6
