REMARK  Name = ZINC07116431
REMARK  4 active torsions:
REMARK  status: ('A' for Active; 'I' for Inactive)
REMARK    1  A    between atoms: C_1  and  C_2
REMARK    2  A    between atoms: C_2  and  C_4
REMARK    3  A    between atoms: C_2  and  N_13
REMARK    4  A    between atoms: C_14  and  C_16
REMARK                            x       y       z     vdW  Elec       q    Type
REMARK                         _______ _______ _______ _____ _____    ______ ____
ROOT
ATOM      1  N   UNL     1       3.748  -4.890  -0.516  0.00  0.00    -0.305 N 
ATOM      2  C   UNL     1       2.631  -4.207  -0.195  0.00  0.00    +0.220 C 
ATOM      3  O   UNL     1       1.694  -4.782   0.317  0.00  0.00    -0.275 OA
ATOM      4  H   UNL     1       4.497  -4.430  -0.925  0.00  0.00    +0.149 HD
ENDROOT
BRANCH   2   5
ATOM      5  C   UNL     1       2.547  -2.728  -0.471  0.00  0.00    +0.117 C 
ATOM      6  C   UNL     1       1.187  -2.194  -0.016  0.00  0.00    +0.055 C 
ATOM      7  C   UNL     1       1.207  -0.687  -0.014  0.00  0.00    -0.004 A 
ATOM      8  C   UNL     1       0.002  -0.004   0.002  0.00  0.00    +0.027 A 
ATOM      9  C   UNL     1      -0.017   1.378   0.010  0.00  0.00    +0.041 A 
ATOM     10  C   UNL     1       1.173   2.085   0.002  0.00  0.00    +0.023 A 
ATOM     11  C   UNL     1       2.376   1.409  -0.015  0.00  0.00    +0.047 A 
ATOM     12  C   UNL     1       2.398   0.018  -0.024  0.00  0.00    +0.124 A 
ATOM     13  O   UNL     1       3.602  -0.611  -0.046  0.00  0.00    -0.491 OA
ATOM     14  C   UNL     1       3.640  -1.992   0.315  0.00  0.00    +0.242 C 
ATOM     15 CL   UNL     1      -1.531   2.226   0.021  0.00  0.00    -0.084 Cl
ENDBRANCH   2   5
BRANCH   1  17
ATOM     16  C   UNL     1       3.199  -7.100  -1.408  0.00  0.00    +0.036 C 
ATOM     17  C   UNL     1       3.829  -6.328  -0.248  0.00  0.00    +0.136 C 
BRANCH  17  18
ATOM     18  C   UNL     1       5.274  -6.731  -0.102  0.00  0.00    +0.126 A 
ATOM     19  C   UNL     1       5.740  -7.604   0.800  0.00  0.00    +0.055 A 
ATOM     20  C   UNL     1       7.189  -7.689   0.578  0.00  0.00    +0.020 A 
ATOM     21  C   UNL     1       8.226  -8.406   1.173  0.00  0.00    +0.011 A 
ATOM     22  C   UNL     1       9.505  -8.254   0.715  0.00  0.00    +0.001 A 
ATOM     23  C   UNL     1       9.776  -7.391  -0.338  0.00  0.00    +0.004 A 
ATOM     24  C   UNL     1       8.763  -6.674  -0.939  0.00  0.00    +0.047 A 
ATOM     25  C   UNL     1       7.457  -6.814  -0.488  0.00  0.00    +0.135 A 
ATOM     26  O   UNL     1       6.282  -6.269  -0.864  0.00  0.00    -0.458 OA
ENDBRANCH  17  18
ENDBRANCH   1  17
TORSDOF 3
