REMARK  Name = ZINC22754839
REMARK  14 active torsions:
REMARK  status: ('A' for Active; 'I' for Inactive)
REMARK    1  A    between atoms: C_1  and  C_2
REMARK    2  A    between atoms: C_2  and  C_4
REMARK    3  A    between atoms: C_2  and  S_16
REMARK    4  A    between atoms: N_6  and  C_7
REMARK    5  A    between atoms: C_7  and  C_8
REMARK    6  A    between atoms: C_8  and  C_10
REMARK    7  A    between atoms: C_8  and  N_13
REMARK    8  A    between atoms: C_10  and  C_11
REMARK    9  A    between atoms: C_10  and  C_12
REMARK   10  A    between atoms: N_13  and  C_14
REMARK   11  A    between atoms: N_13  and  C_15
REMARK   12  A    between atoms: S_16  and  C_17
REMARK   13  A    between atoms: C_17  and  C_18
REMARK   14  A    between atoms: C_24  and  C_29
REMARK                            x       y       z     vdW  Elec       q    Type
REMARK                         _______ _______ _______ _____ _____    ______ ____
ROOT
ATOM      1  C   UNL     1       1.701  -1.954  -2.617  0.00  0.00    +0.144 C 
ENDROOT
BRANCH   1   2
ATOM      2  C   UNL     1       2.647  -2.602  -3.594  0.00  0.00    +0.121 A 
ATOM      3  N   UNL     1       2.399  -2.510  -4.925  0.00  0.00    -0.310 N 
ATOM      4  H   UNL     1       1.615  -2.027  -5.230  0.00  0.00    +0.170 HD
ATOM      5  C   UNL     1       3.219  -3.075  -5.831  0.00  0.00    +0.260 A 
ATOM      6  O   UNL     1       2.983  -2.982  -7.023  0.00  0.00    -0.267 OA
ATOM      7  C   UNL     1       4.374  -3.785  -5.372  0.00  0.00    +0.080 A 
ATOM      8  C   UNL     1       5.401  -4.474  -6.145  0.00  0.00    +0.004 A 
ATOM      9  C   UNL     1       6.414  -5.085  -5.484  0.00  0.00    +0.056 A 
ATOM     10  S   UNL     1       6.041  -4.765  -3.771  0.00  0.00    -0.076 S 
ATOM     11  C   UNL     1       4.549  -3.828  -3.979  0.00  0.00    +0.116 A 
ATOM     12  N   UNL     1       3.696  -3.239  -3.145  0.00  0.00    -0.226 NA
BRANCH   8  13
ATOM     13  C   UNL     1       5.337  -4.506  -7.626  0.00  0.00    -0.017 A 
ATOM     14  C   UNL     1       4.157  -4.880  -8.267  0.00  0.00    +0.008 A 
ATOM     15  C   UNL     1       4.104  -4.907  -9.646  0.00  0.00    +0.001 A 
ATOM     16  C   UNL     1       5.218  -4.565 -10.391  0.00  0.00    +0.000 A 
ATOM     17  C   UNL     1       6.391  -4.194  -9.760  0.00  0.00    +0.001 A 
ATOM     18  C   UNL     1       6.455  -4.157  -8.382  0.00  0.00    +0.008 A 
ENDBRANCH   8  13
ENDBRANCH   1   2
BRANCH   1  19
ATOM     19  S   UNL     1       2.291  -2.236  -0.925  0.00  0.00    -0.141 S 
BRANCH  19  21
ATOM     20  C   UNL     1       1.101   0.103  -0.152  0.00  0.00    +0.029 C 
ATOM     21  C   UNL     1       1.059  -1.403   0.114  0.00  0.00    +0.129 C 
BRANCH  21  22
ATOM     22  C   UNL     1       1.366  -1.666   1.566  0.00  0.00    +0.226 C 
ATOM     23  O   UNL     1       2.499  -1.931   1.908  0.00  0.00    -0.275 OA
ATOM     24  N   UNL     1       0.382  -1.607   2.484  0.00  0.00    -0.316 N 
ATOM     25  H   UNL     1      -0.525  -1.395   2.211  0.00  0.00    +0.149 HD
BRANCH  24  26
ATOM     26  C   UNL     1       0.680  -1.863   3.896  0.00  0.00    +0.089 C 
BRANCH  26  27
ATOM     27  C   UNL     1      -0.555  -1.552   4.743  0.00  0.00    -0.049 C 
BRANCH  27  28
ATOM     28  N   UNL     1      -0.815  -0.106   4.718  0.00  0.00    +0.379 N 
ATOM     29  C   UNL     1       0.380   0.614   5.179  0.00  0.00    -0.096 C 
ATOM     30  C   UNL     1      -1.139   0.310   3.346  0.00  0.00    -0.096 C 
ATOM     31  H   UNL     1      -1.592   0.107   5.326  0.00  0.00    -0.082 HD
ENDBRANCH  27  28
BRANCH  27  32
ATOM     32  C   UNL     1      -0.312  -2.001   6.185  0.00  0.00    -0.029 C 
ATOM     33  C   UNL     1      -1.537  -1.665   7.038  0.00  0.00    +0.005 C 
ATOM     34  C   UNL     1      -0.068  -3.511   6.214  0.00  0.00    +0.005 C 
ENDBRANCH  27  32
ENDBRANCH  26  27
ENDBRANCH  24  26
ENDBRANCH  21  22
ENDBRANCH  19  21
ENDBRANCH   1  19
TORSDOF 9
