REMARK  Name = ZINC07401644
REMARK  8 active torsions:
REMARK  status: ('A' for Active; 'I' for Inactive)
REMARK    1  A    between atoms: C_1  and  C_2
REMARK    2  A    between atoms: C_2  and  C_3
REMARK    3  A    between atoms: C_2  and  C_4
REMARK    4  A    between atoms: C_4  and  C_6
REMARK    5  A    between atoms: C_4  and  N_18
REMARK    6  A    between atoms: C_6  and  O_8
REMARK    7  A    between atoms: O_8  and  C_9
REMARK    8  A    between atoms: C_19  and  C_21
REMARK                            x       y       z     vdW  Elec       q    Type
REMARK                         _______ _______ _______ _____ _____    ______ ____
ROOT
ATOM      1  C   UNL     1      -2.084   7.265  -0.949  0.00  0.00    +0.185 C 
ENDROOT
BRANCH   1   2
ATOM      2  N   UNL     1      -2.013   5.802  -0.957  0.00  0.00    -0.302 N 
ATOM      3  C   UNL     1      -1.397   5.151   0.050  0.00  0.00    +0.220 C 
ATOM      4  O   UNL     1      -0.902   5.777   0.963  0.00  0.00    -0.275 OA
ATOM      5  H   UNL     1      -2.409   5.301  -1.688  0.00  0.00    +0.150 HD
BRANCH   3   6
ATOM      6  C   UNL     1      -1.324   3.646   0.041  0.00  0.00    +0.048 C 
ATOM      7  C   UNL     1      -0.580   3.179  -1.211  0.00  0.00    +0.019 C 
ATOM      8  C   UNL     1      -0.505   1.651  -1.220  0.00  0.00    -0.009 C 
ATOM      9  C   UNL     1       0.240   1.169   0.026  0.00  0.00    +0.007 C 
ATOM     10  C   UNL     1      -0.505   1.636   1.278  0.00  0.00    -0.009 C 
ATOM     11  C   UNL     1      -0.579   3.164   1.287  0.00  0.00    +0.019 C 
ATOM     12  C   UNL     1      -1.921   1.057   1.275  0.00  0.00    +0.007 C 
ATOM     13  C   UNL     1      -2.666   1.538   0.029  0.00  0.00    -0.009 C 
ATOM     14  C   UNL     1      -1.921   1.071  -1.223  0.00  0.00    +0.007 C 
ATOM     15  C   UNL     1      -2.740   3.067   0.038  0.00  0.00    +0.019 C 
ENDBRANCH   3   6
ENDBRANCH   1   2
BRANCH   1  17
ATOM     16  C   UNL     1      -3.363   9.241  -0.109  0.00  0.00    +0.009 C 
ATOM     17  C   UNL     1      -3.289   7.712  -0.118  0.00  0.00    +0.014 C 
ATOM     18  C   UNL     1      -4.570   7.143  -0.731  0.00  0.00    +0.009 C 
ENDBRANCH   1  17
BRANCH   1  19
ATOM     19  C   UNL     1      -2.233   7.769  -2.361  0.00  0.00    +0.333 C 
ATOM     20  O   UNL     1      -2.275   6.986  -3.281  0.00  0.00    -0.248 OA
BRANCH  19  21
ATOM     21  O   UNL     1      -2.318   9.088  -2.598  0.00  0.00    -0.424 OA
BRANCH  21  22
ATOM     22  C   UNL     1      -2.344   9.481  -3.899  0.00  0.00    +0.135 A 
ATOM     23  C   UNL     1      -1.206  10.019  -4.484  0.00  0.00    +0.050 A 
ATOM     24  C   UNL     1      -1.229  10.415  -5.807  0.00  0.00    +0.053 A 
ATOM     25  C   UNL     1      -2.390  10.285  -6.552  0.00  0.00    +0.166 A 
ATOM     26  C   UNL     1      -3.535   9.751  -5.965  0.00  0.00    +0.170 A 
ATOM     27  C   UNL     1      -3.509   9.350  -4.640  0.00  0.00    +0.096 A 
ATOM     28  O   UNL     1      -4.533   9.729  -6.897  0.00  0.00    -0.452 OA
ATOM     29  C   UNL     1      -4.108  10.631  -7.936  0.00  0.00    +0.466 C 
ATOM     30  O   UNL     1      -2.671  10.599  -7.851  0.00  0.00    -0.453 OA
ENDBRANCH  21  22
ENDBRANCH  19  21
ENDBRANCH   1  19
TORSDOF 6
