REMARK  Name = ZINC43093017
REMARK  10 active torsions:
REMARK  status: ('A' for Active; 'I' for Inactive)
REMARK    1  A    between atoms: C_1  and  C_2
REMARK    2  A    between atoms: C_2  and  C_3
REMARK    3  A    between atoms: C_3  and  C_5
REMARK    4  A    between atoms: C_3  and  N_24
REMARK    5  A    between atoms: C_5  and  C_7
REMARK    6  A    between atoms: C_5  and  N_14
REMARK    7  A    between atoms: N_14  and  C_15
REMARK    8  A    between atoms: N_14  and  C_16
REMARK    9  A    between atoms: C_16  and  C_18
REMARK   10  A    between atoms: C_16  and  C_19
REMARK                            x       y       z     vdW  Elec       q    Type
REMARK                         _______ _______ _______ _____ _____    ______ ____
ROOT
ATOM      1  C   UNL     1       0.928  -2.206  -1.089  0.00  0.00    +0.074 C 
ENDROOT
BRANCH   1   2
ATOM      2  C   UNL     1      -0.419  -2.881  -1.080  0.00  0.00    -0.018 A 
ATOM      3  C   UNL     1      -1.137  -2.975   0.098  0.00  0.00    +0.006 A 
ATOM      4  C   UNL     1      -2.373  -3.594   0.107  0.00  0.00    +0.000 A 
ATOM      5  C   UNL     1      -2.892  -4.118  -1.062  0.00  0.00    +0.001 A 
ATOM      6  C   UNL     1      -2.176  -4.024  -2.240  0.00  0.00    +0.015 A 
ATOM      7  C   UNL     1      -0.941  -3.401  -2.251  0.00  0.00    +0.022 A 
ATOM      8 BR   UNL     1       0.037  -3.265  -3.863  0.00  0.00    -0.050 Br
ENDBRANCH   1   2
BRANCH   1   9
ATOM      9  N   UNL     1       1.603  -2.442   0.194  0.00  0.00    -0.293 NA
ATOM     10  C   UNL     1       2.859  -1.684   0.276  0.00  0.00    +0.106 C 
BRANCH   9  11
ATOM     11  C   UNL     1       1.839  -3.876   0.409  0.00  0.00    +0.091 C 
ATOM     12  C   UNL     1       3.008  -4.337  -0.463  0.00  0.00    +0.030 C 
BRANCH  11  13
ATOM     13  C   UNL     1       2.167  -4.119   1.860  0.00  0.00    +0.007 A 
ATOM     14  C   UNL     1       1.834  -5.172   2.646  0.00  0.00    +0.013 A 
ATOM     15  C   UNL     1       2.250  -5.182   3.964  0.00  0.00    +0.008 A 
ATOM     16  C   UNL     1       2.978  -4.139   4.432  0.00  0.00    +0.045 A 
ATOM     17  S   UNL     1       3.102  -3.098   2.987  0.00  0.00    -0.100 S 
ENDBRANCH  11  13
ENDBRANCH   9  11
ENDBRANCH   1   9
BRANCH   1  18
ATOM     18  C   UNL     1       0.744  -0.702  -1.300  0.00  0.00    -0.053 C 
BRANCH  18  19
ATOM     19  N   UNL     1       0.028  -0.468  -2.561  0.00  0.00    +0.381 N 
ATOM     20  H   UNL     1      -0.094   0.524  -2.700  0.00  0.00    -0.090 HD
ATOM     21  H   UNL     1       0.561  -0.851  -3.326  0.00  0.00    -0.090 HD
ATOM     22  H   UNL     1      -0.876  -0.915  -2.523  0.00  0.00    -0.090 HD
ENDBRANCH  18  19
BRANCH  18  24
ATOM     23  C   UNL     1      -0.133   1.403  -0.276  0.00  0.00    +0.002 C 
ATOM     24  C   UNL     1      -0.065  -0.120  -0.139  0.00  0.00    -0.018 C 
ENDBRANCH  18  24
ENDBRANCH   1  18
TORSDOF 7
