REMARK  Name = ZINC13036331
REMARK  2 active torsions:
REMARK  status: ('A' for Active; 'I' for Inactive)
REMARK    1  A    between atoms: C_13  and  O_18
REMARK    2  A    between atoms: C_21  and  C_24
REMARK                            x       y       z     vdW  Elec       q    Type
REMARK                         _______ _______ _______ _____ _____    ______ ____
ROOT
ATOM      1  C   UNL     1       0.115   1.516  -0.036  0.00  0.00    +0.001 A 
ATOM      2  C   UNL     1       1.331   2.174  -0.033  0.00  0.00    +0.004 A 
ATOM      3  C   UNL     1       2.509   1.457  -0.027  0.00  0.00    +0.046 A 
ATOM      4  C   UNL     1       2.485   0.066  -0.028  0.00  0.00    +0.128 A 
ATOM      5  C   UNL     1       1.256  -0.588  -0.043  0.00  0.00    +0.014 A 
ATOM      6  C   UNL     1       0.081   0.133  -0.040  0.00  0.00    +0.009 A 
ATOM      7  C   UNL     1       1.244  -2.086  -0.083  0.00  0.00    +0.119 C 
ATOM      8  C   UNL     1       0.227  -2.731   0.884  0.00  0.00    +0.078 C 
ATOM      9  C   UNL     1       0.989  -4.005   1.265  0.00  0.00    +0.032 C 
ATOM     10  C   UNL     1       0.436  -5.171   1.796  0.00  0.00    +0.043 C 
ATOM     11  C   UNL     1      -0.955  -5.270   2.031  0.00  0.00    +0.058 C 
ATOM     12  C   UNL     1      -1.475  -6.417   2.550  0.00  0.00    +0.118 C 
ATOM     13  C   UNL     1      -0.662  -7.509   2.859  0.00  0.00    +0.049 C 
ATOM     14  C   UNL     1       0.684  -7.475   2.657  0.00  0.00    +0.055 C 
ATOM     15  C   UNL     1       1.285  -6.325   2.118  0.00  0.00    +0.188 C 
ATOM     16  O   UNL     1       2.493  -6.284   1.926  0.00  0.00    -0.287 OA
ATOM     17  N   UNL     1       2.302  -3.788   0.990  0.00  0.00    -0.277 N 
ATOM     18  N   UNL     1       2.499  -2.523   0.590  0.00  0.00    -0.179 NA
ATOM     19  C   UNL     1       3.653  -2.041  -0.124  0.00  0.00    +0.294 C 
ATOM     20  O   UNL     1       3.665  -0.608  -0.004  0.00  0.00    -0.468 OA
ATOM     21  H   UNL     1       3.002  -4.456   1.062  0.00  0.00    +0.166 HD
ENDROOT
BRANCH  19  22
ATOM     22  C   UNL     1       3.559  -2.433  -1.576  0.00  0.00    +0.016 A 
ATOM     23  C   UNL     1       3.907  -1.537  -2.569  0.00  0.00    +0.016 A 
ATOM     24  C   UNL     1       3.811  -1.922  -3.865  0.00  0.00    +0.045 A 
ATOM     25  S   UNL     1       3.213  -3.597  -3.709  0.00  0.00    -0.105 S 
ATOM     26  C   UNL     1       3.137  -3.673  -1.927  0.00  0.00    +0.053 A 
ENDBRANCH  19  22
BRANCH  12  27
ATOM     27  O   UNL     1      -2.814  -6.500   2.771  0.00  0.00    -0.507 OA
ATOM     28  H   UNL     1      -3.100  -7.347   3.140  0.00  0.00    +0.292 HD
ENDBRANCH  12  27
TORSDOF 2
