REMARK  Name = ZINC53644091
REMARK  9 active torsions:
REMARK  status: ('A' for Active; 'I' for Inactive)
REMARK    1  A    between atoms: C_1  and  C_2
REMARK    2  A    between atoms: C_4  and  C_31
REMARK    3  A    between atoms: N_5  and  C_7
REMARK    4  A    between atoms: C_7  and  C_8
REMARK    5  A    between atoms: N_10  and  N_11
REMARK    6  A    between atoms: C_12  and  C_14
REMARK    7  A    between atoms: C_14  and  C_16
REMARK    8  A    between atoms: C_14  and  N_27
REMARK    9  A    between atoms: C_16  and  C_17
REMARK                            x       y       z     vdW  Elec       q    Type
REMARK                         _______ _______ _______ _____ _____    ______ ____
ROOT
ATOM      1  C   UNL     1       4.767  -6.566   3.883  0.00  0.00    +0.166 C 
ENDROOT
BRANCH   1   2
ATOM      2  N   UNL     1       4.816  -7.965   4.314  0.00  0.00    -0.288 N 
ATOM      3  C   UNL     1       4.145  -8.355   5.416  0.00  0.00    +0.298 C 
ATOM      4  O   UNL     1       3.498  -7.545   6.052  0.00  0.00    -0.253 OA
ATOM      5  N   UNL     1       4.190  -9.642   5.813  0.00  0.00    -0.313 N 
ATOM      6  H   UNL     1       5.332  -8.611   3.807  0.00  0.00    +0.151 HD
ATOM      7  H   UNL     1       4.706 -10.288   5.306  0.00  0.00    +0.146 HD
ATOM      8  H   UNL     1       3.707  -9.922   6.606  0.00  0.00    +0.146 HD
ENDBRANCH   1   2
BRANCH   1  10
ATOM      9  N   UNL     1       3.075  -5.110   2.818  0.00  0.00    -0.233 N 
ATOM     10  C   UNL     1       3.339  -6.179   3.595  0.00  0.00    +0.250 C 
ATOM     11  O   UNL     1       2.429  -6.830   4.062  0.00  0.00    -0.272 OA
ATOM     12  H   UNL     1       3.803  -4.590   2.444  0.00  0.00    +0.173 HD
BRANCH   9  15
ATOM     13  C   UNL     1       1.482  -3.682   1.773  0.00  0.00    +0.251 C 
ATOM     14  O   UNL     1       2.393  -3.031   1.306  0.00  0.00    -0.272 OA
ATOM     15  N   UNL     1       1.747  -4.751   2.550  0.00  0.00    -0.233 N 
ATOM     16  H   UNL     1       1.019  -5.271   2.923  0.00  0.00    +0.173 HD
BRANCH  13  17
ATOM     17  C   UNL     1       0.055  -3.295   1.485  0.00  0.00    +0.240 C 
BRANCH  17  22
ATOM     18  C   UNL     1      -0.018   1.503   0.010  0.00  0.00    +0.067 C 
ATOM     19  C   UNL     1       0.002  -0.004   0.002  0.00  0.00    +0.060 A 
ATOM     20  C   UNL     1       0.008  -0.818  -1.135  0.00  0.00    +0.047 A 
ATOM     21  C   UNL     1       0.028  -2.107  -0.725  0.00  0.00    +0.037 A 
ATOM     22  N   UNL     1       0.034  -2.109   0.625  0.00  0.00    -0.259 N 
ATOM     23  N   UNL     1       0.023  -0.777   1.058  0.00  0.00    -0.176 NA
ATOM     24  C   UNL     1       0.040  -3.323  -1.615  0.00  0.00    +0.065 C 
ENDBRANCH  17  22
ENDBRANCH  13  17
ENDBRANCH   9  15
ENDBRANCH   1  10
BRANCH   1  25
ATOM     25  C   UNL     1       5.324  -5.671   4.991  0.00  0.00    +0.069 C 
BRANCH  25  26
ATOM     26  C   UNL     1       6.786  -5.974   5.194  0.00  0.00    -0.020 A 
ATOM     27  C   UNL     1       7.309  -6.819   6.097  0.00  0.00    +0.087 A 
ATOM     28  N   UNL     1       8.672  -6.836   5.987  0.00  0.00    -0.360 N 
ATOM     29  H   UNL     1       9.269  -7.371   6.533  0.00  0.00    +0.165 HD
ATOM     30  C   UNL     1       9.071  -5.980   4.985  0.00  0.00    +0.047 A 
ATOM     31  C   UNL     1       7.907  -5.407   4.441  0.00  0.00    +0.003 A 
ATOM     32  C   UNL     1       8.006  -4.492   3.390  0.00  0.00    +0.010 A 
ATOM     33  C   UNL     1       9.235  -4.160   2.894  0.00  0.00    +0.001 A 
ATOM     34  C   UNL     1      10.386  -4.726   3.425  0.00  0.00    +0.002 A 
ATOM     35  C   UNL     1      10.312  -5.623   4.468  0.00  0.00    +0.026 A 
ENDBRANCH  25  26
ENDBRANCH   1  25
TORSDOF 7
