REMARK  Name = ZINC39442748
REMARK  4 active torsions:
REMARK  status: ('A' for Active; 'I' for Inactive)
REMARK    1  A    between atoms: C_6  and  N_7
REMARK    2  A    between atoms: N_7  and  C_8
REMARK    3  A    between atoms: C_15  and  C_17
REMARK    4  A    between atoms: C_22  and  C_23
REMARK                            x       y       z     vdW  Elec       q    Type
REMARK                         _______ _______ _______ _____ _____    ______ ____
ROOT
ATOM      1  C   UNL     1      -3.264  -1.198   0.832  0.00  0.00    +0.088 C 
ATOM      2  C   UNL     1      -4.067  -1.395   2.119  0.00  0.00    +0.025 C 
ATOM      3  C   UNL     1      -5.302  -0.492   2.095  0.00  0.00    +0.021 C 
ATOM      4  C   UNL     1      -6.189  -0.878   0.908  0.00  0.00    +0.108 C 
ATOM      5  N   UNL     1      -5.384  -0.831  -0.320  0.00  0.00    -0.299 N 
ATOM      6  C   UNL     1      -4.128  -1.591  -0.371  0.00  0.00    +0.130 C 
ATOM      7  C   UNL     1      -5.788  -0.103  -1.379  0.00  0.00    +0.230 C 
ATOM      8  O   UNL     1      -5.114  -0.072  -2.387  0.00  0.00    -0.274 OA
ENDROOT
BRANCH   7   9
ATOM      9  C   UNL     1      -7.079   0.672  -1.312  0.00  0.00    +0.164 C 
ATOM     10  C   UNL     1      -6.840   2.061  -0.754  0.00  0.00    +0.126 C 
ATOM     11  N   UNL     1      -7.187   2.883  -1.688  0.00  0.00    -0.161 NA
ATOM     12  N   UNL     1      -7.640   2.229  -2.830  0.00  0.00    -0.157 NA
ATOM     13  C   UNL     1      -7.615   0.940  -2.705  0.00  0.00    +0.061 C 
BRANCH  13  14
ATOM     14  C   UNL     1      -8.031  -0.084  -3.730  0.00  0.00    +0.036 C 
ATOM     15  C   UNL     1      -8.388   0.622  -5.039  0.00  0.00    +0.009 C 
ATOM     16  C   UNL     1      -8.811  -0.417  -6.080  0.00  0.00    +0.001 C 
ATOM     17  C   UNL     1     -10.030  -1.186  -5.566  0.00  0.00    +0.000 C 
ATOM     18  C   UNL     1      -9.673  -1.892  -4.257  0.00  0.00    +0.001 C 
ATOM     19  C   UNL     1      -9.250  -0.853  -3.216  0.00  0.00    +0.009 C 
ENDBRANCH  13  14
ENDBRANCH   7   9
BRANCH   1  20
ATOM     20  N   UNL     1      -2.066  -2.040   0.869  0.00  0.00    -0.339 N 
ATOM     21  H   UNL     1      -2.076  -2.917   0.455  0.00  0.00    +0.146 HD
BRANCH  20  27
ATOM     22  C   UNL     1      -0.891  -0.324   2.095  0.00  0.00    +0.027 A 
ATOM     23  C   UNL     1       0.255   0.132   2.720  0.00  0.00    +0.051 A 
ATOM     24  C   UNL     1       1.391  -0.661   2.756  0.00  0.00    +0.162 A 
ATOM     25  C   UNL     1       1.378  -1.920   2.166  0.00  0.00    +0.164 A 
ATOM     26  C   UNL     1       0.230  -2.377   1.538  0.00  0.00    +0.072 A 
ATOM     27  C   UNL     1      -0.906  -1.579   1.502  0.00  0.00    +0.031 A 
ATOM     28  O   UNL     1       2.482  -2.716   2.198  0.00  0.00    -0.485 OA
ATOM     29  C   UNL     1       3.726  -2.079   2.508  0.00  0.00    +0.270 C 
ATOM     30  C   UNL     1       3.509  -1.161   3.718  0.00  0.00    +0.270 C 
ATOM     31  O   UNL     1       2.512  -0.193   3.373  0.00  0.00    -0.485 OA
ENDBRANCH  20  27
ENDBRANCH   1  20
TORSDOF 4
