REMARK  Name = ZINC28054835
REMARK  2 active torsions:
REMARK  status: ('A' for Active; 'I' for Inactive)
REMARK    1  A    between atoms: C_9  and  C_17
REMARK    2  A    between atoms: C_24  and  C_27
REMARK                            x       y       z     vdW  Elec       q    Type
REMARK                         _______ _______ _______ _____ _____    ______ ____
ROOT
ATOM      1  C   UNL     1      -4.059   8.039   4.634  0.00  0.00    +0.001 A 
ATOM      2  C   UNL     1      -3.050   8.085   5.580  0.00  0.00    +0.004 A 
ATOM      3  C   UNL     1      -1.755   7.735   5.245  0.00  0.00    +0.046 A 
ATOM      4  C   UNL     1      -1.465   7.335   3.953  0.00  0.00    +0.131 A 
ATOM      5  C   UNL     1      -2.484   7.291   2.993  0.00  0.00    +0.038 A 
ATOM      6  C   UNL     1      -3.783   7.643   3.339  0.00  0.00    +0.013 A 
ATOM      7  C   UNL     1      -2.136   6.867   1.616  0.00  0.00    +0.050 C 
ATOM      8  C   UNL     1      -0.979   6.231   1.421  0.00  0.00    +0.025 C 
ATOM      9  C   UNL     1      -0.533   5.766   0.056  0.00  0.00    +0.174 C 
ATOM     10  N   UNL     1      -1.370   6.363  -0.975  0.00  0.00    -0.201 N 
ATOM     11  C   UNL     1      -2.541   7.005  -0.723  0.00  0.00    +0.240 A 
ATOM     12  N   UNL     1      -3.023   7.398  -1.867  0.00  0.00    -0.092 NA
ATOM     13  N   UNL     1      -2.232   7.054  -2.826  0.00  0.00    -0.021 NA
ATOM     14  N   UNL     1      -1.204   6.422  -2.358  0.00  0.00    -0.042 NA
ATOM     15  N   UNL     1      -3.020   7.149   0.568  0.00  0.00    -0.282 N 
ATOM     16  C   UNL     1      -0.083   5.950   2.606  0.00  0.00    +0.234 C 
ATOM     17  O   UNL     1      -0.207   6.982   3.584  0.00  0.00    -0.479 OA
ATOM     18  H   UNL     1      -4.049   7.471   0.788  0.00  0.00    +0.155 HD
ENDROOT
BRANCH   9  19
ATOM     19  C   UNL     1      -0.641   4.265  -0.020  0.00  0.00    -0.019 A 
ATOM     20  C   UNL     1       0.486   3.504  -0.271  0.00  0.00    +0.009 A 
ATOM     21  C   UNL     1       0.389   2.127  -0.341  0.00  0.00    +0.039 A 
ATOM     22  C   UNL     1      -0.837   1.510  -0.161  0.00  0.00    +0.123 A 
ATOM     23  C   UNL     1      -1.966   2.274   0.085  0.00  0.00    +0.039 A 
ATOM     24  C   UNL     1      -1.865   3.650   0.160  0.00  0.00    +0.009 A 
ATOM     25  F   UNL     1      -0.933   0.164  -0.230  0.00  0.00    -0.205 F 
ENDBRANCH   9  19
BRANCH  16  26
ATOM     26  C   UNL     1      -0.473   4.632   3.223  0.00  0.00    -0.000 A 
ATOM     27  C   UNL     1      -1.632   4.534   3.971  0.00  0.00    +0.008 A 
ATOM     28  C   UNL     1      -1.993   3.325   4.533  0.00  0.00    +0.003 A 
ATOM     29  C   UNL     1      -1.191   2.213   4.357  0.00  0.00    +0.038 A 
ATOM     30  C   UNL     1      -0.028   2.310   3.612  0.00  0.00    +0.124 A 
ATOM     31  C   UNL     1       0.330   3.522   3.045  0.00  0.00    +0.046 A 
ATOM     32  F   UNL     1       0.757   1.224   3.439  0.00  0.00    -0.205 F 
ENDBRANCH  16  26
TORSDOF 2
