REMARK  Name = ZINC06135215
REMARK  12 active torsions:
REMARK  status: ('A' for Active; 'I' for Inactive)
REMARK    1  A    between atoms: C_1  and  C_2
REMARK    2  A    between atoms: C_2  and  C_3
REMARK    3  A    between atoms: C_10  and  C_15
REMARK    4  A    between atoms: C_15  and  C_17
REMARK    5  A    between atoms: C_15  and  N_72
REMARK    6  A    between atoms: N_21  and  C_22
REMARK    7  A    between atoms: C_22  and  C_23
REMARK    8  A    between atoms: C_23  and  O_24
REMARK    9  A    between atoms: O_24  and  C_25
REMARK   10  A    between atoms: N_28  and  C_31
REMARK   11  A    between atoms: C_33  and  C_38
REMARK   12  A    between atoms: C_36  and  C_37
REMARK                            x       y       z     vdW  Elec       q    Type
REMARK                         _______ _______ _______ _____ _____    ______ ____
ROOT
ATOM      1  C   UNL     1       5.213   6.997   0.031  0.00  0.00    +0.039 C 
ENDROOT
BRANCH   1   9
ATOM      2  C   UNL     1       7.526   9.595   5.149  0.00  0.00    -0.047 A 
ATOM      3  C   UNL     1       6.427  10.397   5.427  0.00  0.00    +0.005 A 
ATOM      4  C   UNL     1       5.319  10.381   4.607  0.00  0.00    +0.026 A 
ATOM      5  C   UNL     1       5.299   9.552   3.490  0.00  0.00    +0.049 A 
ATOM      6  C   UNL     1       6.415   8.740   3.212  0.00  0.00    -0.001 A 
ATOM      7  C   UNL     1       7.529   8.774   4.057  0.00  0.00    +0.013 A 
ATOM      8  C   UNL     1       6.382   7.867   2.037  0.00  0.00    +0.017 A 
ATOM      9  C   UNL     1       5.277   7.880   1.251  0.00  0.00    +0.011 A 
ATOM     10  C   UNL     1       4.185   8.713   1.574  0.00  0.00    +0.251 A 
ATOM     11  O   UNL     1       3.199   8.706   0.857  0.00  0.00    -0.268 OA
ATOM     12  N   UNL     1       4.204   9.515   2.654  0.00  0.00    -0.322 N 
ATOM     13  H   UNL     1       3.412  10.092   2.853  0.00  0.00    +0.169 HD
BRANCH   2  15
ATOM     14  C   UNL     1       9.704  10.702   5.573  0.00  0.00    +0.009 C 
ATOM     15  C   UNL     1       8.726   9.631   6.060  0.00  0.00    +0.032 C 
ENDBRANCH   2  15
ENDBRANCH   1   9
BRANCH   1  21
ATOM     16  C   UNL     1       4.037   5.134  -0.974  0.00  0.00    -0.058 C 
ATOM     17  C   UNL     1       2.796   4.247  -0.852  0.00  0.00    +0.086 C 
ATOM     18  N   UNL     1       2.834   3.529   0.429  0.00  0.00    -0.333 N 
ATOM     19  C   UNL     1       2.872   4.471   1.556  0.00  0.00    +0.086 C 
ATOM     20  C   UNL     1       4.113   5.359   1.435  0.00  0.00    -0.058 C 
ATOM     21  N   UNL     1       4.051   6.091   0.152  0.00  0.00    +0.391 N 
ATOM     22  H   UNL     1       3.189   6.649   0.128  0.00  0.00    -0.080 HD
BRANCH  18  23
ATOM     23  C   UNL     1       1.752   2.654   0.545  0.00  0.00    +0.033 A 
ATOM     24  C   UNL     1       0.452   3.143   0.501  0.00  0.00    +0.026 A 
ATOM     25  C   UNL     1      -0.615   2.275   0.616  0.00  0.00    -0.049 A 
ATOM     26  C   UNL     1      -0.392   0.918   0.769  0.00  0.00    +0.004 A 
ATOM     27  C   UNL     1       0.900   0.429   0.820  0.00  0.00    +0.005 A 
ATOM     28  C   UNL     1       1.972   1.292   0.705  0.00  0.00    -0.029 A 
ATOM     29  C   UNL     1       3.380   0.756   0.753  0.00  0.00    +0.045 C 
ATOM     30  C   UNL     1      -2.025   2.805   0.568  0.00  0.00    +0.044 C 
ENDBRANCH  18  23
ENDBRANCH   1  21
BRANCH   1  31
ATOM     31  C   UNL     1       6.490   6.205  -0.083  0.00  0.00    +0.143 A 
ATOM     32  N   UNL     1       6.836   5.170   0.642  0.00  0.00    -0.115 NA
ATOM     33  N   UNL     1       7.995   4.773   0.241  0.00  0.00    -0.023 NA
ATOM     34  N   UNL     1       8.396   5.528  -0.722  0.00  0.00    -0.044 NA
ATOM     35  N   UNL     1       7.493   6.420  -0.955  0.00  0.00    -0.228 N 
BRANCH  35  36
ATOM     36  C   UNL     1       7.551   7.471  -1.973  0.00  0.00    +0.175 C 
BRANCH  36  37
ATOM     37  C   UNL     1       8.205   8.721  -1.380  0.00  0.00    +0.183 C 
BRANCH  37  38
ATOM     38  O   UNL     1       8.261   9.746  -2.374  0.00  0.00    -0.381 OA
ATOM     39  C   UNL     1       8.858  10.963  -1.921  0.00  0.00    +0.194 C 
ENDBRANCH  37  38
ENDBRANCH  36  37
ENDBRANCH  35  36
ENDBRANCH   1  31
TORSDOF 8
