REMARK  Name = ZINC39664987
REMARK  8 active torsions:
REMARK  status: ('A' for Active; 'I' for Inactive)
REMARK    1  A    between atoms: C_1  and  C_2
REMARK    2  A    between atoms: C_6  and  C_8
REMARK    3  A    between atoms: C_12  and  C_21
REMARK    4  A    between atoms: N_23  and  C_24
REMARK    5  A    between atoms: C_24  and  C_25
REMARK    6  A    between atoms: C_25  and  C_27
REMARK    7  A    between atoms: C_25  and  O_28
REMARK    8  A    between atoms: O_28  and  C_29
REMARK                            x       y       z     vdW  Elec       q    Type
REMARK                         _______ _______ _______ _____ _____    ______ ____
ROOT
ATOM      1  C   UNL     1      -0.072  -2.744   2.062  0.00  0.00    +0.247 C 
ATOM      2  O   UNL     1       0.017  -2.095   3.086  0.00  0.00    -0.270 OA
ATOM      3  N   UNL     1      -0.139  -4.089   2.120  0.00  0.00    -0.296 N 
ATOM      4  C   UNL     1      -0.121  -5.048   0.991  0.00  0.00    +0.121 C 
ATOM      5  C   UNL     1       0.746  -6.225   1.492  0.00  0.00    +0.100 C 
ATOM      6  C   UNL     1       0.658  -6.151   3.026  0.00  0.00    -0.004 C 
ATOM      7  C   UNL     1      -0.240  -4.943   3.328  0.00  0.00    +0.115 C 
ATOM      8  C   UNL     1       0.033  -7.427   3.581  0.00  0.00    -0.010 C 
ATOM      9  C   UNL     1       0.009  -7.355   5.111  0.00  0.00    -0.082 C 
ATOM     10  N   UNL     1       1.378  -7.197   5.616  0.00  0.00    +0.379 N 
ATOM     11  C   UNL     1       1.940  -5.922   5.152  0.00  0.00    -0.082 C 
ATOM     12  C   UNL     1       2.045  -5.934   3.625  0.00  0.00    -0.010 C 
ATOM     13  H   UNL     1       1.367  -7.211   6.625  0.00  0.00    -0.086 HD
ATOM     14  H   UNL     1       1.950  -7.957   5.279  0.00  0.00    -0.086 HD
ENDROOT
BRANCH   1  20
ATOM     15  C   UNL     1       0.952   1.250  -0.748  0.00  0.00    +0.044 C 
ATOM     16  C   UNL     1       0.382  -0.137  -0.603  0.00  0.00    -0.050 A 
ATOM     17  C   UNL     1      -0.178  -0.771  -1.698  0.00  0.00    +0.003 A 
ATOM     18  C   UNL     1      -0.704  -2.045  -1.574  0.00  0.00    +0.001 A 
ATOM     19  C   UNL     1      -0.672  -2.691  -0.355  0.00  0.00    +0.013 A 
ATOM     20  C   UNL     1      -0.109  -2.057   0.753  0.00  0.00    +0.037 A 
ATOM     21  C   UNL     1       0.424  -0.774   0.620  0.00  0.00    +0.016 A 
ENDBRANCH   1  20
BRANCH   5  22
ATOM     22  C   UNL     1       0.191  -7.535   0.995  0.00  0.00    +0.218 C 
ATOM     23  O   UNL     1      -0.986  -7.628   0.717  0.00  0.00    -0.275 OA
ATOM     24  N   UNL     1       1.002  -8.602   0.858  0.00  0.00    -0.312 N 
ATOM     25  H   UNL     1       1.944  -8.527   1.080  0.00  0.00    +0.149 HD
BRANCH  24  26
ATOM     26  C   UNL     1       0.463  -9.876   0.375  0.00  0.00    +0.148 C 
BRANCH  26  27
ATOM     27  C   UNL     1       1.584 -10.914   0.313  0.00  0.00    +0.187 C 
ATOM     28  C   UNL     1       1.021 -12.244  -0.192  0.00  0.00    +0.053 C 
BRANCH  27  29
ATOM     29  O   UNL     1       2.605 -10.460  -0.578  0.00  0.00    -0.488 OA
BRANCH  29  30
ATOM     30  C   UNL     1       3.884 -10.809  -0.280  0.00  0.00    +0.121 A 
ATOM     31  C   UNL     1       4.937 -10.288  -1.019  0.00  0.00    +0.045 A 
ATOM     32  C   UNL     1       6.236 -10.643  -0.714  0.00  0.00    +0.004 A 
ATOM     33  C   UNL     1       6.488 -11.518   0.327  0.00  0.00    +0.000 A 
ATOM     34  C   UNL     1       5.441 -12.039   1.065  0.00  0.00    +0.004 A 
ATOM     35  C   UNL     1       4.140 -11.681   0.767  0.00  0.00    +0.045 A 
ENDBRANCH  29  30
ENDBRANCH  27  29
ENDBRANCH  26  27
ENDBRANCH  24  26
ENDBRANCH   5  22
TORSDOF 6
