REMARK  Name = ZINC48849401
REMARK  3 active torsions:
REMARK  status: ('A' for Active; 'I' for Inactive)
REMARK    1  A    between atoms: C_1  and  C_2
REMARK    2  A    between atoms: C_8  and  N_10
REMARK    3  A    between atoms: C_17  and  C_19
REMARK                            x       y       z     vdW  Elec       q    Type
REMARK                         _______ _______ _______ _____ _____    ______ ____
ROOT
ATOM      1  N   UNL     1       2.116  -0.004   1.231  0.00  0.00    -0.296 N 
ATOM      2  C   UNL     1       2.795   0.128   2.388  0.00  0.00    +0.303 C 
ATOM      3  O   UNL     1       2.266  -0.174   3.441  0.00  0.00    -0.253 OA
ATOM      4  N   UNL     1       4.059   0.594   2.379  0.00  0.00    -0.278 N 
ATOM      5  C   UNL     1       4.816   1.002   1.181  0.00  0.00    +0.110 C 
ATOM      6  C   UNL     1       5.883   1.995   1.704  0.00  0.00    +0.021 C 
ATOM      7  C   UNL     1       6.257   1.359   3.070  0.00  0.00    +0.029 C 
ATOM      8  C   UNL     1       4.911   0.787   3.562  0.00  0.00    +0.114 C 
ATOM      9  H   UNL     1       2.538   0.237   0.392  0.00  0.00    +0.151 HD
ENDROOT
BRANCH   1  16
ATOM     10  C   UNL     1      -0.019   1.526   0.010  0.00  0.00    +0.009 C 
ATOM     11  C   UNL     1       0.002  -0.004   0.002  0.00  0.00    +0.006 C 
ATOM     12  C   UNL     1      -1.433  -0.534   0.013  0.00  0.00    +0.005 C 
ATOM     13  C   UNL     1      -1.413  -2.063   0.004  0.00  0.00    +0.000 C 
ATOM     14  C   UNL     1      -0.673  -2.570   1.244  0.00  0.00    +0.002 C 
ATOM     15  C   UNL     1       0.763  -2.041   1.233  0.00  0.00    +0.022 C 
ATOM     16  C   UNL     1       0.742  -0.511   1.242  0.00  0.00    +0.077 C 
ENDBRANCH   1  16
BRANCH   8  17
ATOM     17  C   UNL     1       5.139  -0.535   4.249  0.00  0.00    +0.010 A 
ATOM     18  C   UNL     1       5.165  -0.814   5.575  0.00  0.00    +0.013 A 
ATOM     19  C   UNL     1       5.395  -2.115   5.982  0.00  0.00    +0.008 A 
ATOM     20  C   UNL     1       5.588  -3.073   5.043  0.00  0.00    +0.045 A 
ATOM     21  S   UNL     1       5.439  -2.140   3.528  0.00  0.00    -0.100 S 
ENDBRANCH   8  17
TORSDOF 2
