REMARK  Name = ZINC43596899
REMARK  5 active torsions:
REMARK  status: ('A' for Active; 'I' for Inactive)
REMARK    1  A    between atoms: C_1  and  N_2
REMARK    2  A    between atoms: N_2  and  C_3
REMARK    3  A    between atoms: C_3  and  C_4
REMARK    4  A    between atoms: N_9  and  C_11
REMARK    5  A    between atoms: C_14  and  N_18
REMARK                            x       y       z     vdW  Elec       q    Type
REMARK                         _______ _______ _______ _____ _____    ______ ____
ROOT
ATOM      1  C   UNL     1      -1.355  -2.042   0.004  0.00  0.00    -0.011 C 
ATOM      2  C   UNL     1      -0.753  -2.538  -1.313  0.00  0.00    +0.005 C 
ATOM      3  C   UNL     1      -0.701  -4.067  -1.308  0.00  0.00    +0.019 C 
ATOM      4  C   UNL     1      -2.124  -4.622  -1.189  0.00  0.00    +0.105 C 
ATOM      5  N   UNL     1      -2.762  -4.036  -0.002  0.00  0.00    -0.329 N 
ATOM      6  C   UNL     1      -2.786  -2.574   0.139  0.00  0.00    +0.106 C 
ENDROOT
BRANCH   5   7
ATOM      7  C   UNL     1      -3.335  -4.854   0.975  0.00  0.00    +0.044 A 
ATOM      8  C   UNL     1      -2.572  -5.297   2.048  0.00  0.00    +0.026 A 
ATOM      9  C   UNL     1      -3.142  -6.105   3.012  0.00  0.00    +0.034 A 
ATOM     10  C   UNL     1      -4.471  -6.475   2.910  0.00  0.00    +0.127 A 
ATOM     11  C   UNL     1      -5.234  -6.037   1.843  0.00  0.00    +0.049 A 
ATOM     12  C   UNL     1      -4.672  -5.223   0.878  0.00  0.00    +0.041 A 
ATOM     13 BR   UNL     1      -5.718  -4.618  -0.577  0.00  0.00    -0.048 Br
BRANCH  10  14
ATOM     14  N   UNL     1      -5.077  -7.342   3.945  0.00  0.00    +0.056 N 
ATOM     15  O   UNL     1      -4.412  -7.726   4.878  0.00  0.00    -0.126 OA
ATOM     16  O   UNL     1      -6.239  -7.666   3.857  0.00  0.00    -0.126 OA
ENDBRANCH  10  14
ENDBRANCH   5   7
BRANCH   1  17
ATOM     17  C   UNL     1      -1.376  -0.512   0.012  0.00  0.00    -0.078 C 
BRANCH  17  19
ATOM     18  C   UNL     1      -0.018   1.465   0.010  0.00  0.00    -0.100 C 
ATOM     19  N   UNL     1       0.002  -0.004   0.002  0.00  0.00    +0.377 N 
ATOM     20  H   UNL     1       0.474  -0.330  -0.828  0.00  0.00    -0.086 HD
ATOM     21  H   UNL     1       0.490  -0.338   0.820  0.00  0.00    -0.086 HD
ENDBRANCH  17  19
ENDBRANCH   1  17
TORSDOF 4
