REMARK  Name = ZINC22318642
REMARK  12 active torsions:
REMARK  status: ('A' for Active; 'I' for Inactive)
REMARK    1  A    between atoms: C_1  and  C_2
REMARK    2  A    between atoms: C_5  and  S_8
REMARK    3  A    between atoms: S_8  and  N_11
REMARK    4  A    between atoms: N_11  and  C_12
REMARK    5  A    between atoms: N_11  and  C_30
REMARK    6  A    between atoms: C_12  and  C_13
REMARK    7  A    between atoms: N_15  and  C_16
REMARK    8  A    between atoms: C_16  and  C_17
REMARK    9  A    between atoms: C_21  and  C_23
REMARK   10  A    between atoms: C_23  and  N_24
REMARK   11  A    between atoms: C_33  and  C_37
REMARK   12  A    between atoms: C_34  and  C_36
REMARK                            x       y       z     vdW  Elec       q    Type
REMARK                         _______ _______ _______ _____ _____    ______ ____
ROOT
ATOM      1  N   UNL     1      -4.104  -3.090   6.861  0.00  0.00    -0.194 N 
ENDROOT
BRANCH   1   2
ATOM      2  C   UNL     1      -4.813  -2.584   7.953  0.00  0.00    +0.052 A 
ATOM      3  C   UNL     1      -5.339  -3.451   8.903  0.00  0.00    +0.025 A 
ATOM      4  C   UNL     1      -6.034  -2.947   9.984  0.00  0.00    +0.005 A 
ATOM      5  C   UNL     1      -6.217  -1.582  10.116  0.00  0.00    -0.047 A 
ATOM      6  C   UNL     1      -5.700  -0.718   9.169  0.00  0.00    -0.046 A 
ATOM      7  C   UNL     1      -4.999  -1.215   8.088  0.00  0.00    +0.028 A 
ATOM      8  C   UNL     1      -5.902   0.768   9.316  0.00  0.00    +0.044 C 
ATOM      9  C   UNL     1      -6.982  -1.037  11.295  0.00  0.00    +0.044 C 
ENDBRANCH   1   2
BRANCH   1  10
ATOM     10  S   UNL     1      -4.823  -4.176   5.838  0.00  0.00    +0.075 S 
ATOM     11  O   UNL     1      -6.224  -4.075   6.057  0.00  0.00    -0.150 OA
ATOM     12  O   UNL     1      -4.236  -3.981   4.559  0.00  0.00    -0.150 OA
BRANCH  10  17
ATOM     13  C   UNL     1      -3.190  -9.692   7.659  0.00  0.00    +0.044 C 
ATOM     14  C   UNL     1      -3.598  -8.315   7.204  0.00  0.00    -0.050 A 
ATOM     15  C   UNL     1      -4.800  -7.777   7.622  0.00  0.00    +0.005 A 
ATOM     16  C   UNL     1      -5.175  -6.513   7.205  0.00  0.00    +0.029 A 
ATOM     17  C   UNL     1      -4.346  -5.787   6.370  0.00  0.00    +0.109 A 
ATOM     18  C   UNL     1      -3.146  -6.327   5.947  0.00  0.00    +0.029 A 
ATOM     19  C   UNL     1      -2.769  -7.589   6.368  0.00  0.00    +0.005 A 
ENDBRANCH  10  17
ENDBRANCH   1  10
BRANCH   1  20
ATOM     20  C   UNL     1      -2.725  -2.660   6.619  0.00  0.00    +0.227 C 
BRANCH  20  21
ATOM     21  C   UNL     1      -2.730  -1.373   5.836  0.00  0.00    +0.232 C 
ATOM     22  O   UNL     1      -3.782  -0.865   5.511  0.00  0.00    -0.274 OA
ATOM     23  N   UNL     1      -1.565  -0.786   5.496  0.00  0.00    -0.310 N 
ATOM     24  H   UNL     1      -0.611  -1.246   5.791  0.00  0.00    +0.149 HD
BRANCH  23  25
ATOM     25  C   UNL     1      -1.570   0.466   4.735  0.00  0.00    +0.139 C 
BRANCH  25  26
ATOM     26  C   UNL     1      -0.151   0.908   4.487  0.00  0.00    -0.030 A 
ATOM     27  C   UNL     1       0.484   1.734   5.396  0.00  0.00    +0.005 A 
ATOM     28  C   UNL     1       1.786   2.140   5.168  0.00  0.00    +0.001 A 
ATOM     29  C   UNL     1       2.454   1.716   4.035  0.00  0.00    +0.005 A 
ATOM     30  C   UNL     1       1.817   0.895   3.123  0.00  0.00    -0.030 A 
ATOM     31  C   UNL     1       0.515   0.489   3.350  0.00  0.00    +0.010 A 
BRANCH  30  32
ATOM     32  C   UNL     1       2.543   0.438   1.885  0.00  0.00    +0.142 C 
BRANCH  32  33
ATOM     33  N   UNL     1       2.315   1.397   0.802  0.00  0.00    -0.297 N 
ATOM     34  C   UNL     1       3.166   2.563   0.535  0.00  0.00    +0.108 C 
ATOM     35  C   UNL     1       2.324   3.488  -0.372  0.00  0.00    +0.028 C 
ATOM     36  C   UNL     1       1.364   2.481  -1.047  0.00  0.00    +0.097 C 
ATOM     37  C   UNL     1       1.302   1.320  -0.078  0.00  0.00    +0.216 C 
ATOM     38  O   UNL     1       0.458   0.449  -0.092  0.00  0.00    -0.276 OA
ENDBRANCH  32  33
ENDBRANCH  30  32
ENDBRANCH  25  26
ENDBRANCH  23  25
ENDBRANCH  20  21
ENDBRANCH   1  20
TORSDOF 9
