REMARK  Name = ZINC04765855
REMARK  10 active torsions:
REMARK  status: ('A' for Active; 'I' for Inactive)
REMARK    1  A    between atoms: C_1  and  C_2
REMARK    2  A    between atoms: C_7  and  C_23
REMARK    3  A    between atoms: C_9  and  C_13
REMARK    4  A    between atoms: C_10  and  C_12
REMARK    5  A    between atoms: C_13  and  O_15
REMARK    6  A    between atoms: O_15  and  C_16
REMARK    7  A    between atoms: C_26  and  O_29
REMARK    8  A    between atoms: C_32  and  C_34
REMARK    9  A    between atoms: C_34  and  O_36
REMARK   10  A    between atoms: O_36  and  C_37
REMARK                            x       y       z     vdW  Elec       q    Type
REMARK                         _______ _______ _______ _____ _____    ______ ____
ROOT
ATOM      1  C   UNL     1      -3.117   3.512  -3.462  0.00  0.00    +0.009 C 
ATOM      2  C   UNL     1      -4.238   2.481  -3.611  0.00  0.00    +0.013 C 
ATOM      3  C   UNL     1      -5.149   2.523  -2.382  0.00  0.00    +0.055 C 
ATOM      4  C   UNL     1      -4.354   2.170  -1.150  0.00  0.00    +0.016 C 
ATOM      5  C   UNL     1      -3.301   1.328  -1.218  0.00  0.00    +0.025 C 
ATOM      6  C   UNL     1      -2.513   0.977   0.019  0.00  0.00    +0.092 C 
ATOM      7  C   UNL     1      -3.286   1.312   1.261  0.00  0.00    +0.065 C 
ATOM      8  C   UNL     1      -4.332   2.153   1.227  0.00  0.00    +0.016 C 
ATOM      9  N   UNL     1      -4.726   2.721   0.047  0.00  0.00    -0.321 N 
ATOM     10  C   UNL     1      -5.078   2.472   2.497  0.00  0.00    +0.061 C 
ATOM     11  C   UNL     1      -2.908   0.756  -2.441  0.00  0.00    +0.176 C 
ATOM     12  O   UNL     1      -1.965  -0.010  -2.466  0.00  0.00    -0.291 OA
ATOM     13  C   UNL     1      -3.634   1.077  -3.720  0.00  0.00    +0.171 C 
ATOM     14  H   UNL     1      -5.347   3.628   0.066  0.00  0.00    +0.152 HD
ENDROOT
BRANCH   6  15
ATOM     15  C   UNL     1      -1.220   1.750   0.017  0.00  0.00    -0.035 A 
ATOM     16  C   UNL     1      -0.013   1.076   0.008  0.00  0.00    +0.008 A 
ATOM     17  C   UNL     1       1.175   1.782   0.000  0.00  0.00    +0.046 A 
ATOM     18  C   UNL     1       1.155   3.169   0.008  0.00  0.00    +0.117 A 
ATOM     19  C   UNL     1      -0.057   3.844   0.023  0.00  0.00    +0.046 A 
ATOM     20  C   UNL     1      -1.242   3.133   0.031  0.00  0.00    +0.008 A 
BRANCH  18  21
ATOM     21  O   UNL     1       2.322   3.866   0.000  0.00  0.00    -0.507 OA
ATOM     22  H   UNL     1       2.305   4.966   0.006  0.00  0.00    +0.292 HD
ENDBRANCH  18  21
ENDBRANCH   6  15
BRANCH   7  23
ATOM     23  C   UNL     1      -2.904   0.731   2.493  0.00  0.00    +0.338 C 
ATOM     24  O   UNL     1      -3.523   0.994   3.507  0.00  0.00    -0.245 OA
BRANCH  23  25
ATOM     25  O   UNL     1      -1.855  -0.116   2.543  0.00  0.00    -0.458 OA
BRANCH  25  26
ATOM     26  C   UNL     1      -1.526  -0.666   3.820  0.00  0.00    +0.177 C 
ATOM     27  C   UNL     1      -0.543   0.284   4.535  0.00  0.00    +0.044 C 
ATOM     28  C   UNL     1      -0.596   0.002   6.013  0.00  0.00    +0.004 C 
ATOM     29  C   UNL     1       0.491  -0.994   6.460  0.00  0.00    +0.000 C 
ATOM     30  C   UNL     1       0.669  -2.167   5.476  0.00  0.00    +0.000 C 
ATOM     31  C   UNL     1      -0.645  -2.695   4.968  0.00  0.00    +0.004 C 
ATOM     32  C   UNL     1      -0.969  -1.998   3.631  0.00  0.00    +0.044 C 
ENDBRANCH  25  26
ENDBRANCH  23  25
ENDBRANCH   7  23
BRANCH  13  33
ATOM     33  C   UNL     1      -2.666   1.031  -4.874  0.00  0.00    +0.318 C 
ATOM     34  O   UNL     1      -2.484   2.017  -5.549  0.00  0.00    -0.250 OA
BRANCH  33  35
ATOM     35  O   UNL     1      -2.006  -0.104  -5.153  0.00  0.00    -0.467 OA
ATOM     36  C   UNL     1      -1.090  -0.074  -6.279  0.00  0.00    +0.280 C 
ENDBRANCH  33  35
ENDBRANCH  13  33
TORSDOF 7
