REMARK  Name = ZINC34787537
REMARK  6 active torsions:
REMARK  status: ('A' for Active; 'I' for Inactive)
REMARK    1  A    between atoms: C_6  and  C_7
REMARK    2  A    between atoms: N_16  and  C_17
REMARK    3  A    between atoms: C_17  and  C_18
REMARK    4  A    between atoms: C_27  and  C_29
REMARK    5  A    between atoms: C_29  and  C_30
REMARK    6  A    between atoms: C_30  and  C_31
REMARK                            x       y       z     vdW  Elec       q    Type
REMARK                         _______ _______ _______ _____ _____    ______ ____
ROOT
ATOM      1  C   UNL     1      -0.996  -1.470  -2.261  0.00  0.00    +0.020 C 
ENDROOT
BRANCH   1   2
ATOM      2  C   UNL     1      -0.757  -2.653  -3.163  0.00  0.00    +0.199 C 
ATOM      3  O   UNL     1      -0.742  -3.775  -2.701  0.00  0.00    -0.278 OA
ATOM      4  N   UNL     1      -0.560  -2.466  -4.483  0.00  0.00    -0.301 N 
ATOM      5  C   UNL     1      -0.338  -3.559  -5.363  0.00  0.00    +0.109 C 
ATOM      6  C   UNL     1       1.144  -4.052  -5.428  0.00  0.00    +0.038 C 
ATOM      7  C   UNL     1       2.058  -2.786  -5.355  0.00  0.00    +0.109 C 
ATOM      8  N   UNL     1       1.563  -1.656  -6.060  0.00  0.00    -0.300 N 
ATOM      9  C   UNL     1       0.805  -0.648  -5.274  0.00  0.00    +0.126 C 
ATOM     10  C   UNL     1      -0.572  -1.107  -5.083  0.00  0.00    +0.126 C 
ATOM     11  C   UNL     1       1.771  -1.505  -7.383  0.00  0.00    +0.216 C 
ATOM     12  O   UNL     1       2.394  -2.344  -7.998  0.00  0.00    -0.276 OA
BRANCH  11  13
ATOM     13  C   UNL     1       1.231  -0.293  -8.097  0.00  0.00    +0.096 C 
BRANCH  13  14
ATOM     14  C   UNL     1       1.604  -0.366  -9.579  0.00  0.00    +0.013 C 
BRANCH  14  15
ATOM     15  C   UNL     1       1.055   0.864 -10.304  0.00  0.00    -0.011 C 
ATOM     16  C   UNL     1      -0.486   0.812 -10.340  0.00  0.00    +0.003 C 
ATOM     17  C   UNL     1      -0.854   1.391 -11.729  0.00  0.00    +0.000 C 
ATOM     18  C   UNL     1       0.259   0.818 -12.643  0.00  0.00    +0.000 C 
ATOM     19  C   UNL     1       1.529   0.868 -11.768  0.00  0.00    +0.003 C 
ENDBRANCH  14  15
ENDBRANCH  13  14
ENDBRANCH  11  13
ENDBRANCH   1   2
BRANCH   1  28
ATOM     20  C   UNL     1      -1.293  -0.775   0.011  0.00  0.00    -0.005 C 
ATOM     21  C   UNL     1      -1.587  -1.265   1.425  0.00  0.00    -0.047 A 
ATOM     22  C   UNL     1      -1.377  -0.505   2.573  0.00  0.00    +0.010 A 
ATOM     23  C   UNL     1      -1.664  -1.023   3.790  0.00  0.00    +0.045 A 
ATOM     24  S   UNL     1      -2.263  -2.653   3.365  0.00  0.00    -0.101 S 
ATOM     25  C   UNL     1      -2.087  -2.520   1.609  0.00  0.00    -0.010 A 
ATOM     26  C   UNL     1      -2.399  -3.515   0.541  0.00  0.00    +0.024 C 
ATOM     27  C   UNL     1      -2.388  -2.770  -0.805  0.00  0.00    -0.072 C 
ATOM     28  N   UNL     1      -1.180  -1.936  -0.880  0.00  0.00    +0.393 N 
ATOM     29  H   UNL     1      -0.381  -2.488  -0.607  0.00  0.00    -0.080 HD
BRANCH  20  35
ATOM     30  C   UNL     1      -0.017   1.378   0.010  0.00  0.00    +0.004 A 
ATOM     31  C   UNL     1       1.171   2.086   0.002  0.00  0.00    +0.020 A 
ATOM     32  C   UNL     1       2.378   1.410  -0.013  0.00  0.00    +0.041 A 
ATOM     33  C   UNL     1       2.396   0.027  -0.021  0.00  0.00    +0.020 A 
ATOM     34  C   UNL     1       1.208  -0.679  -0.013  0.00  0.00    +0.004 A 
ATOM     35  C   UNL     1       0.002  -0.004   0.002  0.00  0.00    -0.057 A 
ATOM     36 CL   UNL     1       3.870   2.298  -0.023  0.00  0.00    -0.084 Cl
ENDBRANCH  20  35
ENDBRANCH   1  28
TORSDOF 6
