REMARK  Name = ZINC59489465
REMARK  6 active torsions:
REMARK  status: ('A' for Active; 'I' for Inactive)
REMARK    1  A    between atoms: C_1  and  C_2
REMARK    2  A    between atoms: C_2  and  C_23
REMARK    3  A    between atoms: N_3  and  N_4
REMARK    4  A    between atoms: C_5  and  S_7
REMARK    5  A    between atoms: S_7  and  C_8
REMARK    6  A    between atoms: N_13  and  C_16
REMARK                            x       y       z     vdW  Elec       q    Type
REMARK                         _______ _______ _______ _____ _____    ______ ____
ROOT
ATOM      1  N   UNL     1       0.024   0.035   2.339  0.00  0.00    -0.217 N 
ATOM      2  C   UNL     1       0.044  -0.660   3.528  0.00  0.00    +0.146 C 
ATOM      3  N   UNL     1       0.062  -1.964   3.521  0.00  0.00    -0.380 N 
ATOM      4  H   UNL     1       0.011   1.005   2.345  0.00  0.00    +0.176 HD
ATOM      5  H   UNL     1       0.077  -2.454   4.358  0.00  0.00    +0.158 HD
ATOM      6  H   UNL     1       0.061  -2.445   2.678  0.00  0.00    +0.158 HD
ENDROOT
BRANCH   1   9
ATOM      7  C   UNL     1      -0.018   1.503   0.010  0.00  0.00    +0.068 C 
ATOM      8  C   UNL     1       0.002  -0.004   0.002  0.00  0.00    +0.063 C 
ATOM      9  N   UNL     1       0.022  -0.659   1.122  0.00  0.00    -0.185 NA
BRANCH   8  10
ATOM     10  C   UNL     1      -0.000  -0.735  -1.279  0.00  0.00    -0.002 A 
ATOM     11  C   UNL     1      -0.015  -0.033  -2.487  0.00  0.00    +0.011 A 
ATOM     12  C   UNL     1      -0.017  -0.722  -3.681  0.00  0.00    +0.020 A 
ATOM     13  C   UNL     1      -0.003  -2.106  -3.686  0.00  0.00    +0.041 A 
ATOM     14  C   UNL     1       0.012  -2.808  -2.492  0.00  0.00    +0.020 A 
ATOM     15  C   UNL     1       0.019  -2.131  -1.290  0.00  0.00    +0.011 A 
ATOM     16 CL   UNL     1      -0.006  -2.966  -5.194  0.00  0.00    -0.084 Cl
ENDBRANCH   8  10
ENDBRANCH   1   9
BRANCH   2  17
ATOM     17  S   UNL     1       0.047   0.213   5.059  0.00  0.00    -0.078 S 
BRANCH  17  18
ATOM     18  C   UNL     1       0.077  -1.099   6.311  0.00  0.00    +0.149 C 
ATOM     19  C   UNL     1       0.154  -0.494   7.728  0.00  0.00    +0.120 C 
ATOM     20  C   UNL     1      -1.120  -0.974   8.389  0.00  0.00    +0.228 C 
ATOM     21  O   UNL     1      -1.460  -0.723   9.525  0.00  0.00    -0.275 OA
ATOM     22  N   UNL     1      -1.813  -1.720   7.519  0.00  0.00    -0.207 N 
ATOM     23  C   UNL     1      -1.231  -1.859   6.317  0.00  0.00    +0.240 C 
ATOM     24  O   UNL     1      -1.680  -2.491   5.385  0.00  0.00    -0.274 OA
BRANCH  22  25
ATOM     25  C   UNL     1      -3.045  -2.311   7.838  0.00  0.00    +0.079 A 
ATOM     26  C   UNL     1      -4.227  -1.623   7.602  0.00  0.00    +0.027 A 
ATOM     27  C   UNL     1      -5.439  -2.207   7.917  0.00  0.00    +0.002 A 
ATOM     28  C   UNL     1      -5.476  -3.476   8.466  0.00  0.00    +0.003 A 
ATOM     29  C   UNL     1      -4.301  -4.164   8.703  0.00  0.00    +0.040 A 
ATOM     30  C   UNL     1      -3.084  -3.588   8.385  0.00  0.00    +0.145 A 
ATOM     31  F   UNL     1      -1.936  -4.263   8.611  0.00  0.00    -0.204 F 
ENDBRANCH  22  25
ENDBRANCH  17  18
ENDBRANCH   2  17
TORSDOF 5
