REMARK  Name = ZINC19941498
REMARK  8 active torsions:
REMARK  status: ('A' for Active; 'I' for Inactive)
REMARK    1  A    between atoms: C_1  and  C_2
REMARK    2  A    between atoms: C_7  and  C_15
REMARK    3  A    between atoms: C_13  and  C_14
REMARK    4  A    between atoms: C_15  and  C_17
REMARK    5  A    between atoms: C_15  and  N_27
REMARK    6  A    between atoms: N_21  and  C_22
REMARK    7  A    between atoms: N_30  and  C_33
REMARK    8  A    between atoms: C_36  and  N_39
REMARK                            x       y       z     vdW  Elec       q    Type
REMARK                         _______ _______ _______ _____ _____    ______ ____
ROOT
ATOM      1  C   UNL     1      -1.237   2.190   0.020  0.00  0.00    +0.162 C 
ENDROOT
BRANCH   1   8
ATOM      2  C   UNL     1      -4.159   1.271   7.385  0.00  0.00    +0.044 C 
ATOM      3  C   UNL     1      -3.437   1.300   6.062  0.00  0.00    -0.046 A 
ATOM      4  C   UNL     1      -2.272   0.563   5.899  0.00  0.00    +0.004 A 
ATOM      5  C   UNL     1      -1.602   0.575   4.709  0.00  0.00    +0.010 A 
ATOM      6  C   UNL     1      -2.094   1.337   3.644  0.00  0.00    -0.001 A 
ATOM      7  C   UNL     1      -1.401   1.373   2.355  0.00  0.00    +0.021 A 
ATOM      8  C   UNL     1      -1.925   2.130   1.359  0.00  0.00    +0.042 A 
ATOM      9  C   UNL     1      -3.109   2.867   1.575  0.00  0.00    +0.254 A 
ATOM     10  O   UNL     1      -3.560   3.545   0.667  0.00  0.00    -0.268 OA
ATOM     11  N   UNL     1      -3.756   2.836   2.753  0.00  0.00    -0.322 N 
ATOM     12  H   UNL     1      -4.681   3.414   2.888  0.00  0.00    +0.169 HD
ATOM     13  C   UNL     1      -3.275   2.086   3.805  0.00  0.00    +0.052 A 
ATOM     14  C   UNL     1      -3.941   2.057   5.027  0.00  0.00    -0.024 A 
ATOM     15  C   UNL     1      -5.207   2.852   5.217  0.00  0.00    +0.046 C 
ENDBRANCH   1   8
BRANCH   1  16
ATOM     16  N   UNL     1      -2.152   1.708  -1.023  0.00  0.00    -0.286 NA
ATOM     17  C   UNL     1      -2.642   0.358  -0.712  0.00  0.00    +0.104 C 
ATOM     18  C   UNL     1      -3.651  -0.074  -1.778  0.00  0.00    +0.120 C 
ATOM     19  N   UNL     1      -3.008  -0.042  -3.099  0.00  0.00    -0.327 N 
ATOM     20  C   UNL     1      -2.519   1.308  -3.410  0.00  0.00    +0.120 C 
ATOM     21  C   UNL     1      -1.509   1.741  -2.344  0.00  0.00    +0.104 C 
BRANCH  19  22
ATOM     22  C   UNL     1      -3.879  -0.500  -4.091  0.00  0.00    +0.030 A 
ATOM     23  C   UNL     1      -4.176   0.306  -5.182  0.00  0.00    +0.025 A 
ATOM     24  C   UNL     1      -5.032  -0.152  -6.164  0.00  0.00    +0.034 A 
ATOM     25  C   UNL     1      -5.603  -1.407  -6.055  0.00  0.00    +0.126 A 
ATOM     26  C   UNL     1      -5.314  -2.209  -4.967  0.00  0.00    +0.034 A 
ATOM     27  C   UNL     1      -4.454  -1.760  -3.985  0.00  0.00    +0.025 A 
BRANCH  25  28
ATOM     28  N   UNL     1      -6.525  -1.892  -7.106  0.00  0.00    +0.056 N 
ATOM     29  O   UNL     1      -7.028  -2.997  -7.012  0.00  0.00    -0.126 OA
ATOM     30  O   UNL     1      -6.781  -1.186  -8.066  0.00  0.00    -0.126 OA
ENDBRANCH  25  28
ENDBRANCH  19  22
ENDBRANCH   1  16
BRANCH   1  31
ATOM     31  C   UNL     1      -0.006   1.320   0.049  0.00  0.00    +0.173 A 
ATOM     32  N   UNL     1       0.028   0.011   0.003  0.00  0.00    -0.111 NA
ATOM     33  N   UNL     1       1.262  -0.357   0.044  0.00  0.00    -0.023 NA
ATOM     34  N   UNL     1       2.016   0.684   0.116  0.00  0.00    -0.044 NA
ATOM     35  N   UNL     1       1.271   1.738   0.120  0.00  0.00    -0.224 N 
BRANCH  35  36
ATOM     36  C   UNL     1       1.730   3.127   0.191  0.00  0.00    +0.111 C 
ATOM     37  C   UNL     1       2.680   3.430  -0.986  0.00  0.00    +0.027 C 
ATOM     38  C   UNL     1       3.752   4.369  -0.376  0.00  0.00    +0.002 C 
ATOM     39  C   UNL     1       3.955   3.781   1.042  0.00  0.00    +0.002 C 
ATOM     40  C   UNL     1       2.540   3.351   1.480  0.00  0.00    +0.027 C 
ENDBRANCH  35  36
ENDBRANCH   1  31
TORSDOF 6
