REMARK  Name = ZINC25425317
REMARK  8 active torsions:
REMARK  status: ('A' for Active; 'I' for Inactive)
REMARK    1  A    between atoms: C_1  and  C_2
REMARK    2  A    between atoms: C_2  and  N_3
REMARK    3  A    between atoms: C_7  and  C_9
REMARK    4  A    between atoms: C_9  and  C_11
REMARK    5  A    between atoms: C_9  and  N_12
REMARK    6  A    between atoms: N_12  and  C_13
REMARK    7  A    between atoms: N_25  and  C_26
REMARK    8  A    between atoms: C_26  and  C_27
REMARK                            x       y       z     vdW  Elec       q    Type
REMARK                         _______ _______ _______ _____ _____    ______ ____
ROOT
ATOM      1  C   UNL     1       3.406  -6.239   4.585  0.00  0.00    +0.028 A 
ATOM      2  C   UNL     1       4.388  -5.532   5.276  0.00  0.00    +0.025 A 
ATOM      3  C   UNL     1       5.386  -6.200   5.951  0.00  0.00    +0.028 A 
ATOM      4  C   UNL     1       5.421  -7.591   5.947  0.00  0.00    +0.050 A 
ATOM      5  C   UNL     1       4.434  -8.305   5.252  0.00  0.00    +0.009 A 
ATOM      6  C   UNL     1       3.424  -7.623   4.577  0.00  0.00    +0.033 A 
ATOM      7  C   UNL     1       4.744  -9.735   5.436  0.00  0.00    +0.008 A 
ATOM      8  C   UNL     1       4.140 -10.910   4.995  0.00  0.00    +0.010 A 
ATOM      9  C   UNL     1       4.680 -12.129   5.342  0.00  0.00    +0.001 A 
ATOM     10  C   UNL     1       5.821 -12.190   6.127  0.00  0.00    +0.002 A 
ATOM     11  C   UNL     1       6.429 -11.035   6.570  0.00  0.00    +0.026 A 
ATOM     12  C   UNL     1       5.898  -9.794   6.230  0.00  0.00    +0.050 A 
ATOM     13  N   UNL     1       6.291  -8.502   6.527  0.00  0.00    -0.340 N 
ENDROOT
BRANCH   1  14
ATOM     14  N   UNL     1       2.397  -5.549   3.903  0.00  0.00    -0.333 N 
ATOM     15  H   UNL     1       1.711  -6.040   3.425  0.00  0.00    +0.147 HD
BRANCH  14  16
ATOM     16  C   UNL     1       2.378  -4.084   3.911  0.00  0.00    +0.154 C 
ATOM     17  C   UNL     1       1.661  -3.590   5.170  0.00  0.00    +0.038 C 
BRANCH  16  22
ATOM     18  N   UNL     1       0.711  -0.489   1.189  0.00  0.00    -0.299 N 
ATOM     19  C   UNL     1       0.854  -1.814   1.394  0.00  0.00    +0.306 C 
ATOM     20  O   UNL     1       0.395  -2.606   0.594  0.00  0.00    -0.252 OA
ATOM     21  N   UNL     1       1.506  -2.260   2.486  0.00  0.00    -0.239 N 
ATOM     22  C   UNL     1       1.649  -3.585   2.690  0.00  0.00    +0.240 C 
ATOM     23  O   UNL     1       1.191  -4.374   1.893  0.00  0.00    -0.273 OA
ATOM     24  H   UNL     1       1.077   0.142   1.827  0.00  0.00    +0.150 HD
ATOM     25  H   UNL     1       1.872  -1.628   3.124  0.00  0.00    +0.159 HD
BRANCH  18  27
ATOM     26  C   UNL     1      -0.019   1.526   0.010  0.00  0.00    +0.024 C 
ATOM     27  C   UNL     1       0.002  -0.004   0.002  0.00  0.00    +0.102 C 
ENDBRANCH  18  27
ENDBRANCH  16  22
ENDBRANCH  14  16
ENDBRANCH   1  14
BRANCH  13  28
ATOM     28  C   UNL     1       7.457  -8.146   7.339  0.00  0.00    +0.119 C 
ATOM     29  C   UNL     1       7.045  -8.047   8.809  0.00  0.00    +0.027 C 
ENDBRANCH  13  28
TORSDOF 5
