REMARK  Name = ZINC06149462
REMARK  14 active torsions:
REMARK  status: ('A' for Active; 'I' for Inactive)
REMARK    1  A    between atoms: C_1  and  C_2
REMARK    2  A    between atoms: C_2  and  C_3
REMARK    3  A    between atoms: C_3  and  C_4
REMARK    4  A    between atoms: C_3  and  C_5
REMARK    5  A    between atoms: C_3  and  N_6
REMARK    6  A    between atoms: C_7  and  C_11
REMARK    7  A    between atoms: C_11  and  C_13
REMARK    8  A    between atoms: C_11  and  N_70
REMARK    9  A    between atoms: C_17  and  O_25
REMARK   10  A    between atoms: O_25  and  C_26
REMARK   11  A    between atoms: C_27  and  C_28
REMARK   12  A    between atoms: C_27  and  N_70
REMARK   13  A    between atoms: C_35  and  C_36
REMARK   14  A    between atoms: C_35  and  N_70
REMARK                            x       y       z     vdW  Elec       q    Type
REMARK                         _______ _______ _______ _____ _____    ______ ____
ROOT
ATOM      1  C   UNL     1      -1.151  -0.316  -0.474  0.00  0.00    +0.040 C 
ENDROOT
BRANCH   1   2
ATOM      2  C   UNL     1      -0.362   0.927  -0.797  0.00  0.00    +0.011 A 
ATOM      3  C   UNL     1       0.944   0.827  -1.147  0.00  0.00    +0.017 A 
ATOM      4  C   UNL     1       1.682   2.053  -1.453  0.00  0.00    +0.002 A 
ATOM      5  C   UNL     1       3.031   2.011  -1.821  0.00  0.00    +0.055 A 
ATOM      6  C   UNL     1       3.698   3.186  -2.104  0.00  0.00    +0.121 A 
ATOM      7  C   UNL     1       3.033   4.408  -2.025  0.00  0.00    +0.047 A 
ATOM      8  C   UNL     1       1.705   4.462  -1.664  0.00  0.00    +0.030 A 
ATOM      9  C   UNL     1       1.015   3.290  -1.375  0.00  0.00    +0.049 A 
ATOM     10  N   UNL     1      -0.317   3.324  -1.013  0.00  0.00    -0.322 N 
ATOM     11  H   UNL     1      -0.790   4.202  -0.958  0.00  0.00    +0.169 HD
ATOM     12  C   UNL     1      -0.986   2.192  -0.733  0.00  0.00    +0.251 A 
ATOM     13  O   UNL     1      -2.163   2.259  -0.421  0.00  0.00    -0.268 OA
BRANCH   6  14
ATOM     14  O   UNL     1       5.009   3.151  -2.461  0.00  0.00    -0.495 OA
ATOM     15  C   UNL     1       5.639   4.403  -2.741  0.00  0.00    +0.277 C 
ENDBRANCH   6  14
ENDBRANCH   1   2
BRANCH   1  17
ATOM     16  N   UNL     1      -1.116  -1.058   1.966  0.00  0.00    -0.225 N 
ATOM     17  C   UNL     1      -1.579  -0.279   0.971  0.00  0.00    +0.143 A 
ATOM     18  N   UNL     1      -2.469   0.522   1.503  0.00  0.00    -0.115 NA
ATOM     19  N   UNL     1      -2.555   0.244   2.758  0.00  0.00    -0.023 NA
ATOM     20  N   UNL     1      -1.736  -0.708   3.042  0.00  0.00    -0.043 NA
BRANCH  16  21
ATOM     21  C   UNL     1      -0.099  -2.106   1.849  0.00  0.00    +0.061 C 
ATOM     22  C   UNL     1      -0.609  -3.212   0.924  0.00  0.00    +0.036 C 
ATOM     23  C   UNL     1       1.185  -1.508   1.270  0.00  0.00    +0.036 C 
BRANCH  21  25
ATOM     24  C   UNL     1       1.253  -3.786   3.111  0.00  0.00    +0.006 C 
ATOM     25  C   UNL     1       0.191  -2.691   3.233  0.00  0.00    +0.026 C 
ENDBRANCH  21  25
ENDBRANCH  16  21
ENDBRANCH   1  17
BRANCH   1  26
ATOM     26  N   UNL     1      -2.357  -0.358  -1.327  0.00  0.00    +0.397 N 
ATOM     27  H   UNL     1      -2.994   0.395  -1.041  0.00  0.00    -0.079 HD
BRANCH  26  28
ATOM     28  C   UNL     1      -1.982  -0.158  -2.743  0.00  0.00    -0.041 C 
BRANCH  28  29
ATOM     29  C   UNL     1      -3.222   0.185  -3.528  0.00  0.00    -0.064 A 
ATOM     30  C   UNL     1      -3.943  -0.815  -4.152  0.00  0.00    +0.004 A 
ATOM     31  C   UNL     1      -5.083  -0.503  -4.868  0.00  0.00    +0.038 A 
ATOM     32  C   UNL     1      -5.497   0.815  -4.969  0.00  0.00    +0.123 A 
ATOM     33  C   UNL     1      -4.771   1.817  -4.348  0.00  0.00    +0.038 A 
ATOM     34  C   UNL     1      -3.634   1.501  -3.628  0.00  0.00    +0.004 A 
ATOM     35  F   UNL     1      -6.609   1.122  -5.673  0.00  0.00    -0.205 F 
ENDBRANCH  28  29
ENDBRANCH  26  28
BRANCH  26  36
ATOM     36  C   UNL     1      -3.045  -1.656  -1.165  0.00  0.00    -0.001 C 
BRANCH  36  37
ATOM     37  C   UNL     1      -3.842  -1.624   0.113  0.00  0.00    +0.089 A 
ATOM     38  C   UNL     1      -5.065  -1.085   0.265  0.00  0.00    +0.042 A 
ATOM     39  C   UNL     1      -5.432  -1.276   1.617  0.00  0.00    +0.041 A 
ATOM     40  C   UNL     1      -4.412  -1.921   2.210  0.00  0.00    +0.195 A 
ATOM     41  O   UNL     1      -3.454  -2.134   1.294  0.00  0.00    -0.470 OA
ENDBRANCH  36  37
ENDBRANCH  26  36
ENDBRANCH   1  26
TORSDOF 10
