REMARK  Name = ZINC10994944
REMARK  7 active torsions:
REMARK  status: ('A' for Active; 'I' for Inactive)
REMARK    1  A    between atoms: C_1  and  C_2
REMARK    2  A    between atoms: C_4  and  C_31
REMARK    3  A    between atoms: C_6  and  C_8
REMARK    4  A    between atoms: C_11  and  S_13
REMARK    5  A    between atoms: S_13  and  C_14
REMARK    6  A    between atoms: C_14  and  C_15
REMARK    7  A    between atoms: C_19  and  C_28
REMARK                            x       y       z     vdW  Elec       q    Type
REMARK                         _______ _______ _______ _____ _____    ______ ____
ROOT
ATOM      1  C   UNL     1       0.105  -5.048   8.357  0.00  0.00    +0.230 C 
ATOM      2  O   UNL     1       0.165  -4.024   9.004  0.00  0.00    -0.274 OA
ATOM      3  N   UNL     1       0.026  -6.238   8.984  0.00  0.00    -0.264 N 
ATOM      4  C   UNL     1       0.051  -7.502   8.227  0.00  0.00    +0.168 C 
ATOM      5  C   UNL     1      -1.003  -8.432   8.844  0.00  0.00    +0.276 C 
ATOM      6  O   UNL     1      -0.694  -8.625  10.227  0.00  0.00    -0.476 OA
ATOM      7  C   UNL     1      -0.447  -7.521  10.980  0.00  0.00    +0.143 A 
ATOM      8  C   UNL     1      -0.077  -6.317  10.383  0.00  0.00    +0.078 A 
ATOM      9  C   UNL     1       0.183  -5.202  11.163  0.00  0.00    +0.027 A 
ATOM     10  C   UNL     1       0.077  -5.284  12.540  0.00  0.00    +0.002 A 
ATOM     11  C   UNL     1      -0.286  -6.477  13.136  0.00  0.00    +0.004 A 
ATOM     12  C   UNL     1      -0.557  -7.594  12.361  0.00  0.00    +0.047 A 
ENDROOT
BRANCH   5  13
ATOM     13  C   UNL     1      -0.985  -9.759   8.130  0.00  0.00    +0.253 C 
ATOM     14  O   UNL     1      -0.654 -10.764   8.725  0.00  0.00    -0.272 OA
ATOM     15  N   UNL     1      -1.335  -9.830   6.831  0.00  0.00    -0.326 N 
ATOM     16  H   UNL     1      -1.600  -9.027   6.356  0.00  0.00    +0.145 HD
ATOM     17  H   UNL     1      -1.324 -10.684   6.372  0.00  0.00    +0.145 HD
ENDBRANCH   5  13
BRANCH   1  18
ATOM     18  C   UNL     1       0.118  -4.989   6.851  0.00  0.00    +0.175 C 
BRANCH  18  19
ATOM     19  S   UNL     1       0.082  -3.257   6.313  0.00  0.00    -0.056 S 
BRANCH  19  23
ATOM     20  C   UNL     1       0.109  -2.850   2.455  0.00  0.00    +0.249 A 
ATOM     21  N   UNL     1       0.139  -4.154   2.587  0.00  0.00    -0.106 NA
ATOM     22  N   UNL     1       0.134  -4.457   3.838  0.00  0.00    -0.101 NA
ATOM     23  C   UNL     1       0.101  -3.356   4.554  0.00  0.00    +0.278 A 
ATOM     24  O   UNL     1       0.090  -2.317   3.697  0.00  0.00    -0.411 OA
BRANCH  20  30
ATOM     25  C   UNL     1       0.042   1.496   0.004  0.00  0.00    +0.044 C 
ATOM     26  C   UNL     1       0.071  -0.011  -0.003  0.00  0.00    -0.049 A 
ATOM     27  C   UNL     1       0.093  -0.696  -1.205  0.00  0.00    +0.006 A 
ATOM     28  C   UNL     1       0.121  -2.079  -1.220  0.00  0.00    -0.049 A 
ATOM     29  C   UNL     1       0.126  -2.785  -0.035  0.00  0.00    +0.016 A 
ATOM     30  C   UNL     1       0.104  -2.100   1.181  0.00  0.00    +0.039 A 
ATOM     31  C   UNL     1       0.082  -0.705   1.190  0.00  0.00    +0.016 A 
ATOM     32  C   UNL     1       0.145  -2.816  -2.535  0.00  0.00    +0.044 C 
ENDBRANCH  20  30
ENDBRANCH  19  23
ENDBRANCH  18  19
ENDBRANCH   1  18
TORSDOF 5
