REMARK  Name = ZINC45235795
REMARK  11 active torsions:
REMARK  status: ('A' for Active; 'I' for Inactive)
REMARK    1  A    between atoms: C_1  and  C_2
REMARK    2  A    between atoms: C_4  and  C_11
REMARK    3  A    between atoms: C_7  and  N_8
REMARK    4  A    between atoms: N_13  and  C_14
REMARK    5  A    between atoms: C_14  and  C_15
REMARK    6  A    between atoms: C_15  and  O_17
REMARK    7  A    between atoms: O_17  and  C_18
REMARK    8  A    between atoms: C_18  and  C_19
REMARK    9  A    between atoms: N_21  and  C_22
REMARK   10  A    between atoms: C_22  and  C_24
REMARK   11  A    between atoms: C_22  and  C_25
REMARK                            x       y       z     vdW  Elec       q    Type
REMARK                         _______ _______ _______ _____ _____    ______ ____
ROOT
ATOM      1  C   UNL     1       0.308  -6.322  -3.553  0.00  0.00    +0.325 C 
ATOM      2  O   UNL     1       0.609  -6.705  -2.448  0.00  0.00    -0.249 OA
ENDROOT
BRANCH   1   3
ATOM      3  C   UNL     1      -0.034  -4.872  -3.780  0.00  0.00    +0.225 C 
BRANCH   3   6
ATOM      4  C   UNL     1      -0.188  -2.819  -2.476  0.00  0.00    +0.245 C 
ATOM      5  O   UNL     1      -0.512  -2.233  -3.490  0.00  0.00    -0.270 OA
ATOM      6  N   UNL     1       0.073  -4.141  -2.515  0.00  0.00    -0.301 N 
ATOM      7  H   UNL     1       0.332  -4.608  -1.705  0.00  0.00    +0.150 HD
BRANCH   4  11
ATOM      8  C   UNL     1      -0.538   1.447   0.089  0.00  0.00    +0.046 C 
ATOM      9  C   UNL     1      -0.247  -0.031   0.040  0.00  0.00    -0.020 A 
ATOM     10  C   UNL     1      -0.349  -0.713  -1.155  0.00  0.00    +0.018 A 
ATOM     11  C   UNL     1      -0.080  -2.082  -1.199  0.00  0.00    +0.037 A 
ATOM     12  C   UNL     1       0.292  -2.751  -0.032  0.00  0.00    +0.015 A 
ATOM     13  C   UNL     1       0.391  -2.057   1.156  0.00  0.00    +0.034 A 
ATOM     14  C   UNL     1       0.127  -0.699   1.192  0.00  0.00    +0.129 A 
BRANCH  14  15
ATOM     15  N   UNL     1       0.241   0.040   2.469  0.00  0.00    +0.057 N 
ATOM     16  O   UNL     1       0.675   1.169   2.477  0.00  0.00    -0.126 OA
ATOM     17  O   UNL     1      -0.100  -0.484   3.503  0.00  0.00    -0.126 OA
ENDBRANCH  14  15
ENDBRANCH   4  11
ENDBRANCH   3   6
ENDBRANCH   1   3
BRANCH   1  18
ATOM     18  O   UNL     1       0.277  -7.187  -4.579  0.00  0.00    -0.454 OA
BRANCH  18  19
ATOM     19  C   UNL     1       0.611  -8.546  -4.291  0.00  0.00    +0.327 C 
BRANCH  19  20
ATOM     20  C   UNL     1       0.522  -9.364  -5.554  0.00  0.00    +0.251 C 
ATOM     21  O   UNL     1       0.204  -8.834  -6.598  0.00  0.00    -0.272 OA
ATOM     22  N   UNL     1       0.797 -10.683  -5.524  0.00  0.00    -0.306 N 
ATOM     23  H   UNL     1       1.052 -11.106  -4.689  0.00  0.00    +0.149 HD
BRANCH  22  24
ATOM     24  C   UNL     1       0.711 -11.477  -6.751  0.00  0.00    +0.102 C 
ATOM     25  C   UNL     1      -0.735 -11.932  -6.964  0.00  0.00    +0.033 C 
BRANCH  24  26
ATOM     26  C   UNL     1       1.605 -12.684  -6.633  0.00  0.00    -0.009 A 
ATOM     27  C   UNL     1       1.923 -13.189  -5.386  0.00  0.00    +0.008 A 
ATOM     28  C   UNL     1       2.743 -14.296  -5.276  0.00  0.00    +0.020 A 
ATOM     29  C   UNL     1       3.246 -14.900  -6.415  0.00  0.00    +0.042 A 
ATOM     30  C   UNL     1       2.928 -14.396  -7.663  0.00  0.00    +0.040 A 
ATOM     31  C   UNL     1       2.103 -13.291  -7.772  0.00  0.00    +0.047 A 
ATOM     32 CL   UNL     1       1.698 -12.661  -9.338  0.00  0.00    -0.083 Cl
ATOM     33 CL   UNL     1       4.277 -16.290  -6.277  0.00  0.00    -0.083 Cl
ENDBRANCH  24  26
ENDBRANCH  22  24
ENDBRANCH  19  20
ENDBRANCH  18  19
ENDBRANCH   1  18
TORSDOF 9
