REMARK  Name = ZINC36025895
REMARK  8 active torsions:
REMARK  status: ('A' for Active; 'I' for Inactive)
REMARK    1  A    between atoms: C_1  and  C_2
REMARK    2  A    between atoms: C_5  and  N_9
REMARK    3  A    between atoms: C_6  and  C_8
REMARK    4  A    between atoms: C_14  and  N_19
REMARK    5  A    between atoms: C_16  and  C_18
REMARK    6  A    between atoms: N_19  and  C_20
REMARK    7  A    between atoms: C_23  and  N_26
REMARK    8  A    between atoms: C_27  and  C_29
REMARK                            x       y       z     vdW  Elec       q    Type
REMARK                         _______ _______ _______ _____ _____    ______ ____
ROOT
ATOM      1  N   UNL     1       0.448  -4.130   0.216  0.00  0.00    -0.214 N 
ATOM      2  C   UNL     1       0.585  -5.005  -0.823  0.00  0.00    +0.168 A 
ATOM      3  C   UNL     1       0.782  -6.278  -0.251  0.00  0.00    +0.079 A 
ATOM      4  C   UNL     1       0.756  -6.110   1.151  0.00  0.00    +0.148 A 
ATOM      5  N   UNL     1       0.566  -4.848   1.413  0.00  0.00    -0.172 NA
ATOM      6  C   UNL     1       0.954  -7.377  -1.114  0.00  0.00    +0.133 A 
ATOM      7  N   UNL     1       0.921  -7.162  -2.425  0.00  0.00    -0.217 NA
ATOM      8  C   UNL     1       0.733  -5.950  -2.915  0.00  0.00    +0.130 A 
ATOM      9  N   UNL     1       0.569  -4.893  -2.149  0.00  0.00    -0.213 NA
ATOM     10  C   UNL     1       0.706  -5.770  -4.411  0.00  0.00    +0.088 C 
ENDROOT
BRANCH   1  15
ATOM     11  C   UNL     1      -0.421   1.460  -0.236  0.00  0.00    +0.044 C 
ATOM     12  C   UNL     1      -0.190  -0.025  -0.116  0.00  0.00    -0.050 A 
ATOM     13  C   UNL     1       0.794  -0.633  -0.873  0.00  0.00    +0.005 A 
ATOM     14  C   UNL     1       1.008  -1.993  -0.765  0.00  0.00    +0.028 A 
ATOM     15  C   UNL     1       0.234  -2.750   0.105  0.00  0.00    +0.071 A 
ATOM     16  C   UNL     1      -0.754  -2.136   0.863  0.00  0.00    -0.025 A 
ATOM     17  C   UNL     1      -0.959  -0.774   0.755  0.00  0.00    +0.008 A 
ATOM     18  C   UNL     1      -1.597  -2.953   1.808  0.00  0.00    +0.046 C 
ENDBRANCH   1  15
BRANCH   6  19
ATOM     19  N   UNL     1       1.152  -8.648  -0.610  0.00  0.00    -0.326 N 
ATOM     20  H   UNL     1       1.174  -8.791   0.349  0.00  0.00    +0.148 HD
BRANCH  19  21
ATOM     21  C   UNL     1       1.328  -9.779  -1.524  0.00  0.00    +0.072 C 
ATOM     22  C   UNL     1      -0.043 -10.316  -1.941  0.00  0.00    +0.024 C 
ATOM     23  C   UNL     1       0.141 -11.498  -2.896  0.00  0.00    +0.024 C 
ATOM     24  C   UNL     1       0.930 -12.604  -2.192  0.00  0.00    +0.073 C 
ATOM     25  C   UNL     1       2.301 -12.066  -1.776  0.00  0.00    +0.024 C 
ATOM     26  C   UNL     1       2.117 -10.885  -0.821  0.00  0.00    +0.024 C 
BRANCH  24  27
ATOM     27  N   UNL     1       1.107 -13.735  -3.107  0.00  0.00    -0.312 N 
ATOM     28  C   UNL     1       1.300 -14.975  -2.615  0.00  0.00    +0.216 C 
ATOM     29  O   UNL     1       1.327 -15.154  -1.416  0.00  0.00    -0.276 OA
ATOM     30  H   UNL     1       1.085 -13.591  -4.066  0.00  0.00    +0.149 HD
BRANCH  28  31
ATOM     31  C   UNL     1       1.481 -16.138  -3.555  0.00  0.00    +0.075 C 
ATOM     32  C   UNL     1       0.365 -17.183  -3.610  0.00  0.00    +0.013 C 
ATOM     33  C   UNL     1       1.696 -17.521  -2.936  0.00  0.00    +0.013 C 
ENDBRANCH  28  31
ENDBRANCH  24  27
ENDBRANCH  19  21
ENDBRANCH   6  19
TORSDOF 5
