REMARK  Name = ZINC05217224
REMARK  9 active torsions:
REMARK  status: ('A' for Active; 'I' for Inactive)
REMARK    1  A    between atoms: C_1  and  S_2
REMARK    2  A    between atoms: S_2  and  C_3
REMARK    3  A    between atoms: N_10  and  C1*_15
REMARK    4  A    between atoms: C_11  and  S_13
REMARK    5  A    between atoms: S_13  and  C_14
REMARK    6  A    between atoms: C2*_17  and  O2*_27
REMARK    7  A    between atoms: C3*_19  and  O3*_26
REMARK    8  A    between atoms: C4*_21  and  C5*_24
REMARK    9  A    between atoms: C5*_24  and  O5*_25
REMARK                            x       y       z     vdW  Elec       q    Type
REMARK                         _______ _______ _______ _____ _____    ______ ____
ROOT
ATOM      1  C   UNL     1       3.974   6.731  -0.472  0.00  0.00    +0.129 A 
ATOM      2  C   UNL     1       2.870   5.864  -0.409  0.00  0.00    +0.141 A 
ATOM      3  C   UNL     1       2.952   4.741   0.427  0.00  0.00    +0.169 A 
ATOM      4  N   UNL     1       4.063   4.535   1.127  0.00  0.00    -0.195 NA
ATOM      5  C   UNL     1       5.081   5.376   1.040  0.00  0.00    +0.216 A 
ATOM      6  N   UNL     1       5.046   6.449   0.262  0.00  0.00    -0.206 NA
ATOM      7  N   UNL     1       6.223   5.126   1.786  0.00  0.00    -0.327 N 
ATOM      8  N   UNL     1       1.753   4.078   0.299  0.00  0.00    -0.274 N 
ATOM      9  C   UNL     1       0.988   4.784  -0.591  0.00  0.00    +0.173 A 
ATOM     10  N   UNL     1       1.647   5.839  -1.001  0.00  0.00    -0.217 NA
ATOM     11  H   UNL     1       6.266   4.346   2.360  0.00  0.00    +0.145 HD
ATOM     12  H   UNL     1       6.978   5.732   1.734  0.00  0.00    +0.145 HD
ENDROOT
BRANCH   8  13
ATOM     13  C1* UNL     1       1.369   2.841   0.983  0.00  0.00    +0.254 C 
ATOM     14  C2* UNL     1       1.426   1.658  -0.003  0.00  0.00    +0.195 C 
ATOM     15  C3* UNL     1      -0.013   1.086   0.008  0.00  0.00    +0.178 C 
ATOM     16  C4* UNL     1      -0.566   1.624   1.352  0.00  0.00    +0.177 C 
ATOM     17  O4* UNL     1       0.014   2.942   1.451  0.00  0.00    -0.346 OA
BRANCH  15  18
ATOM     18  O3* UNL     1      -0.770   1.589  -1.094  0.00  0.00    -0.386 OA
ATOM     19  H3* UNL     1      -1.691   1.295  -1.106  0.00  0.00    +0.210 HD
ENDBRANCH  15  18
BRANCH  14  20
ATOM     20  O2* UNL     1       2.358   0.674   0.450  0.00  0.00    -0.385 OA
ATOM     21  H2* UNL     1       2.393  -0.119  -0.102  0.00  0.00    +0.210 HD
ENDBRANCH  14  20
BRANCH  16  22
ATOM     22  C5* UNL     1      -2.093   1.709   1.310  0.00  0.00    +0.190 C 
BRANCH  22  23
ATOM     23  O5* UNL     1      -2.584   2.096   2.595  0.00  0.00    -0.392 OA
ATOM     24  H5* UNL     1      -3.547   2.170   2.643  0.00  0.00    +0.210 HD
ENDBRANCH  22  23
ENDBRANCH  16  22
ENDBRANCH   8  13
BRANCH   1  26
ATOM     25  C   UNL     1       5.583   8.835  -1.160  0.00  0.00    +0.091 C 
ATOM     26  S   UNL     1       3.939   8.160  -1.502  0.00  0.00    -0.107 S 
ENDBRANCH   1  26
BRANCH   9  27
ATOM     27  S   UNL     1      -0.639   4.343  -1.102  0.00  0.00    -0.091 S 
ATOM     28  C   UNL     1      -0.989   5.702  -2.245  0.00  0.00    +0.093 C 
ENDBRANCH   9  27
TORSDOF 7
