REMARK  Name = ZINC05371037
REMARK  2 active torsions:
REMARK  status: ('A' for Active; 'I' for Inactive)
REMARK    1  A    between atoms: C_5  and  C_7
REMARK    2  A    between atoms: N_13  and  C_14
REMARK                            x       y       z     vdW  Elec       q    Type
REMARK                         _______ _______ _______ _____ _____    ______ ____
ROOT
ATOM      1  C   UNL     1       1.212  -2.138   1.104  0.00  0.00    +0.031 C 
ATOM      2  C   UNL     1       0.065  -2.850   0.976  0.00  0.00    +0.078 C 
ATOM      3  C   UNL     1      -1.336  -2.401   1.105  0.00  0.00    +0.256 C 
ATOM      4  O   UNL     1      -1.612  -1.244   1.360  0.00  0.00    -0.269 OA
ATOM      5  N   UNL     1      -2.276  -3.314   0.929  0.00  0.00    -0.260 N 
ATOM      6  C   UNL     1      -1.943  -4.620   0.641  0.00  0.00    +0.166 C 
ATOM      7  N   UNL     1      -2.744  -5.641   0.439  0.00  0.00    -0.224 NA
ATOM      8  S   UNL     1      -0.158  -4.583   0.600  0.00  0.00    -0.049 S 
ATOM      9  H   UNL     1      -3.210  -3.062   1.005  0.00  0.00    +0.157 HD
ENDROOT
BRANCH   1  14
ATOM     10  C   UNL     1       0.249   0.937   3.019  0.00  0.00    +0.001 A 
ATOM     11  C   UNL     1       1.073   1.886   2.437  0.00  0.00    +0.003 A 
ATOM     12  C   UNL     1       1.942   1.530   1.421  0.00  0.00    +0.039 A 
ATOM     13  C   UNL     1       1.995   0.221   0.980  0.00  0.00    +0.131 A 
ATOM     14  C   UNL     1       1.164  -0.744   1.566  0.00  0.00    +0.011 A 
ATOM     15  C   UNL     1       0.288  -0.372   2.592  0.00  0.00    +0.011 A 
ATOM     16  F   UNL     1       2.844  -0.126  -0.012  0.00  0.00    -0.205 F 
ENDBRANCH   1  14
BRANCH   7  17
ATOM     17  C   UNL     1      -4.098  -5.450   0.387  0.00  0.00    +0.085 A 
ATOM     18  C   UNL     1      -4.636  -4.470  -0.450  0.00  0.00    +0.029 A 
ATOM     19  C   UNL     1      -6.002  -4.282  -0.497  0.00  0.00    +0.002 A 
ATOM     20  C   UNL     1      -6.839  -5.061   0.282  0.00  0.00    +0.002 A 
ATOM     21  C   UNL     1      -6.313  -6.034   1.114  0.00  0.00    +0.022 A 
ATOM     22  C   UNL     1      -4.949  -6.238   1.167  0.00  0.00    +0.066 A 
ATOM     23 CL   UNL     1      -4.291  -7.464   2.205  0.00  0.00    -0.081 Cl
ENDBRANCH   7  17
TORSDOF 2
