REMARK  Name = ZINC03271414
REMARK  9 active torsions:
REMARK  status: ('A' for Active; 'I' for Inactive)
REMARK    1  A    between atoms: C_6  and  C_7
REMARK    2  A    between atoms: C_7  and  N_8
REMARK    3  A    between atoms: C_9  and  C_11
REMARK    4  A    between atoms: C_11  and  O_12
REMARK    5  A    between atoms: O_12  and  C_13
REMARK    6  A    between atoms: C_13  and  C_15
REMARK    7  A    between atoms: C_18  and  N_21
REMARK    8  A    between atoms: N_21  and  S_22
REMARK    9  A    between atoms: S_22  and  C_25
REMARK                            x       y       z     vdW  Elec       q    Type
REMARK                         _______ _______ _______ _____ _____    ______ ____
ROOT
ATOM      1  C   UNL     1       4.924   1.950  -4.269  0.00  0.00    +0.059 A 
ATOM      2  C   UNL     1       5.661   0.765  -4.360  0.00  0.00    +0.017 A 
ATOM      3  C   UNL     1       5.432  -0.254  -3.471  0.00  0.00    +0.025 A 
ATOM      4  C   UNL     1       4.466  -0.109  -2.478  0.00  0.00    +0.048 A 
ATOM      5  C   UNL     1       3.727   1.067  -2.388  0.00  0.00    +0.025 A 
ATOM      6  C   UNL     1       3.955   2.092  -3.271  0.00  0.00    +0.017 A 
ENDROOT
BRANCH   1   7
ATOM      7  C   UNL     1       5.168   3.046  -5.223  0.00  0.00    +0.340 C 
ATOM      8  O   UNL     1       6.011   2.922  -6.090  0.00  0.00    -0.245 OA
BRANCH   7   9
ATOM      9  O   UNL     1       4.457   4.188  -5.134  0.00  0.00    -0.452 OA
BRANCH   9  10
ATOM     10  C   UNL     1       4.750   5.225  -6.106  0.00  0.00    +0.328 C 
BRANCH  10  12
ATOM     11  N   UNL     1       3.960   7.508  -6.638  0.00  0.00    -0.308 N 
ATOM     12  C   UNL     1       3.864   6.417  -5.852  0.00  0.00    +0.251 C 
ATOM     13  O   UNL     1       3.063   6.394  -4.941  0.00  0.00    -0.272 OA
ATOM     14  H   UNL     1       4.601   7.526  -7.366  0.00  0.00    +0.149 HD
BRANCH  11  15
ATOM     15  C   UNL     1       3.099   8.667  -6.391  0.00  0.00    +0.139 C 
BRANCH  15  21
ATOM     16  C   UNL     1       4.365  10.698  -7.123  0.00  0.00    +0.006 A 
ATOM     17  C   UNL     1       4.649  11.682  -8.051  0.00  0.00    +0.020 A 
ATOM     18  C   UNL     1       3.962  11.719  -9.252  0.00  0.00    +0.041 A 
ATOM     19  C   UNL     1       2.996  10.767  -9.526  0.00  0.00    +0.020 A 
ATOM     20  C   UNL     1       2.717   9.780  -8.600  0.00  0.00    +0.006 A 
ATOM     21  C   UNL     1       3.403   9.744  -7.400  0.00  0.00    -0.030 A 
ATOM     22 CL   UNL     1       4.314  12.959 -10.415  0.00  0.00    -0.084 Cl
ENDBRANCH  15  21
ENDBRANCH  11  15
ENDBRANCH  10  12
ENDBRANCH   9  10
ENDBRANCH   7   9
ENDBRANCH   1   7
BRANCH   4  23
ATOM     23  N   UNL     1       4.236  -1.143  -1.579  0.00  0.00    -0.216 N 
ATOM     24  H   UNL     1       3.437  -1.687  -1.659  0.00  0.00    +0.174 HD
BRANCH  23  25
ATOM     25  S   UNL     1       5.327  -1.448  -0.370  0.00  0.00    +0.072 S 
ATOM     26  O   UNL     1       6.604  -1.532  -0.988  0.00  0.00    -0.150 OA
ATOM     27  O   UNL     1       4.785  -2.506   0.408  0.00  0.00    -0.150 OA
BRANCH  25  28
ATOM     28  C   UNL     1       5.363  -0.025   0.669  0.00  0.00    +0.112 A 
ATOM     29  C   UNL     1       4.431   0.115   1.680  0.00  0.00    +0.032 A 
ATOM     30  C   UNL     1       4.455   1.229   2.496  0.00  0.00    +0.051 A 
ATOM     31  C   UNL     1       5.415   2.211   2.303  0.00  0.00    +0.162 A 
ATOM     32  C   UNL     1       6.354   2.070   1.288  0.00  0.00    +0.164 A 
ATOM     33  C   UNL     1       6.324   0.949   0.472  0.00  0.00    +0.078 A 
ATOM     34  O   UNL     1       7.310   3.017   1.086  0.00  0.00    -0.485 OA
ATOM     35  C   UNL     1       7.080   4.300   1.680  0.00  0.00    +0.270 C 
ATOM     36  C   UNL     1       6.625   4.084   3.129  0.00  0.00    +0.270 C 
ATOM     37  O   UNL     1       5.421   3.308   3.109  0.00  0.00    -0.485 OA
ENDBRANCH  25  28
ENDBRANCH  23  25
ENDBRANCH   4  23
TORSDOF 9
