REMARK  Name = ZINC22890996
REMARK  7 active torsions:
REMARK  status: ('A' for Active; 'I' for Inactive)
REMARK    1  A    between atoms: C_1  and  C_2
REMARK    2  A    between atoms: C_5  and  S_9
REMARK    3  A    between atoms: C_7  and  C_8
REMARK    4  A    between atoms: S_9  and  C_12
REMARK    5  A    between atoms: C_12  and  C_17
REMARK    6  A    between atoms: N_19  and  C_20
REMARK    7  A    between atoms: C_29  and  C_32
REMARK                            x       y       z     vdW  Elec       q    Type
REMARK                         _______ _______ _______ _____ _____    ______ ____
ROOT
ATOM      1  C   UNL     1      -2.580  -0.230   0.444  0.00  0.00    +0.245 C 
ATOM      2  O   UNL     1      -2.495   0.344   1.509  0.00  0.00    -0.273 OA
ATOM      3  N   UNL     1      -1.688   0.025  -0.533  0.00  0.00    -0.284 N 
ATOM      4  H   UNL     1      -1.823  -0.417  -1.531  0.00  0.00    +0.155 HD
ENDROOT
BRANCH   3   5
ATOM      5  C   UNL     1      -0.588   0.855  -0.277  0.00  0.00    +0.035 A 
ATOM      6  C   UNL     1      -0.721   1.938   0.581  0.00  0.00    +0.027 A 
ATOM      7  C   UNL     1       0.363   2.756   0.842  0.00  0.00    +0.049 A 
ATOM      8  C   UNL     1       1.583   2.499   0.241  0.00  0.00    +0.143 A 
ATOM      9  C   UNL     1       1.718   1.415  -0.626  0.00  0.00    +0.077 A 
ATOM     10  C   UNL     1       0.632   0.596  -0.886  0.00  0.00    +0.050 A 
ATOM     11  N   UNL     1       2.960   1.169  -1.228  0.00  0.00    -0.279 N 
ATOM     12  C   UNL     1       4.061   1.772  -0.727  0.00  0.00    +0.258 C 
ATOM     13  O   UNL     1       5.141   1.597  -1.250  0.00  0.00    -0.271 OA
ATOM     14  C   UNL     1       3.941   2.662   0.483  0.00  0.00    +0.256 C 
ATOM     15  O   UNL     1       2.659   3.294   0.489  0.00  0.00    -0.478 OA
ATOM     16  C   UNL     1       4.100   1.821   1.752  0.00  0.00    +0.062 C 
ATOM     17  H   UNL     1       3.028   0.494  -2.093  0.00  0.00    +0.155 HD
ENDBRANCH   3   5
BRANCH   1  18
ATOM     18  C   UNL     1      -3.684  -1.230   0.213  0.00  0.00    +0.168 C 
ATOM     19  C   UNL     1      -4.503  -1.442   1.511  0.00  0.00    +0.039 C 
ATOM     20  C   UNL     1      -3.624  -2.435   2.312  0.00  0.00    +0.003 C 
ATOM     21  C   UNL     1      -3.057  -3.389   1.240  0.00  0.00    +0.003 C 
ATOM     22  C   UNL     1      -3.096  -2.623  -0.095  0.00  0.00    +0.039 C 
BRANCH  18  23
ATOM     23  S   UNL     1      -4.762  -0.683  -1.139  0.00  0.00    +0.011 S 
ATOM     24  O   UNL     1      -5.379   0.552  -0.804  0.00  0.00    -0.168 OA
ATOM     25  O   UNL     1      -4.103  -0.849  -2.388  0.00  0.00    -0.168 OA
BRANCH  23  30
ATOM     26  C   UNL     1      -9.277  -4.684  -1.240  0.00  0.00    +0.044 C 
ATOM     27  C   UNL     1      -8.150  -3.684  -1.215  0.00  0.00    -0.047 A 
ATOM     28  C   UNL     1      -7.040  -3.874  -2.017  0.00  0.00    +0.005 A 
ATOM     29  C   UNL     1      -6.008  -2.955  -1.998  0.00  0.00    +0.027 A 
ATOM     30  C   UNL     1      -6.080  -1.851  -1.169  0.00  0.00    +0.090 A 
ATOM     31  C   UNL     1      -7.190  -1.661  -0.367  0.00  0.00    +0.030 A 
ATOM     32  C   UNL     1      -8.225  -2.578  -0.390  0.00  0.00    -0.046 A 
ATOM     33  C   UNL     1      -9.435  -2.370   0.484  0.00  0.00    +0.044 C 
ENDBRANCH  23  30
ENDBRANCH  18  23
ENDBRANCH   1  18
TORSDOF 4
