REMARK  Name = ZINC12959234
REMARK  5 active torsions:
REMARK  status: ('A' for Active; 'I' for Inactive)
REMARK    1  A    between atoms: C_5  and  N_7
REMARK    2  A    between atoms: C_11  and  C_12
REMARK    3  A    between atoms: C_14  and  N_26
REMARK    4  A    between atoms: C_17  and  S_18
REMARK    5  A    between atoms: S_18  and  C_19
REMARK                            x       y       z     vdW  Elec       q    Type
REMARK                         _______ _______ _______ _____ _____    ______ ____
ROOT
ATOM      1  C   UNL     1      -0.827  -2.333  -0.093  0.00  0.00    -0.008 A 
ATOM      2  C   UNL     1       0.469  -2.862  -0.106  0.00  0.00    +0.041 A 
ATOM      3  C   UNL     1       0.654  -4.223  -0.216  0.00  0.00    +0.127 A 
ATOM      4  C   UNL     1      -0.436  -5.073  -0.314  0.00  0.00    +0.034 A 
ATOM      5  C   UNL     1      -1.721  -4.569  -0.303  0.00  0.00    +0.018 A 
ATOM      6  C   UNL     1      -1.931  -3.201  -0.187  0.00  0.00    +0.020 A 
ENDROOT
BRANCH   1  11
ATOM      7  N   UNL     1       1.337   0.725  -2.291  0.00  0.00    -0.222 N 
ATOM      8  C   UNL     1       0.723  -0.316  -1.756  0.00  0.00    +0.263 C 
ATOM      9  O   UNL     1       0.957  -1.453  -2.121  0.00  0.00    -0.269 OA
ATOM     10  C   UNL     1      -0.261  -0.030  -0.695  0.00  0.00    +0.078 C 
ATOM     11  C   UNL     1      -1.033  -0.886   0.024  0.00  0.00    +0.029 C 
ATOM     12  S   UNL     1      -0.159   1.753  -0.615  0.00  0.00    -0.061 S 
ATOM     13  C   UNL     1       1.075   1.984  -1.884  0.00  0.00    +0.125 C 
ATOM     14  S   UNL     1       1.759   3.449  -2.448  0.00  0.00    -0.027 S 
BRANCH   7  19
ATOM     15  C   UNL     1       2.820   0.292  -5.631  0.00  0.00    +0.002 A 
ATOM     16  C   UNL     1       4.151   0.103  -5.305  0.00  0.00    +0.002 A 
ATOM     17  C   UNL     1       4.551   0.119  -3.981  0.00  0.00    +0.022 A 
ATOM     18  C   UNL     1       3.622   0.331  -2.980  0.00  0.00    +0.063 A 
ATOM     19  C   UNL     1       2.283   0.516  -3.304  0.00  0.00    +0.061 A 
ATOM     20  C   UNL     1       1.886   0.499  -4.635  0.00  0.00    +0.025 A 
ATOM     21 CL   UNL     1       4.125   0.359  -1.319  0.00  0.00    -0.082 Cl
ENDBRANCH   7  19
ENDBRANCH   1  11
BRANCH   3  22
ATOM     22  N   UNL     1       2.026  -4.780  -0.230  0.00  0.00    +0.056 N 
ATOM     23  O   UNL     1       2.986  -4.036  -0.144  0.00  0.00    -0.126 OA
ATOM     24  O   UNL     1       2.193  -5.982  -0.327  0.00  0.00    -0.126 OA
ENDBRANCH   3  22
BRANCH   6  25
ATOM     25  S   UNL     1      -3.570  -2.555  -0.164  0.00  0.00    -0.089 S 
BRANCH  25  26
ATOM     26  C   UNL     1      -4.593  -3.990  -0.149  0.00  0.00    +0.013 A 
ATOM     27  C   UNL     1      -5.102  -4.495  -1.339  0.00  0.00    +0.016 A 
ATOM     28  C   UNL     1      -5.899  -5.623  -1.324  0.00  0.00    +0.021 A 
ATOM     29  C   UNL     1      -6.200  -6.243  -0.124  0.00  0.00    +0.041 A 
ATOM     30  C   UNL     1      -5.700  -5.738   1.064  0.00  0.00    +0.021 A 
ATOM     31  C   UNL     1      -4.898  -4.614   1.055  0.00  0.00    +0.016 A 
ATOM     32 CL   UNL     1      -7.208  -7.656  -0.109  0.00  0.00    -0.084 Cl
ENDBRANCH  25  26
ENDBRANCH   6  25
TORSDOF 5
