REMARK  Name = ZINC10321722
REMARK  12 active torsions:
REMARK  status: ('A' for Active; 'I' for Inactive)
REMARK    1  A    between atoms: C_1  and  C_2
REMARK    2  A    between atoms: C_2  and  C_4
REMARK    3  A    between atoms: C_2  and  N_22
REMARK    4  A    between atoms: N_6  and  C_7
REMARK    5  A    between atoms: C_10  and  C_13
REMARK    6  A    between atoms: C_23  and  C_25
REMARK    7  A    between atoms: C_27  and  O_35
REMARK    8  A    between atoms: C_28  and  O_33
REMARK    9  A    between atoms: C_29  and  O_31
REMARK   10  A    between atoms: O_31  and  C_32
REMARK   11  A    between atoms: O_33  and  C_34
REMARK   12  A    between atoms: O_35  and  C_36
REMARK                            x       y       z     vdW  Elec       q    Type
REMARK                         _______ _______ _______ _____ _____    ______ ____
ROOT
ATOM      1  C   UNL     1      -0.027   1.206   0.177  0.00  0.00    +0.237 C 
ATOM      2  O   UNL     1      -0.029   0.002   0.327  0.00  0.00    -0.273 OA
ATOM      3  N   UNL     1      -1.191   1.867   0.018  0.00  0.00    -0.284 N 
ATOM      4  H   UNL     1      -1.196   2.836  -0.025  0.00  0.00    +0.155 HD
ENDROOT
BRANCH   3   5
ATOM      5  C   UNL     1      -2.391   1.155  -0.086  0.00  0.00    +0.033 A 
ATOM      6  C   UNL     1      -2.408  -0.089  -0.705  0.00  0.00    +0.024 A 
ATOM      7  C   UNL     1      -3.589  -0.794  -0.804  0.00  0.00    +0.012 A 
ATOM      8  C   UNL     1      -4.768  -0.253  -0.292  0.00  0.00    +0.002 A 
ATOM      9  C   UNL     1      -4.748   0.998   0.324  0.00  0.00    +0.012 A 
ATOM     10  C   UNL     1      -3.564   1.697   0.425  0.00  0.00    +0.024 A 
BRANCH   8  11
ATOM     11  C   UNL     1      -6.041  -1.007  -0.402  0.00  0.00    +0.090 A 
ATOM     12  C   UNL     1      -6.195  -2.233  -0.977  0.00  0.00    +0.121 A 
ATOM     13  N   UNL     1      -7.516  -2.564  -0.868  0.00  0.00    -0.306 N 
ATOM     14  C   UNL     1      -8.226  -3.661  -1.264  0.00  0.00    +0.093 A 
ATOM     15  C   UNL     1      -9.552  -3.744  -1.029  0.00  0.00    +0.018 A 
ATOM     16  C   UNL     1     -10.222  -2.700  -0.371  0.00  0.00    +0.005 A 
ATOM     17  C   UNL     1      -9.528  -1.600   0.028  0.00  0.00    +0.047 A 
ATOM     18  C   UNL     1      -8.143  -1.528  -0.224  0.00  0.00    +0.138 A 
ATOM     19  N   UNL     1      -7.237  -0.602   0.052  0.00  0.00    -0.228 NA
ENDBRANCH   8  11
ENDBRANCH   3   5
BRANCH   1  21
ATOM     20  C   UNL     1       1.283   2.988   1.298  0.00  0.00    +0.038 C 
ATOM     21  C   UNL     1       1.277   1.961   0.164  0.00  0.00    +0.156 C 
BRANCH  21  22
ATOM     22  N   UNL     1       2.387   1.023   0.349  0.00  0.00    -0.300 N 
ATOM     23  C   UNL     1       3.615   1.333  -0.112  0.00  0.00    +0.245 C 
ATOM     24  O   UNL     1       3.802   2.390  -0.681  0.00  0.00    -0.270 OA
ATOM     25  H   UNL     1       2.238   0.179   0.803  0.00  0.00    +0.150 HD
BRANCH  23  26
ATOM     26  C   UNL     1       4.733   0.387   0.074  0.00  0.00    +0.044 A 
ATOM     27  C   UNL     1       4.521  -0.826   0.733  0.00  0.00    +0.062 A 
ATOM     28  C   UNL     1       5.569  -1.712   0.902  0.00  0.00    +0.166 A 
ATOM     29  C   UNL     1       6.837  -1.391   0.425  0.00  0.00    +0.204 A 
ATOM     30  C   UNL     1       7.052  -0.180  -0.227  0.00  0.00    +0.166 A 
ATOM     31  C   UNL     1       6.007   0.707  -0.403  0.00  0.00    +0.062 A 
BRANCH  30  32
ATOM     32  O   UNL     1       8.292   0.131  -0.692  0.00  0.00    -0.491 OA
ATOM     33  C   UNL     1       8.441   1.390  -1.351  0.00  0.00    +0.277 C 
ENDBRANCH  30  32
BRANCH  29  34
ATOM     34  O   UNL     1       7.867  -2.260   0.598  0.00  0.00    -0.488 OA
ATOM     35  C   UNL     1       8.638  -2.125   1.794  0.00  0.00    +0.277 C 
ENDBRANCH  29  34
BRANCH  28  36
ATOM     36  O   UNL     1       5.362  -2.896   1.538  0.00  0.00    -0.491 OA
ATOM     37  C   UNL     1       4.036  -3.161   2.001  0.00  0.00    +0.277 C 
ENDBRANCH  28  36
ENDBRANCH  23  26
ENDBRANCH  21  22
ENDBRANCH   1  21
TORSDOF 8
