REMARK  Name = ZINC48289781
REMARK  9 active torsions:
REMARK  status: ('A' for Active; 'I' for Inactive)
REMARK    1  A    between atoms: C_4  and  C_7
REMARK    2  A    between atoms: C_7  and  C_8
REMARK    3  A    between atoms: C_8  and  C_9
REMARK    4  A    between atoms: N_14  and  C_15
REMARK    5  A    between atoms: C_15  and  C_16
REMARK    6  A    between atoms: N_18  and  C_19
REMARK    7  A    between atoms: N_18  and  C_23
REMARK    8  A    between atoms: C_19  and  C_20
REMARK    9  A    between atoms: C_20  and  C_21
REMARK                            x       y       z     vdW  Elec       q    Type
REMARK                         _______ _______ _______ _____ _____    ______ ____
ROOT
ATOM      1  C   UNL     1       7.143  -1.520  -0.373  0.00  0.00    +0.019 C 
ENDROOT
BRANCH   1   6
ATOM      2  C   UNL     1       5.507  -1.710   1.381  0.00  0.00    -0.068 C 
ATOM      3  C   UNL     1       5.939  -2.046   2.824  0.00  0.00    -0.017 C 
ATOM      4  C   UNL     1       7.475  -1.828   2.788  0.00  0.00    -0.020 C 
ATOM      5  C   UNL     1       7.598  -0.623   1.822  0.00  0.00    -0.078 C 
ATOM      6  N   UNL     1       6.553  -0.853   0.796  0.00  0.00    +0.387 N 
ATOM      7  H   UNL     1       6.152   0.030   0.515  0.00  0.00    -0.081 HD
BRANCH   2   8
ATOM      8  C   UNL     1       4.171  -0.963   1.399  0.00  0.00    -0.011 C 
BRANCH   8   9
ATOM      9  C   UNL     1       3.711  -0.707  -0.038  0.00  0.00    +0.033 C 
BRANCH   9  13
ATOM     10  C   UNL     1      -0.017   1.378   0.010  0.00  0.00    +0.000 A 
ATOM     11  C   UNL     1       1.171   2.086   0.002  0.00  0.00    +0.000 A 
ATOM     12  C   UNL     1       2.377   1.411  -0.013  0.00  0.00    +0.003 A 
ATOM     13  C   UNL     1       2.396   0.029  -0.020  0.00  0.00    -0.047 A 
ATOM     14  C   UNL     1       1.208  -0.679  -0.012  0.00  0.00    +0.003 A 
ATOM     15  C   UNL     1       0.002  -0.004   0.002  0.00  0.00    +0.000 A 
ENDBRANCH   9  13
ENDBRANCH   8   9
ENDBRANCH   2   8
ENDBRANCH   1   6
BRANCH   1  16
ATOM     16  C   UNL     1       8.124  -0.590  -1.040  0.00  0.00    +0.203 C 
ATOM     17  O   UNL     1       8.313   0.518  -0.587  0.00  0.00    -0.277 OA
ATOM     18  N   UNL     1       8.790  -0.991  -2.141  0.00  0.00    -0.269 N 
BRANCH  18  19
ATOM     19  C   UNL     1       9.702  -0.128  -2.761  0.00  0.00    +0.072 A 
ATOM     20  C   UNL     1      11.037  -0.137  -2.381  0.00  0.00    +0.026 A 
ATOM     21  C   UNL     1      11.934   0.716  -2.994  0.00  0.00    +0.002 A 
ATOM     22  C   UNL     1      11.505   1.579  -3.986  0.00  0.00    +0.003 A 
ATOM     23  C   UNL     1      10.176   1.592  -4.368  0.00  0.00    +0.040 A 
ATOM     24  C   UNL     1       9.273   0.737  -3.762  0.00  0.00    +0.145 A 
ATOM     25  F   UNL     1       7.976   0.745  -4.138  0.00  0.00    -0.204 F 
ENDBRANCH  18  19
BRANCH  18  26
ATOM     26  C   UNL     1       8.561  -2.330  -2.688  0.00  0.00    +0.128 C 
BRANCH  26  27
ATOM     27  C   UNL     1       7.423  -2.276  -3.710  0.00  0.00    +0.138 C 
BRANCH  27  28
ATOM     28  C   UNL     1       7.193  -3.621  -4.260  0.00  0.00    +0.064 C 
ATOM     29  N   UNL     1       7.015  -4.660  -4.685  0.00  0.00    -0.197 NA
ENDBRANCH  27  28
ENDBRANCH  26  27
ENDBRANCH  18  26
ENDBRANCH   1  16
TORSDOF 9
