REMARK  Name = ZINC21201051
REMARK  10 active torsions:
REMARK  status: ('A' for Active; 'I' for Inactive)
REMARK    1  A    between atoms: C_1  and  N_2
REMARK    2  A    between atoms: N_2  and  C_3
REMARK    3  A    between atoms: N_2  and  C_4
REMARK    4  A    between atoms: C_4  and  C_11
REMARK    5  A    between atoms: C_11  and  N_12
REMARK    6  A    between atoms: C_13  and  C_15
REMARK    7  A    between atoms: C_15  and  C_16
REMARK    8  A    between atoms: C_16  and  N_17
REMARK    9  A    between atoms: N_17  and  S_18
REMARK   10  A    between atoms: S_18  and  C_21
REMARK                            x       y       z     vdW  Elec       q    Type
REMARK                         _______ _______ _______ _____ _____    ______ ____
ROOT
ATOM      1  N   UNL     1       3.590   1.769   1.003  0.00  0.00    -0.317 N 
ATOM      2  C   UNL     1       4.538   1.158   1.741  0.00  0.00    +0.214 C 
ATOM      3  O   UNL     1       4.341   0.046   2.182  0.00  0.00    -0.276 OA
ATOM      4  H   UNL     1       3.769   2.777   0.603  0.00  0.00    +0.149 HD
ENDROOT
BRANCH   1   5
ATOM      5  C   UNL     1       2.321   1.089   0.734  0.00  0.00    +0.092 C 
BRANCH   5   6
ATOM      6  C   UNL     1       1.475   1.943  -0.212  0.00  0.00    -0.050 C 
ATOM      7  C   UNL     1       1.029   3.181   0.518  0.00  0.00    -0.010 C 
ATOM      8  C   UNL     1       0.975   2.868   2.027  0.00  0.00    -0.001 C 
ATOM      9  C   UNL     1      -0.237   2.154   2.402  0.00  0.00    -0.000 C 
ATOM     10  C   UNL     1      -0.350   0.781   1.708  0.00  0.00    -0.000 C 
ATOM     11  C   UNL     1      -0.853   0.995   0.306  0.00  0.00    -0.001 C 
ATOM     12  C   UNL     1       0.290   1.100  -0.721  0.00  0.00    -0.010 C 
BRANCH   6  14
ATOM     13  C   UNL     1       2.724   1.166  -2.135  0.00  0.00    -0.096 C 
ATOM     14  N   UNL     1       2.303   2.340  -1.358  0.00  0.00    +0.381 N 
ATOM     15  C   UNL     1       1.597   3.307  -2.209  0.00  0.00    -0.096 C 
ATOM     16  H   UNL     1       3.208   2.829  -0.969  0.00  0.00    -0.082 HD
ENDBRANCH   6  14
ENDBRANCH   5   6
ENDBRANCH   1   5
BRANCH   2  17
ATOM     17  C   UNL     1       5.844   1.858   2.018  0.00  0.00    +0.112 C 
BRANCH  17  18
ATOM     18  C   UNL     1       6.737   0.953   2.870  0.00  0.00    +0.115 C 
BRANCH  18  19
ATOM     19  N   UNL     1       8.006   1.633   3.139  0.00  0.00    -0.189 NA
ATOM     20  H   UNL     1       8.370   2.411   2.452  0.00  0.00    +0.148 HD
BRANCH  19  21
ATOM     21  S   UNL     1       9.011   1.070   4.328  0.00  0.00    +0.058 S 
ATOM     22  O   UNL     1      10.155   1.913   4.326  0.00  0.00    -0.153 OA
ATOM     23  O   UNL     1       8.207   0.880   5.484  0.00  0.00    -0.153 OA
BRANCH  21  24
ATOM     24  C   UNL     1       9.563  -0.528   3.830  0.00  0.00    +0.105 A 
ATOM     25  C   UNL     1       8.845  -1.652   4.196  0.00  0.00    +0.030 A 
ATOM     26  C   UNL     1       9.274  -2.905   3.801  0.00  0.00    +0.022 A 
ATOM     27  C   UNL     1      10.428  -3.035   3.049  0.00  0.00    +0.041 A 
ATOM     28  C   UNL     1      11.148  -1.911   2.687  0.00  0.00    +0.022 A 
ATOM     29  C   UNL     1      10.715  -0.658   3.078  0.00  0.00    +0.030 A 
ATOM     30 CL   UNL     1      10.970  -4.609   2.558  0.00  0.00    -0.084 Cl
ENDBRANCH  21  24
ENDBRANCH  19  21
ENDBRANCH  18  19
ENDBRANCH  17  18
ENDBRANCH   2  17
TORSDOF 8
