REMARK  Name = ZINC64921541
REMARK  7 active torsions:
REMARK  status: ('A' for Active; 'I' for Inactive)
REMARK    1  A    between atoms: C_1  and  C_2
REMARK    2  A    between atoms: C_2  and  C_3
REMARK    3  A    between atoms: C_6  and  N_9
REMARK    4  A    between atoms: C_10  and  C_12
REMARK    5  A    between atoms: N_15  and  S_18
REMARK    6  A    between atoms: S_18  and  C_21
REMARK    7  A    between atoms: C_30  and  C_33
REMARK                            x       y       z     vdW  Elec       q    Type
REMARK                         _______ _______ _______ _____ _____    ______ ____
ROOT
ATOM      1  C   UNL     1      -7.446  -2.518  -1.097  0.00  0.00    +0.078 C 
ATOM      2  C   UNL     1      -7.576  -3.888  -0.427  0.00  0.00    +0.030 C 
ATOM      3  C   UNL     1      -9.053  -4.290  -0.379  0.00  0.00    +0.110 C 
ATOM      4  N   UNL     1      -9.605  -4.229  -1.739  0.00  0.00    -0.177 NA
ATOM      5  C   UNL     1      -9.454  -2.986  -2.507  0.00  0.00    +0.110 C 
ATOM      6  C   UNL     1      -7.972  -2.598  -2.532  0.00  0.00    +0.030 C 
ENDROOT
BRANCH   1   8
ATOM      7  N   UNL     1      -5.320  -1.968   0.042  0.00  0.00    -0.285 N 
ATOM      8  C   UNL     1      -5.997  -2.104  -1.115  0.00  0.00    +0.220 C 
ATOM      9  O   UNL     1      -5.440  -1.894  -2.172  0.00  0.00    -0.275 OA
ATOM     10  H   UNL     1      -5.742  -2.209   0.882  0.00  0.00    +0.155 HD
BRANCH   7  14
ATOM     11  C   UNL     1      -1.418  -0.508   0.015  0.00  0.00    -0.048 A 
ATOM     12  C   UNL     1      -2.333  -0.051  -0.916  0.00  0.00    +0.005 A 
ATOM     13  C   UNL     1      -3.627  -0.533  -0.910  0.00  0.00    +0.023 A 
ATOM     14  C   UNL     1      -4.010  -1.478   0.033  0.00  0.00    +0.033 A 
ATOM     15  C   UNL     1      -3.089  -1.935   0.967  0.00  0.00    +0.023 A 
ATOM     16  C   UNL     1      -1.795  -1.452   0.952  0.00  0.00    +0.005 A 
BRANCH  11  18
ATOM     17  C   UNL     1       0.859  -0.854  -0.904  0.00  0.00    +0.009 C 
ATOM     18  C   UNL     1      -0.007   0.021   0.005  0.00  0.00    +0.032 C 
ENDBRANCH  11  18
ENDBRANCH   7  14
ENDBRANCH   1   8
BRANCH   4  19
ATOM     19  S   UNL     1     -10.382  -5.536  -2.395  0.00  0.00    +0.061 S 
ATOM     20  O   UNL     1     -10.291  -5.397  -3.806  0.00  0.00    -0.153 OA
ATOM     21  O   UNL     1      -9.896  -6.683  -1.709  0.00  0.00    -0.153 OA
BRANCH  19  22
ATOM     22  C   UNL     1     -12.088  -5.389  -1.983  0.00  0.00    +0.107 A 
ATOM     23  C   UNL     1     -12.565  -5.945  -0.810  0.00  0.00    +0.032 A 
ATOM     24  C   UNL     1     -13.903  -5.832  -0.479  0.00  0.00    +0.049 A 
ATOM     25  C   UNL     1     -14.769  -5.161  -1.325  0.00  0.00    +0.143 A 
ATOM     26  C   UNL     1     -14.288  -4.602  -2.508  0.00  0.00    +0.078 A 
ATOM     27  C   UNL     1     -12.946  -4.712  -2.831  0.00  0.00    +0.055 A 
ATOM     28  N   UNL     1     -15.177  -3.927  -3.357  0.00  0.00    -0.279 N 
ATOM     29  C   UNL     1     -16.386  -3.558  -2.881  0.00  0.00    +0.258 C 
ATOM     30  O   UNL     1     -17.182  -3.001  -3.606  0.00  0.00    -0.271 OA
ATOM     31  C   UNL     1     -16.741  -3.843  -1.444  0.00  0.00    +0.256 C 
ATOM     32  O   UNL     1     -16.087  -5.040  -1.015  0.00  0.00    -0.478 OA
ATOM     33  C   UNL     1     -16.290  -2.674  -0.566  0.00  0.00    +0.062 C 
ATOM     34  H   UNL     1     -14.927  -3.727  -4.273  0.00  0.00    +0.155 HD
ENDBRANCH  19  22
ENDBRANCH   4  19
TORSDOF 5
