REMARK  Name = ZINC50930232
REMARK  5 active torsions:
REMARK  status: ('A' for Active; 'I' for Inactive)
REMARK    1  A    between atoms: C_4  and  N_8
REMARK    2  A    between atoms: C_5  and  N_7
REMARK    3  A    between atoms: C_14  and  C_17
REMARK    4  A    between atoms: C_17  and  C_18
REMARK    5  A    between atoms: C_18  and  C_19
REMARK                            x       y       z     vdW  Elec       q    Type
REMARK                         _______ _______ _______ _____ _____    ______ ____
ROOT
ATOM      1  N   UNL     1       3.635  -0.641  -0.045  0.00  0.00    -0.268 N 
ATOM      2  C   UNL     1       4.786   0.051  -0.147  0.00  0.00    +0.306 C 
ATOM      3  O   UNL     1       4.768   1.267  -0.133  0.00  0.00    -0.252 OA
ATOM      4  N   UNL     1       5.958  -0.604  -0.264  0.00  0.00    -0.285 N 
ATOM      5  C   UNL     1       5.988  -2.068  -0.390  0.00  0.00    +0.109 C 
ATOM      6  C   UNL     1       6.919  -2.636   0.686  0.00  0.00    +0.022 C 
ATOM      7  C   UNL     1       8.291  -1.967   0.574  0.00  0.00    -0.008 C 
ATOM      8  C   UNL     1       8.147  -0.462   0.806  0.00  0.00    +0.022 C 
ATOM      9  C   UNL     1       7.230   0.132  -0.274  0.00  0.00    +0.109 C 
ATOM     10  H   UNL     1       3.652  -1.611  -0.021  0.00  0.00    +0.156 HD
ENDROOT
BRANCH   1  14
ATOM     11  C   UNL     1      -0.006   1.388   0.168  0.00  0.00    +0.002 A 
ATOM     12  C   UNL     1       1.167   2.031   0.515  0.00  0.00    +0.002 A 
ATOM     13  C   UNL     1       2.375   1.361   0.446  0.00  0.00    +0.025 A 
ATOM     14  C   UNL     1       2.411   0.040   0.027  0.00  0.00    +0.055 A 
ATOM     15  C   UNL     1       1.228  -0.609  -0.324  0.00  0.00    +0.046 A 
ATOM     16  C   UNL     1       0.021   0.071  -0.251  0.00  0.00    +0.024 A 
BRANCH  15  17
ATOM     17  N   UNL     1       1.258  -1.942  -0.747  0.00  0.00    -0.357 N 
ATOM     18  H   UNL     1       2.103  -2.416  -0.798  0.00  0.00    +0.142 HD
ATOM     19  H   UNL     1       0.434  -2.393  -0.991  0.00  0.00    +0.142 HD
ENDBRANCH  15  17
ENDBRANCH   1  14
BRANCH   7  20
ATOM     20  C   UNL     1       9.233  -2.557   1.624  0.00  0.00    +0.015 C 
BRANCH  20  21
ATOM     21  C   UNL     1      10.637  -1.980   1.432  0.00  0.00    +0.125 C 
BRANCH  21  22
ATOM     22  C   UNL     1      11.566  -2.562   2.467  0.00  0.00    +0.356 C 
ATOM     23  O   UNL     1      11.143  -3.363   3.283  0.00  0.00    -0.246 OA
ATOM     24  O   UNL     1      12.739  -2.230   2.488  0.00  0.00    -0.246 OA
ENDBRANCH  21  22
ENDBRANCH  20  21
ENDBRANCH   7  20
TORSDOF 5
