REMARK  Name = ZINC26897191
REMARK  8 active torsions:
REMARK  status: ('A' for Active; 'I' for Inactive)
REMARK    1  A    between atoms: C_1  and  C_2
REMARK    2  A    between atoms: C_5  and  S_8
REMARK    3  A    between atoms: S_8  and  N_11
REMARK    4  A    between atoms: C_12  and  C_26
REMARK    5  A    between atoms: C_18  and  C_25
REMARK    6  A    between atoms: C_20  and  C_22
REMARK    7  A    between atoms: C_22  and  C_23
REMARK    8  A    between atoms: C_22  and  C_24
REMARK                            x       y       z     vdW  Elec       q    Type
REMARK                         _______ _______ _______ _____ _____    ______ ____
ROOT
ATOM      1  N   UNL     1      -2.826   4.689   4.923  0.00  0.00    -0.212 N 
ATOM      2  C   UNL     1      -1.871   5.483   5.443  0.00  0.00    +0.041 A 
ATOM      3  C   UNL     1      -2.196   6.779   5.210  0.00  0.00    +0.029 A 
ATOM      4  C   UNL     1      -3.412   6.795   4.522  0.00  0.00    -0.013 A 
ATOM      5  C   UNL     1      -3.802   5.485   4.345  0.00  0.00    +0.111 A 
ATOM      6  C   UNL     1      -5.031   5.391   3.654  0.00  0.00    +0.185 C 
ATOM      7  O   UNL     1      -5.602   4.359   3.365  0.00  0.00    -0.290 OA
ATOM      8  C   UNL     1      -5.517   6.784   3.332  0.00  0.00    +0.066 C 
ATOM      9  C   UNL     1      -4.439   7.717   3.911  0.00  0.00    +0.034 C 
ATOM     10  C   UNL     1      -5.630   6.974   1.818  0.00  0.00    +0.016 C 
ATOM     11  C   UNL     1      -0.636   5.008   6.166  0.00  0.00    +0.065 C 
ENDROOT
BRANCH   1  12
ATOM     12  S   UNL     1      -2.837   3.034   4.972  0.00  0.00    +0.084 S 
ATOM     13  O   UNL     1      -4.194   2.632   4.851  0.00  0.00    -0.148 OA
ATOM     14  O   UNL     1      -2.026   2.655   6.075  0.00  0.00    -0.148 OA
BRANCH  12  19
ATOM     15  C   UNL     1      -0.013   1.086   0.008  0.00  0.00    +0.044 C 
ATOM     16  C   UNL     1      -0.718   1.572   1.248  0.00  0.00    -0.050 A 
ATOM     17  C   UNL     1      -2.083   1.789   1.226  0.00  0.00    +0.005 A 
ATOM     18  C   UNL     1      -2.731   2.230   2.365  0.00  0.00    +0.029 A 
ATOM     19  C   UNL     1      -2.012   2.464   3.522  0.00  0.00    +0.111 A 
ATOM     20  C   UNL     1      -0.646   2.252   3.542  0.00  0.00    +0.029 A 
ATOM     21  C   UNL     1       0.001   1.806   2.405  0.00  0.00    +0.005 A 
ENDBRANCH  12  19
ENDBRANCH   1  12
BRANCH   9  22
ATOM     22  C   UNL     1      -5.043   8.626   4.983  0.00  0.00    -0.009 C 
ATOM     23  C   UNL     1      -3.955   9.544   5.544  0.00  0.00    +0.008 C 
ATOM     24  C   UNL     1      -6.157   9.473   4.365  0.00  0.00    +0.008 C 
ENDBRANCH   9  22
TORSDOF 3
