REMARK  Name = ZINC09882536
REMARK  6 active torsions:
REMARK  status: ('A' for Active; 'I' for Inactive)
REMARK    1  A    between atoms: C_1  and  C_2
REMARK    2  A    between atoms: N_10  and  N_14
REMARK    3  A    between atoms: C_15  and  C_17
REMARK    4  A    between atoms: C_17  and  N_18
REMARK    5  A    between atoms: C_21  and  C_25
REMARK    6  A    between atoms: C_21  and  C_26
REMARK                            x       y       z     vdW  Elec       q    Type
REMARK                         _______ _______ _______ _____ _____    ______ ____
ROOT
ATOM      1  C   UNL     1       4.540   1.240  -1.162  0.00  0.00    +0.215 C 
ENDROOT
BRANCH   1   2
ATOM      2  N   UNL     1       5.102   1.439  -2.501  0.00  0.00    -0.215 N 
ATOM      3  C   UNL     1       5.723   2.566  -2.901  0.00  0.00    +0.251 C 
ATOM      4  O   UNL     1       5.916   3.568  -2.247  0.00  0.00    -0.272 OA
ATOM      5  C   UNL     1       6.132   2.318  -4.340  0.00  0.00    +0.135 C 
ATOM      6  N   UNL     1       5.648   0.953  -4.608  0.00  0.00    -0.281 N 
ATOM      7  C   UNL     1       5.066   0.522  -3.474  0.00  0.00    +0.310 C 
ATOM      8  O   UNL     1       4.561  -0.576  -3.350  0.00  0.00    -0.252 OA
ATOM      9  C   UNL     1       5.453   3.323  -5.273  0.00  0.00    +0.047 C 
ATOM     10  H   UNL     1       5.735   0.460  -5.439  0.00  0.00    +0.152 HD
BRANCH   5  11
ATOM     11  C   UNL     1       7.630   2.391  -4.486  0.00  0.00    -0.015 A 
ATOM     12  C   UNL     1       8.363   3.221  -3.638  0.00  0.00    +0.007 A 
ATOM     13  C   UNL     1       9.717   3.310  -3.743  0.00  0.00    +0.009 A 
ATOM     14  C   UNL     1      10.390   2.555  -4.719  0.00  0.00    -0.018 A 
ATOM     15  C   UNL     1      11.787   2.620  -4.857  0.00  0.00    +0.008 A 
ATOM     16  C   UNL     1      12.404   1.874  -5.813  0.00  0.00    +0.001 A 
ATOM     17  C   UNL     1      11.672   1.045  -6.661  0.00  0.00    +0.001 A 
ATOM     18  C   UNL     1      10.318   0.956  -6.556  0.00  0.00    +0.008 A 
ATOM     19  C   UNL     1       9.645   1.712  -5.581  0.00  0.00    -0.018 A 
ATOM     20  C   UNL     1       8.248   1.642  -5.439  0.00  0.00    +0.014 A 
ENDBRANCH   5  11
ENDBRANCH   1   2
BRANCH   1  22
ATOM     21  N   UNL     1       2.382   1.612  -0.012  0.00  0.00    -0.222 N 
ATOM     22  C   UNL     1       3.105   1.700  -1.146  0.00  0.00    +0.248 C 
ATOM     23  O   UNL     1       2.601   2.149  -2.153  0.00  0.00    -0.273 OA
ATOM     24  H   UNL     1       2.785   1.253   0.794  0.00  0.00    +0.174 HD
BRANCH  21  34
ATOM     25  C   UNL     1      -4.005  -1.208   0.013  0.00  0.00    +0.007 C 
ATOM     26  C   UNL     1      -3.457   0.221   0.018  0.00  0.00    -0.014 C 
ATOM     27  C   UNL     1      -2.608   0.445  -1.234  0.00  0.00    +0.006 C 
ATOM     28  C   UNL     1      -2.069   1.879  -1.234  0.00  0.00    +0.035 C 
ATOM     29  C   UNL     1      -1.230   2.107   0.018  0.00  0.00    +0.114 C 
ATOM     30  C   UNL     1      -2.059   1.866   1.275  0.00  0.00    +0.035 C 
ATOM     31  C   UNL     1      -2.597   0.433   1.266  0.00  0.00    +0.006 C 
ATOM     32  C   UNL     1      -0.014   1.208   0.009  0.00  0.00    +0.263 C 
ATOM     33  O   UNL     1       0.002  -0.004   0.002  0.00  0.00    -0.271 OA
ATOM     34  N   UNL     1       1.048   2.039   0.003  0.00  0.00    -0.137 N 
ATOM     35  C   UNL     1       0.670   3.324   0.013  0.00  0.00    +0.326 C 
ATOM     36  O   UNL     1       1.447   4.257   0.010  0.00  0.00    -0.251 OA
ATOM     37  N   UNL     1      -0.670   3.464   0.026  0.00  0.00    -0.284 N 
ATOM     38  H   UNL     1      -1.166   4.297   0.035  0.00  0.00    +0.151 HD
ENDBRANCH  21  34
ENDBRANCH   1  22
TORSDOF 4
