REMARK  Name = ZINC46079355
REMARK  10 active torsions:
REMARK  status: ('A' for Active; 'I' for Inactive)
REMARK    1  A    between atoms: C_1  and  C_2
REMARK    2  A    between atoms: C_2  and  C_3
REMARK    3  A    between atoms: N_5  and  C_6
REMARK    4  A    between atoms: C_8  and  C_27
REMARK    5  A    between atoms: N_10  and  C_13
REMARK    6  A    between atoms: C_13  and  C_15
REMARK    7  A    between atoms: C_13  and  C_16
REMARK    8  A    between atoms: N_18  and  C_19
REMARK    9  A    between atoms: C_23  and  C_26
REMARK   10  A    between atoms: C_24  and  C_25
REMARK                            x       y       z     vdW  Elec       q    Type
REMARK                         _______ _______ _______ _____ _____    ______ ____
ROOT
ATOM      1  C   UNL     1       1.564  -2.329   2.633  0.00  0.00    +0.102 A 
ATOM      2  C   UNL     1       2.050  -1.536   3.632  0.00  0.00    +0.059 A 
ATOM      3  C   UNL     1       2.654  -2.128   4.761  0.00  0.00    +0.093 A 
ATOM      4  N   UNL     1       2.751  -3.435   4.856  0.00  0.00    -0.167 NA
ATOM      5  N   UNL     1       2.260  -4.267   3.844  0.00  0.00    -0.216 N 
ATOM      6  C   UNL     1       1.672  -3.737   2.753  0.00  0.00    +0.289 A 
ATOM      7  O   UNL     1       1.240  -4.464   1.874  0.00  0.00    -0.264 OA
ENDROOT
BRANCH   3   8
ATOM      8  C   UNL     1       3.182  -1.268   5.848  0.00  0.00    +0.002 A 
ATOM      9  C   UNL     1       3.078   0.118   5.757  0.00  0.00    +0.011 A 
ATOM     10  C   UNL     1       3.571   0.913   6.771  0.00  0.00    +0.020 A 
ATOM     11  C   UNL     1       4.170   0.336   7.878  0.00  0.00    +0.041 A 
ATOM     12  C   UNL     1       4.276  -1.041   7.973  0.00  0.00    +0.020 A 
ATOM     13  C   UNL     1       3.780  -1.845   6.967  0.00  0.00    +0.011 A 
ATOM     14 CL   UNL     1       4.790   1.342   9.149  0.00  0.00    -0.084 Cl
ENDBRANCH   3   8
BRANCH   1  17
ATOM     15  C   UNL     1       1.452  -2.018   0.279  0.00  0.00    +0.217 C 
ATOM     16  O   UNL     1       2.465  -2.674   0.155  0.00  0.00    -0.275 OA
ATOM     17  N   UNL     1       0.963  -1.760   1.507  0.00  0.00    -0.281 N 
ATOM     18  H   UNL     1       0.193  -1.179   1.611  0.00  0.00    +0.155 HD
BRANCH  15  20
ATOM     19  C   UNL     1       1.499  -1.924  -2.199  0.00  0.00    +0.013 C 
ATOM     20  C   UNL     1       0.742  -1.492  -0.942  0.00  0.00    +0.093 C 
ENDBRANCH  15  20
ENDBRANCH   1  17
BRANCH   5  21
ATOM     21  C   UNL     1       2.381  -5.722   3.974  0.00  0.00    +0.194 C 
ATOM     22  C   UNL     1       3.858  -6.103   4.085  0.00  0.00    +0.043 C 
BRANCH  21  23
ATOM     23  C   UNL     1       1.650  -6.178   5.210  0.00  0.00    +0.242 C 
ATOM     24  O   UNL     1       1.084  -5.369   5.914  0.00  0.00    -0.273 OA
ATOM     25  N   UNL     1       1.625  -7.486   5.534  0.00  0.00    -0.284 N 
ATOM     26  H   UNL     1       2.135  -8.125   5.011  0.00  0.00    +0.155 HD
BRANCH  25  27
ATOM     27  C   UNL     1       0.865  -7.923   6.624  0.00  0.00    +0.037 A 
ATOM     28  C   UNL     1       0.717  -7.109   7.740  0.00  0.00    +0.023 A 
ATOM     29  C   UNL     1      -0.035  -7.543   8.814  0.00  0.00    +0.002 A 
ATOM     30  C   UNL     1      -0.639  -8.787   8.780  0.00  0.00    +0.004 A 
ATOM     31  C   UNL     1      -0.493  -9.599   7.671  0.00  0.00    -0.046 A 
ATOM     32  C   UNL     1       0.252  -9.168   6.591  0.00  0.00    -0.026 A 
ATOM     33  C   UNL     1       0.405 -10.052   5.380  0.00  0.00    +0.046 C 
ATOM     34  C   UNL     1      -1.152 -10.954   7.639  0.00  0.00    +0.044 C 
ENDBRANCH  25  27
ENDBRANCH  21  23
ENDBRANCH   5  21
TORSDOF 6
