REMARK  Name = ZINC12641904
REMARK  7 active torsions:
REMARK  status: ('A' for Active; 'I' for Inactive)
REMARK    1  A    between atoms: C_3  and  C_6
REMARK    2  A    between atoms: C_6  and  C_8
REMARK    3  A    between atoms: C_6  and  N_56
REMARK    4  A    between atoms: N_12  and  C_13
REMARK    5  A    between atoms: C_13  and  C_14
REMARK    6  A    between atoms: N_23  and  C_26
REMARK    7  A    between atoms: C_29  and  N_32
REMARK                            x       y       z     vdW  Elec       q    Type
REMARK                         _______ _______ _______ _____ _____    ______ ____
ROOT
ATOM      1  C   UNL     1       1.637   7.495  -1.687  0.00  0.00    +0.040 C 
ENDROOT
BRANCH   1   7
ATOM      2  C   UNL     1       3.029   5.543  -1.349  0.00  0.00    -0.058 C 
ATOM      3  C   UNL     1       3.504   4.238  -1.994  0.00  0.00    +0.086 C 
ATOM      4  N   UNL     1       2.346   3.368  -2.241  0.00  0.00    -0.333 N 
ATOM      5  C   UNL     1       1.376   4.025  -3.128  0.00  0.00    +0.086 C 
ATOM      6  C   UNL     1       0.902   5.330  -2.483  0.00  0.00    -0.058 C 
ATOM      7  N   UNL     1       2.072   6.204  -2.261  0.00  0.00    +0.391 N 
ATOM      8  H   UNL     1       2.535   6.379  -3.161  0.00  0.00    -0.080 HD
BRANCH   4   9
ATOM      9  C   UNL     1       2.748   2.136  -2.764  0.00  0.00    +0.030 A 
ATOM     10  C   UNL     1       1.801   1.167  -3.068  0.00  0.00    +0.025 A 
ATOM     11  C   UNL     1       2.202  -0.049  -3.585  0.00  0.00    +0.034 A 
ATOM     12  C   UNL     1       3.545  -0.302  -3.800  0.00  0.00    +0.126 A 
ATOM     13  C   UNL     1       4.490   0.661  -3.498  0.00  0.00    +0.034 A 
ATOM     14  C   UNL     1       4.096   1.879  -2.980  0.00  0.00    +0.025 A 
BRANCH  12  15
ATOM     15  N   UNL     1       3.971  -1.607  -4.355  0.00  0.00    +0.056 N 
ATOM     16  O   UNL     1       3.139  -2.456  -4.621  0.00  0.00    -0.126 OA
ATOM     17  O   UNL     1       5.153  -1.831  -4.545  0.00  0.00    -0.126 OA
ENDBRANCH  12  15
ENDBRANCH   4   9
ENDBRANCH   1   7
BRANCH   1  20
ATOM     18  C   UNL     1       4.359   9.973  -0.707  0.00  0.00    +0.008 A 
ATOM     19  C   UNL     1       3.220   9.204  -0.566  0.00  0.00    +0.010 A 
ATOM     20  C   UNL     1       2.827   8.415  -1.596  0.00  0.00    -0.016 A 
ATOM     21  S   UNL     1       4.090   8.744  -2.815  0.00  0.00    -0.103 S 
ATOM     22  C   UNL     1       5.050   9.916  -1.872  0.00  0.00    +0.045 A 
ENDBRANCH   1  20
BRANCH   1  23
ATOM     23  C   UNL     1       0.596   8.108  -2.588  0.00  0.00    +0.143 A 
ATOM     24  N   UNL     1       0.719   8.358  -3.869  0.00  0.00    -0.115 NA
ATOM     25  N   UNL     1      -0.385   8.879  -4.280  0.00  0.00    -0.023 NA
ATOM     26  N   UNL     1      -1.207   8.974  -3.294  0.00  0.00    -0.044 NA
ATOM     27  N   UNL     1      -0.639   8.510  -2.233  0.00  0.00    -0.226 N 
BRANCH  27  28
ATOM     28  C   UNL     1      -1.227   8.434  -0.893  0.00  0.00    +0.182 C 
BRANCH  28  29
ATOM     29  C   UNL     1      -0.963   9.721  -0.155  0.00  0.00    -0.026 A 
ATOM     30  C   UNL     1       0.113   9.814   0.708  0.00  0.00    +0.008 A 
ATOM     31  C   UNL     1       0.359  10.995   1.382  0.00  0.00    +0.038 A 
ATOM     32  C   UNL     1      -0.478  12.082   1.200  0.00  0.00    +0.123 A 
ATOM     33  C   UNL     1      -1.559  11.986   0.339  0.00  0.00    +0.038 A 
ATOM     34  C   UNL     1      -1.800  10.806  -0.337  0.00  0.00    +0.008 A 
ATOM     35  F   UNL     1      -0.242  13.236   1.862  0.00  0.00    -0.205 F 
ENDBRANCH  28  29
ENDBRANCH  27  28
ENDBRANCH   1  23
TORSDOF 7
