REMARK  Name = ZINC59930706
REMARK  12 active torsions:
REMARK  status: ('A' for Active; 'I' for Inactive)
REMARK    1  A    between atoms: C_1  and  C_2
REMARK    2  A    between atoms: C_2  and  O_3
REMARK    3  A    between atoms: O_3  and  C_4
REMARK    4  A    between atoms: C_7  and  C_10
REMARK    5  A    between atoms: C_12  and  C_15
REMARK    6  A    between atoms: C_15  and  N_16
REMARK    7  A    between atoms: N_16  and  C_17
REMARK    8  A    between atoms: C_20  and  C_24
REMARK    9  A    between atoms: C_22  and  C_23
REMARK   10  A    between atoms: N_26  and  C_27
REMARK   11  A    between atoms: C_27  and  C_28
REMARK   12  A    between atoms: C_27  and  C_29
REMARK                            x       y       z     vdW  Elec       q    Type
REMARK                         _______ _______ _______ _____ _____    ______ ____
ROOT
ATOM      1  N   UNL     1       3.564  -9.288  -3.289  0.00  0.00    -0.335 N 
ATOM      2  H   UNL     1       3.970  -8.850  -2.524  0.00  0.00    +0.147 HD
ENDROOT
BRANCH   1   3
ATOM      3  C   UNL     1       4.287 -10.222  -4.021  0.00  0.00    +0.030 A 
ATOM      4  C   UNL     1       3.705 -10.845  -5.122  0.00  0.00    +0.024 A 
ATOM      5  C   UNL     1       4.418 -11.770  -5.848  0.00  0.00    +0.015 A 
ATOM      6  C   UNL     1       5.730 -12.084  -5.481  0.00  0.00    +0.037 A 
ATOM      7  C   UNL     1       6.312 -11.457  -4.375  0.00  0.00    +0.018 A 
ATOM      8  C   UNL     1       5.595 -10.528  -3.656  0.00  0.00    -0.029 A 
ATOM      9  C   UNL     1       6.224  -9.847  -2.468  0.00  0.00    +0.045 C 
BRANCH   6  10
ATOM     10  C   UNL     1       6.498 -13.075  -6.258  0.00  0.00    +0.244 C 
ATOM     11  O   UNL     1       7.639 -13.348  -5.937  0.00  0.00    -0.270 OA
ATOM     12  N   UNL     1       5.935 -13.680  -7.323  0.00  0.00    -0.309 N 
ATOM     13  H   UNL     1       5.025 -13.462  -7.579  0.00  0.00    +0.149 HD
BRANCH  12  14
ATOM     14  C   UNL     1       6.698 -14.664  -8.094  0.00  0.00    +0.067 C 
ATOM     15  C   UNL     1       6.572 -16.038  -7.433  0.00  0.00    +0.027 C 
ATOM     16  C   UNL     1       6.148 -14.732  -9.520  0.00  0.00    +0.027 C 
ENDBRANCH  12  14
ENDBRANCH   6  10
ENDBRANCH   1   3
BRANCH   1  17
ATOM     17  C   UNL     1       2.187  -8.964  -3.672  0.00  0.00    +0.200 C 
BRANCH  17  20
ATOM     18  C   UNL     1       1.107  -6.019  -1.845  0.00  0.00    +0.202 A 
ATOM     19  N   UNL     1       1.708  -6.640  -2.876  0.00  0.00    -0.190 NA
ATOM     20  C   UNL     1       1.632  -7.932  -2.724  0.00  0.00    +0.245 A 
ATOM     21  O   UNL     1       0.976  -8.188  -1.585  0.00  0.00    -0.336 OA
ATOM     22  N   UNL     1       0.646  -6.928  -1.020  0.00  0.00    -0.056 NA
BRANCH  18  26
ATOM     23  C   UNL     1       0.777  -1.809  -1.336  0.00  0.00    +0.121 A 
ATOM     24  C   UNL     1       0.241  -2.667  -0.384  0.00  0.00    +0.046 A 
ATOM     25  C   UNL     1       0.347  -4.032  -0.546  0.00  0.00    +0.015 A 
ATOM     26  C   UNL     1       0.992  -4.551  -1.668  0.00  0.00    +0.023 A 
ATOM     27  C   UNL     1       1.528  -3.688  -2.622  0.00  0.00    +0.015 A 
ATOM     28  C   UNL     1       1.415  -2.324  -2.457  0.00  0.00    +0.046 A 
BRANCH  23  29
ATOM     29  O   UNL     1       0.671  -0.465  -1.174  0.00  0.00    -0.492 OA
BRANCH  29  31
ATOM     30  C   UNL     1      -0.019   1.526   0.010  0.00  0.00    +0.048 C 
ATOM     31  C   UNL     1       0.002  -0.004   0.002  0.00  0.00    +0.225 C 
ENDBRANCH  29  31
ENDBRANCH  23  29
ENDBRANCH  18  26
ENDBRANCH  17  20
ENDBRANCH   1  17
TORSDOF 8
