REMARK  Name = ZINC62580830
REMARK  7 active torsions:
REMARK  status: ('A' for Active; 'I' for Inactive)
REMARK    1  A    between atoms: C_1  and  N_2
REMARK    2  A    between atoms: N_2  and  C_3
REMARK    3  A    between atoms: N_2  and  C_4
REMARK    4  A    between atoms: C_4  and  C_6
REMARK    5  A    between atoms: C_4  and  C_26
REMARK    6  A    between atoms: C_6  and  N_7
REMARK    7  A    between atoms: C_18  and  C_20
REMARK                            x       y       z     vdW  Elec       q    Type
REMARK                         _______ _______ _______ _____ _____    ______ ____
ROOT
ATOM      1  N   UNL     1      -2.385  -4.470   0.618  0.00  0.00    -0.300 N 
ATOM      2  C   UNL     1      -2.521  -3.361   1.372  0.00  0.00    +0.303 C 
ATOM      3  O   UNL     1      -3.077  -2.381   0.916  0.00  0.00    -0.253 OA
ATOM      4  N   UNL     1      -2.041  -3.340   2.631  0.00  0.00    -0.274 N 
ATOM      5  C   UNL     1      -2.276  -2.176   3.499  0.00  0.00    +0.115 C 
ATOM      6  C   UNL     1      -0.920  -1.522   3.806  0.00  0.00    +0.062 C 
ATOM      7  C   UNL     1       0.073  -2.597   4.110  0.00  0.00    -0.003 A 
ATOM      8  C   UNL     1      -0.026  -3.927   3.840  0.00  0.00    -0.012 A 
ATOM      9  C   UNL     1       1.051  -4.724   4.221  0.00  0.00    +0.013 A 
ATOM     10  C   UNL     1       2.122  -4.168   4.833  0.00  0.00    +0.046 A 
ATOM     11  S   UNL     1       1.652  -2.446   4.902  0.00  0.00    -0.101 S 
ATOM     12  C   UNL     1      -1.280  -4.481   3.158  0.00  0.00    +0.139 C 
ATOM     13  H   UNL     1      -2.006  -5.275   1.003  0.00  0.00    +0.150 HD
ENDROOT
BRANCH  12  14
ATOM     14  C   UNL     1      -2.119  -5.235   4.157  0.00  0.00    -0.023 A 
ATOM     15  C   UNL     1      -2.505  -4.625   5.336  0.00  0.00    +0.006 A 
ATOM     16  C   UNL     1      -3.274  -5.316   6.253  0.00  0.00    +0.000 A 
ATOM     17  C   UNL     1      -3.657  -6.619   5.991  0.00  0.00    +0.000 A 
ATOM     18  C   UNL     1      -3.271  -7.229   4.812  0.00  0.00    +0.000 A 
ATOM     19  C   UNL     1      -2.506  -6.536   3.893  0.00  0.00    +0.006 A 
ENDBRANCH  12  14
BRANCH   1  20
ATOM     20  C   UNL     1      -2.812  -4.459  -0.784  0.00  0.00    +0.095 C 
BRANCH  20  21
ATOM     21  C   UNL     1      -2.435  -5.788  -1.442  0.00  0.00    -0.014 C 
BRANCH  21  22
ATOM     22  C   UNL     1      -0.937  -5.954  -1.417  0.00  0.00    -0.022 A 
ATOM     23  C   UNL     1      -0.174  -6.689  -0.571  0.00  0.00    +0.009 A 
ATOM     24  C   UNL     1       1.198  -6.693  -0.739  0.00  0.00    +0.008 A 
ATOM     25  C   UNL     1       1.740  -5.963  -1.744  0.00  0.00    +0.045 A 
ATOM     26  S   UNL     1       0.291  -5.241  -2.498  0.00  0.00    -0.103 S 
ENDBRANCH  21  22
BRANCH  21  28
ATOM     27  C   UNL     1      -2.619  -7.104  -3.439  0.00  0.00    -0.096 C 
ATOM     28  N   UNL     1      -2.905  -5.796  -2.834  0.00  0.00    +0.382 N 
ATOM     29  C   UNL     1      -4.353  -5.550  -2.863  0.00  0.00    -0.096 C 
ATOM     30  H   UNL     1      -2.430  -5.074  -3.353  0.00  0.00    -0.082 HD
ENDBRANCH  21  28
ENDBRANCH  20  21
ENDBRANCH   1  20
TORSDOF 5
