REMARK  Name = ZINC22577012
REMARK  8 active torsions:
REMARK  status: ('A' for Active; 'I' for Inactive)
REMARK    1  A    between atoms: C_1  and  C_2
REMARK    2  A    between atoms: C_7  and  N_8
REMARK    3  A    between atoms: C_21  and  S_22
REMARK    4  A    between atoms: S_22  and  C_23
REMARK    5  A    between atoms: C_23  and  C_25
REMARK    6  A    between atoms: C_23  and  C_28
REMARK    7  A    between atoms: C_25  and  C_26
REMARK    8  A    between atoms: C_25  and  C_27
REMARK                            x       y       z     vdW  Elec       q    Type
REMARK                         _______ _______ _______ _____ _____    ______ ____
ROOT
ATOM      1  N   UNL     1       3.640   3.641  -0.014  0.00  0.00    -0.245 N 
ATOM      2  C   UNL     1       3.735   2.300   0.103  0.00  0.00    +0.268 A 
ATOM      3  O   UNL     1       4.822   1.755   0.100  0.00  0.00    -0.267 OA
ATOM      4  C   UNL     1       2.500   1.506   0.235  0.00  0.00    +0.064 A 
ATOM      5  C   UNL     1       2.543   0.118   0.359  0.00  0.00    +0.015 A 
ATOM      6  C   UNL     1       1.367  -0.592   0.480  0.00  0.00    +0.001 A 
ATOM      7  C   UNL     1       0.148   0.068   0.478  0.00  0.00    +0.002 A 
ATOM      8  C   UNL     1       0.092   1.442   0.356  0.00  0.00    +0.027 A 
ATOM      9  C   UNL     1       1.264   2.173   0.234  0.00  0.00    +0.064 A 
ATOM     10  N   UNL     1       1.242   3.556   0.109  0.00  0.00    -0.255 N 
ATOM     11  C   UNL     1       2.405   4.271  -0.012  0.00  0.00    +0.245 A 
ATOM     12  N   UNL     1       2.067   5.534  -0.110  0.00  0.00    -0.109 NA
ATOM     13  N   UNL     1       0.789   5.655  -0.060  0.00  0.00    -0.120 NA
ATOM     14  C   UNL     1       0.229   4.476   0.074  0.00  0.00    +0.198 A 
ENDROOT
BRANCH   1  21
ATOM     15  C   UNL     1       4.872   4.614   2.360  0.00  0.00    +0.046 C 
ATOM     16  C   UNL     1       5.438   4.901   0.993  0.00  0.00    -0.026 A 
ATOM     17  C   UNL     1       6.591   5.651   0.866  0.00  0.00    +0.005 A 
ATOM     18  C   UNL     1       7.108   5.920  -0.388  0.00  0.00    +0.000 A 
ATOM     19  C   UNL     1       6.477   5.434  -1.518  0.00  0.00    +0.002 A 
ATOM     20  C   UNL     1       5.327   4.679  -1.398  0.00  0.00    +0.026 A 
ATOM     21  C   UNL     1       4.805   4.407  -0.140  0.00  0.00    +0.056 A 
ENDBRANCH   1  21
BRANCH  14  22
ATOM     22  S   UNL     1      -1.497   4.141   0.188  0.00  0.00    -0.073 S 
BRANCH  22  23
ATOM     23  C   UNL     1      -2.262   5.785   0.213  0.00  0.00    +0.143 C 
BRANCH  23  24
ATOM     24  C   UNL     1      -2.053   6.458  -1.119  0.00  0.00    +0.234 C 
ATOM     25  O   UNL     1      -1.876   5.789  -2.115  0.00  0.00    -0.274 OA
ATOM     26  N   UNL     1      -2.062   7.803  -1.204  0.00  0.00    -0.239 N 
ATOM     27  C   UNL     1      -1.875   8.404  -2.395  0.00  0.00    +0.303 C 
ATOM     28  O   UNL     1      -1.698   7.734  -3.393  0.00  0.00    -0.253 OA
ATOM     29  N   UNL     1      -1.884   9.749  -2.480  0.00  0.00    -0.313 N 
ATOM     30  H   UNL     1      -2.223   8.410  -0.301  0.00  0.00    +0.159 HD
ATOM     31  H   UNL     1      -1.732  10.240  -3.453  0.00  0.00    +0.146 HD
ATOM     32  H   UNL     1      -2.045  10.356  -1.577  0.00  0.00    +0.146 HD
ENDBRANCH  23  24
BRANCH  23  33
ATOM     33  C   UNL     1      -3.762   5.646   0.484  0.00  0.00    +0.005 C 
ATOM     34  C   UNL     1      -3.974   4.969   1.840  0.00  0.00    +0.009 C 
ATOM     35  C   UNL     1      -4.409   7.032   0.499  0.00  0.00    +0.009 C 
ENDBRANCH  23  33
ENDBRANCH  22  23
ENDBRANCH  14  22
TORSDOF 5
