REMARK  Name = ZINC12843869
REMARK  5 active torsions:
REMARK  status: ('A' for Active; 'I' for Inactive)
REMARK    1  A    between atoms: C_1  and  C_2
REMARK    2  A    between atoms: C_5  and  C_8
REMARK    3  A    between atoms: C_8  and  C_9
REMARK    4  A    between atoms: N_15  and  N_16
REMARK    5  A    between atoms: C_17  and  C_18
REMARK                            x       y       z     vdW  Elec       q    Type
REMARK                         _______ _______ _______ _____ _____    ______ ____
ROOT
ATOM      1  C   UNL     1       1.508  -4.767  -0.032  0.00  0.00    +0.144 C 
ATOM      2  C   UNL     1       1.575  -6.285  -0.012  0.00  0.00    +0.232 C 
ATOM      3  O   UNL     1       1.137  -6.937   0.912  0.00  0.00    -0.274 OA
ATOM      4  N   UNL     1       2.142  -6.851  -1.064  0.00  0.00    -0.263 N 
ATOM      5  C   UNL     1       2.643  -6.117  -2.119  0.00  0.00    +0.183 C 
ATOM      6  N   UNL     1       3.224  -6.559  -3.214  0.00  0.00    -0.127 NA
ATOM      7  S   UNL     1       2.318  -4.422  -1.649  0.00  0.00    -0.075 S 
ATOM      8  H   UNL     1       2.208  -7.818  -1.095  0.00  0.00    +0.157 HD
ENDROOT
BRANCH   6   9
ATOM      9  N   UNL     1       3.380  -7.827  -3.394  0.00  0.00    -0.152 NA
ATOM     10  C   UNL     1       3.958  -8.267  -4.482  0.00  0.00    +0.181 C 
BRANCH  10  11
ATOM     11  C   UNL     1       4.135  -9.704  -4.686  0.00  0.00    +0.147 A 
ATOM     12  C   UNL     1       4.723 -10.296  -5.769  0.00  0.00    +0.051 A 
ATOM     13  C   UNL     1       4.677 -11.684  -5.547  0.00  0.00    +0.042 A 
ATOM     14  C   UNL     1       4.072 -11.875  -4.356  0.00  0.00    +0.196 A 
ATOM     15  O   UNL     1       3.751 -10.679  -3.837  0.00  0.00    -0.462 OA
ENDBRANCH  10  11
ENDBRANCH   6   9
BRANCH   1  16
ATOM     16  C   UNL     1       0.059  -4.275  -0.021  0.00  0.00    +0.059 C 
BRANCH  16  21
ATOM     17  C   UNL     1      -0.018   1.503   0.010  0.00  0.00    +0.044 C 
ATOM     18  C   UNL     1       0.002  -0.004   0.002  0.00  0.00    -0.050 A 
ATOM     19  C   UNL     1       0.006  -0.689  -1.199  0.00  0.00    +0.003 A 
ATOM     20  C   UNL     1       0.025  -2.071  -1.206  0.00  0.00    +0.004 A 
ATOM     21  C   UNL     1       0.040  -2.768  -0.013  0.00  0.00    -0.046 A 
ATOM     22  C   UNL     1       0.037  -2.084   1.188  0.00  0.00    +0.004 A 
ATOM     23  C   UNL     1       0.023  -0.702   1.195  0.00  0.00    +0.003 A 
ENDBRANCH  16  21
ENDBRANCH   1  16
TORSDOF 4
