REMARK  Name = ZINC40983475
REMARK  12 active torsions:
REMARK  status: ('A' for Active; 'I' for Inactive)
REMARK    1  A    between atoms: C_1  and  C_2
REMARK    2  A    between atoms: C_2  and  C_3
REMARK    3  A    between atoms: C_3  and  C_4
REMARK    4  A    between atoms: C_4  and  S_5
REMARK    5  A    between atoms: S_5  and  C_6
REMARK    6  A    between atoms: C_11  and  C_27
REMARK    7  A    between atoms: C_13  and  C_17
REMARK    8  A    between atoms: C_14  and  C_16
REMARK    9  A    between atoms: N_19  and  C_20
REMARK   10  A    between atoms: C_25  and  C_26
REMARK   11  A    between atoms: C_30  and  O_33
REMARK   12  A    between atoms: O_33  and  C_34
REMARK                            x       y       z     vdW  Elec       q    Type
REMARK                         _______ _______ _______ _____ _____    ______ ____
ROOT
ATOM      1  C   UNL     1       1.697  -4.364  -2.564  0.00  0.00    +0.210 A 
ATOM      2  N   UNL     1       1.101  -5.060  -1.585  0.00  0.00    -0.187 NA
ATOM      3  C   UNL     1       1.219  -6.338  -1.824  0.00  0.00    +0.219 A 
ATOM      4  N   UNL     1       1.903  -6.488  -2.985  0.00  0.00    -0.220 N 
ATOM      5  N   UNL     1       2.197  -5.205  -3.444  0.00  0.00    -0.141 NA
ATOM      6  C   UNL     1       2.218  -7.786  -3.576  0.00  0.00    +0.177 C 
ATOM      7  C   UNL     1       1.942  -8.874  -2.572  0.00  0.00    +0.060 C 
ATOM      8  C   UNL     1       1.262  -8.665  -1.435  0.00  0.00    +0.018 C 
ATOM      9  N   UNL     1       0.771  -7.429  -1.092  0.00  0.00    -0.287 N 
ATOM     10  C   UNL     1       1.028  -9.826  -0.503  0.00  0.00    +0.061 C 
ATOM     11  H   UNL     1       0.136  -7.323  -0.367  0.00  0.00    +0.155 HD
ENDROOT
BRANCH   6  12
ATOM     12  C   UNL     1       1.363  -8.002  -4.798  0.00  0.00    -0.018 A 
ATOM     13  C   UNL     1      -0.015  -8.006  -4.686  0.00  0.00    +0.009 A 
ATOM     14  C   UNL     1      -0.800  -8.204  -5.805  0.00  0.00    +0.046 A 
ATOM     15  C   UNL     1      -0.204  -8.399  -7.043  0.00  0.00    +0.120 A 
ATOM     16  C   UNL     1       1.179  -8.395  -7.153  0.00  0.00    +0.046 A 
ATOM     17  C   UNL     1       1.959  -8.191  -6.032  0.00  0.00    +0.009 A 
BRANCH  15  18
ATOM     18  O   UNL     1      -0.975  -8.595  -8.145  0.00  0.00    -0.495 OA
ATOM     19  C   UNL     1      -0.293  -8.789  -9.386  0.00  0.00    +0.277 C 
ENDBRANCH  15  18
ENDBRANCH   6  12
BRANCH   7  20
ATOM     20  C   UNL     1       2.422 -10.177  -2.841  0.00  0.00    +0.248 C 
ATOM     21  O   UNL     1       3.605 -10.431  -2.704  0.00  0.00    -0.270 OA
ATOM     22  N   UNL     1       1.570 -11.138  -3.250  0.00  0.00    -0.281 N 
ATOM     23  H   UNL     1       0.639 -10.921  -3.419  0.00  0.00    +0.155 HD
BRANCH  22  24
ATOM     24  C   UNL     1       2.027 -12.447  -3.429  0.00  0.00    +0.037 A 
ATOM     25  C   UNL     1       3.315 -12.677  -3.896  0.00  0.00    +0.023 A 
ATOM     26  C   UNL     1       3.763 -13.971  -4.072  0.00  0.00    +0.002 A 
ATOM     27  C   UNL     1       2.931 -15.038  -3.785  0.00  0.00    +0.000 A 
ATOM     28  C   UNL     1       1.648 -14.813  -3.321  0.00  0.00    +0.005 A 
ATOM     29  C   UNL     1       1.196 -13.521  -3.137  0.00  0.00    -0.029 A 
ATOM     30  C   UNL     1      -0.201 -13.276  -2.625  0.00  0.00    +0.045 C 
ENDBRANCH  22  24
ENDBRANCH   7  20
BRANCH   1  31
ATOM     31  S   UNL     1       1.788  -2.607  -2.661  0.00  0.00    -0.084 S 
BRANCH  31  32
ATOM     32  C   UNL     1       0.923  -2.040  -1.170  0.00  0.00    +0.077 C 
BRANCH  32  33
ATOM     33  C   UNL     1       0.929  -0.511  -1.128  0.00  0.00    +0.011 C 
BRANCH  33  35
ATOM     34  C   UNL     1       0.205   1.497   0.171  0.00  0.00    +0.004 C 
ATOM     35  C   UNL     1       0.199  -0.032   0.129  0.00  0.00    -0.003 C 
ENDBRANCH  33  35
ENDBRANCH  32  33
ENDBRANCH  31  32
ENDBRANCH   1  31
TORSDOF 8
