REMARK  Name = ZINC17080659
REMARK  9 active torsions:
REMARK  status: ('A' for Active; 'I' for Inactive)
REMARK    1  A    between atoms: C_1  and  C_2
REMARK    2  A    between atoms: C_7  and  C_8
REMARK    3  A    between atoms: C_8  and  O_10
REMARK    4  A    between atoms: O_10  and  C_11
REMARK    5  A    between atoms: C_16  and  C_18
REMARK    6  A    between atoms: C_20  and  C_25
REMARK    7  A    between atoms: C_28  and  N_31
REMARK    8  A    between atoms: N_31  and  C_32
REMARK    9  A    between atoms: N_31  and  C_33
REMARK                            x       y       z     vdW  Elec       q    Type
REMARK                         _______ _______ _______ _____ _____    ______ ____
ROOT
ATOM      1  C   UNL     1      -7.396   2.435  -2.152  0.00  0.00    +0.047 C 
ATOM      2  C   UNL     1      -6.738   1.152  -2.590  0.00  0.00    -0.008 A 
ATOM      3  C   UNL     1      -7.325   0.122  -3.334  0.00  0.00    +0.042 A 
ATOM      4  C   UNL     1      -6.364  -0.874  -3.512  0.00  0.00    +0.028 A 
ATOM      5  N   UNL     1      -5.244  -0.475  -2.909  0.00  0.00    -0.352 N 
ATOM      6  H   UNL     1      -4.415  -0.978  -2.876  0.00  0.00    +0.166 HD
ATOM      7  C   UNL     1      -5.449   0.768  -2.340  0.00  0.00    +0.128 A 
ATOM      8  C   UNL     1      -6.636  -2.147  -4.272  0.00  0.00    +0.062 C 
ATOM      9  C   UNL     1      -7.844  -1.938  -5.190  0.00  0.00    +0.032 C 
ATOM     10  C   UNL     1      -9.039  -1.398  -4.398  0.00  0.00    +0.088 C 
ATOM     11  C   UNL     1      -8.685  -0.012  -3.879  0.00  0.00    +0.166 C 
ATOM     12  O   UNL     1      -9.467   0.915  -3.913  0.00  0.00    -0.292 OA
ENDROOT
BRANCH   9  13
ATOM     13  C   UNL     1      -8.222  -3.254  -5.821  0.00  0.00    -0.043 A 
ATOM     14  C   UNL     1      -8.578  -4.325  -5.022  0.00  0.00    +0.006 A 
ATOM     15  C   UNL     1      -8.930  -5.530  -5.598  0.00  0.00    +0.023 A 
ATOM     16  C   UNL     1      -8.914  -5.669  -6.980  0.00  0.00    +0.029 A 
ATOM     17  C   UNL     1      -8.550  -4.593  -7.779  0.00  0.00    +0.023 A 
ATOM     18  C   UNL     1      -8.205  -3.389  -7.197  0.00  0.00    +0.006 A 
BRANCH  16  19
ATOM     19  N   UNL     1      -9.264  -6.888  -7.564  0.00  0.00    -0.336 N 
ATOM     20  C   UNL     1      -9.369  -6.998  -9.021  0.00  0.00    +0.129 C 
ATOM     21  C   UNL     1      -9.526  -8.057  -6.721  0.00  0.00    +0.129 C 
ENDBRANCH  16  19
ENDBRANCH   9  13
BRANCH   7  22
ATOM     22  C   UNL     1      -4.454   1.541  -1.589  0.00  0.00    +0.356 C 
ATOM     23  O   UNL     1      -4.748   2.628  -1.131  0.00  0.00    -0.243 OA
BRANCH  22  24
ATOM     24  O   UNL     1      -3.212   1.046  -1.407  0.00  0.00    -0.457 OA
BRANCH  24  25
ATOM     25  C   UNL     1      -2.280   1.867  -0.654  0.00  0.00    +0.180 C 
ATOM     26  C   UNL     1      -2.323   1.481   0.839  0.00  0.00    +0.045 C 
ATOM     27  C   UNL     1      -0.848   1.602   1.307  0.00  0.00    +0.004 C 
ATOM     28  C   UNL     1      -0.061   1.070   0.084  0.00  0.00    +0.007 C 
ATOM     29  C   UNL     1      -0.842   1.605  -1.134  0.00  0.00    +0.027 C 
ATOM     30  C   UNL     1      -0.844   0.563  -2.255  0.00  0.00    +0.011 C 
ENDBRANCH  24  25
ENDBRANCH  22  24
ENDBRANCH   7  22
TORSDOF 5
