REMARK  Name = ZINC05272011
REMARK  6 active torsions:
REMARK  status: ('A' for Active; 'I' for Inactive)
REMARK    1  A    between atoms: C_1  and  C_2
REMARK    2  A    between atoms: C_5  and  C_23
REMARK    3  A    between atoms: C_6  and  C_8
REMARK    4  A    between atoms: N_10  and  N_11
REMARK    5  A    between atoms: C_15  and  C_22
REMARK    6  A    between atoms: C_16  and  C_21
REMARK                            x       y       z     vdW  Elec       q    Type
REMARK                         _______ _______ _______ _____ _____    ______ ____
ROOT
ATOM      1  N   UNL     1       6.652  -1.038   0.115  0.00  0.00    -0.242 N 
ATOM      2  C   UNL     1       5.330  -0.664   0.240  0.00  0.00    +0.176 A 
ATOM      3  N   UNL     1       4.248  -1.368  -0.004  0.00  0.00    -0.223 NA
ATOM      4  C   UNL     1       3.004  -0.867   0.164  0.00  0.00    +0.083 A 
ATOM      5  C   UNL     1       1.766  -1.513  -0.060  0.00  0.00    -0.021 A 
ATOM      6  C   UNL     1       0.584  -0.856   0.162  0.00  0.00    -0.045 A 
ATOM      7  C   UNL     1       0.556   0.456   0.612  0.00  0.00    +0.005 A 
ATOM      8  C   UNL     1       1.749   1.117   0.842  0.00  0.00    +0.017 A 
ATOM      9  C   UNL     1       2.938   0.468   0.622  0.00  0.00    +0.041 A 
ATOM     10  S   UNL     1       4.654   0.901   0.775  0.00  0.00    -0.051 S 
ATOM     11  C   UNL     1      -0.717  -1.576  -0.088  0.00  0.00    +0.044 C 
ATOM     12  C   UNL     1       1.747  -2.938  -0.550  0.00  0.00    +0.046 C 
ATOM     13  H   UNL     1       6.877  -1.931  -0.191  0.00  0.00    +0.172 HD
ENDROOT
BRANCH   1  16
ATOM     14  C   UNL     1       8.962  -0.494   0.308  0.00  0.00    +0.260 C 
ATOM     15  O   UNL     1       9.243  -1.613  -0.075  0.00  0.00    -0.269 OA
ATOM     16  N   UNL     1       7.670  -0.129   0.430  0.00  0.00    -0.231 N 
ATOM     17  H   UNL     1       7.446   0.764   0.736  0.00  0.00    +0.173 HD
BRANCH  14  23
ATOM     18  C   UNL     1      10.390   4.104   1.620  0.00  0.00    +0.044 C 
ATOM     19  C   UNL     1      10.728   2.677   1.271  0.00  0.00    -0.050 A 
ATOM     20  C   UNL     1      12.049   2.263   1.263  0.00  0.00    +0.003 A 
ATOM     21  C   UNL     1      12.368   0.955   0.944  0.00  0.00    +0.004 A 
ATOM     22  C   UNL     1      11.370   0.053   0.639  0.00  0.00    -0.038 A 
ATOM     23  C   UNL     1      10.036   0.465   0.640  0.00  0.00    +0.041 A 
ATOM     24  C   UNL     1       9.721   1.787   0.962  0.00  0.00    +0.016 A 
ATOM     25  C   UNL     1      11.719  -1.373   0.299  0.00  0.00    +0.044 C 
ENDBRANCH  14  23
ENDBRANCH   1  16
TORSDOF 2
