REMARK  Name = ZINC39942256
REMARK  8 active torsions:
REMARK  status: ('A' for Active; 'I' for Inactive)
REMARK    1  A    between atoms: C_1  and  C_2
REMARK    2  A    between atoms: C_2  and  C_4
REMARK    3  A    between atoms: C_2  and  S_17
REMARK    4  A    between atoms: N_6  and  C_7
REMARK    5  A    between atoms: C_7  and  C_8
REMARK    6  A    between atoms: S_17  and  C_18
REMARK    7  A    between atoms: C_22  and  C_27
REMARK    8  A    between atoms: N_23  and  C_24
REMARK                            x       y       z     vdW  Elec       q    Type
REMARK                         _______ _______ _______ _____ _____    ______ ____
ROOT
ATOM      1  C   UNL     1       2.628  -0.030  -1.294  0.00  0.00    +0.238 C 
ATOM      2  N   UNL     1       2.816   1.426  -1.188  0.00  0.00    -0.237 N 
ATOM      3  N   UNL     1       3.201   1.683   0.133  0.00  0.00    -0.169 NA
ATOM      4  C   UNL     1       3.270   0.580   0.830  0.00  0.00    +0.147 C 
ATOM      5  N   UNL     1       2.939  -0.537   0.053  0.00  0.00    -0.282 N 
ATOM      6  H   UNL     1       2.696   2.079  -1.895  0.00  0.00    +0.171 HD
ENDROOT
BRANCH   4   7
ATOM      7  C   UNL     1       3.631   0.521   2.185  0.00  0.00    +0.022 C 
ATOM      8  C   UNL     1       3.876   1.596   3.039  0.00  0.00    +0.006 A 
ATOM      9  C   UNL     1       3.845   2.994   2.846  0.00  0.00    +0.010 A 
ATOM     10  C   UNL     1       4.134   3.823   3.882  0.00  0.00    +0.001 A 
ATOM     11  C   UNL     1       4.464   3.328   5.146  0.00  0.00    +0.002 A 
ATOM     12  C   UNL     1       4.513   1.998   5.402  0.00  0.00    +0.026 A 
ATOM     13  C   UNL     1       4.224   1.069   4.369  0.00  0.00    +0.043 A 
ATOM     14  N   UNL     1       4.202  -0.250   4.363  0.00  0.00    -0.380 N 
ATOM     15  C   UNL     1       3.830  -0.721   3.025  0.00  0.00    +0.152 C 
ATOM     16  H   UNL     1       4.397  -0.818   5.124  0.00  0.00    +0.160 HD
ENDBRANCH   4   7
BRANCH   5  17
ATOM     17  C   UNL     1       2.907  -1.935   0.491  0.00  0.00    +0.078 C 
ATOM     18  C   UNL     1       2.605  -3.000  -0.565  0.00  0.00    +0.024 C 
ATOM     19  C   UNL     1       1.553  -2.646   0.488  0.00  0.00    +0.024 C 
ENDBRANCH   5  17
BRANCH   1  20
ATOM     20  S   UNL     1       0.913  -0.418  -1.738  0.00  0.00    -0.106 S 
BRANCH  20  22
ATOM     21  C   UNL     1       0.104   1.889  -0.511  0.00  0.00    +0.029 C 
ATOM     22  C   UNL     1      -0.068   0.371  -0.431  0.00  0.00    +0.132 C 
BRANCH  22  23
ATOM     23  C   UNL     1      -1.522   0.020  -0.613  0.00  0.00    +0.226 C 
ATOM     24  O   UNL     1      -1.922  -0.368  -1.690  0.00  0.00    -0.275 OA
ATOM     25  N   UNL     1      -2.378   0.138   0.421  0.00  0.00    -0.310 N 
ATOM     26  H   UNL     1      -2.058   0.449   1.282  0.00  0.00    +0.149 HD
BRANCH  25  27
ATOM     27  C   UNL     1      -3.792  -0.203   0.244  0.00  0.00    +0.139 C 
BRANCH  27  28
ATOM     28  C   UNL     1      -4.527   0.014   1.542  0.00  0.00    -0.027 A 
ATOM     29  C   UNL     1      -4.626  -1.015   2.459  0.00  0.00    +0.009 A 
ATOM     30  C   UNL     1      -5.299  -0.821   3.651  0.00  0.00    +0.050 A 
ATOM     31  C   UNL     1      -5.877   0.408   3.928  0.00  0.00    +0.166 A 
ATOM     32  C   UNL     1      -5.777   1.445   3.004  0.00  0.00    +0.167 A 
ATOM     33  C   UNL     1      -5.096   1.244   1.814  0.00  0.00    +0.054 A 
ATOM     34  O   UNL     1      -6.421   2.539   3.505  0.00  0.00    -0.453 OA
ATOM     35  C   UNL     1      -7.263   2.040   4.560  0.00  0.00    +0.466 C 
ATOM     36  O   UNL     1      -6.583   0.853   5.008  0.00  0.00    -0.453 OA
ENDBRANCH  27  28
ENDBRANCH  25  27
ENDBRANCH  22  23
ENDBRANCH  20  22
ENDBRANCH   1  20
TORSDOF 7
