REMARK  Name = ZINC64173255
REMARK  6 active torsions:
REMARK  status: ('A' for Active; 'I' for Inactive)
REMARK    1  A    between atoms: C_7  and  C_10
REMARK    2  A    between atoms: C_10  and  C_11
REMARK    3  A    between atoms: C_11  and  C_13
REMARK    4  A    between atoms: C_11  and  N_25
REMARK    5  A    between atoms: N_15  and  N_16
REMARK    6  A    between atoms: C_26  and  C_28
REMARK                            x       y       z     vdW  Elec       q    Type
REMARK                         _______ _______ _______ _____ _____    ______ ____
ROOT
ATOM      1  C   UNL     1       0.576  -3.621  -1.486  0.00  0.00    +0.165 C 
ENDROOT
BRANCH   1   2
ATOM      2  C   UNL     1      -0.522  -4.606  -1.795  0.00  0.00    +0.252 C 
ATOM      3  O   UNL     1      -0.258  -5.658  -2.338  0.00  0.00    -0.272 OA
ATOM      4  N   UNL     1      -1.798  -4.318  -1.468  0.00  0.00    -0.220 N 
ATOM      5  H   UNL     1      -2.009  -3.476  -1.034  0.00  0.00    +0.176 HD
BRANCH   4   6
ATOM      6  N   UNL     1      -2.818  -5.233  -1.755  0.00  0.00    -0.246 N 
ATOM      7  C   UNL     1      -2.669  -6.447  -2.352  0.00  0.00    +0.219 A 
ATOM      8  N   UNL     1      -3.824  -7.036  -2.464  0.00  0.00    -0.234 NA
ATOM      9  C   UNL     1      -4.794  -6.239  -1.947  0.00  0.00    +0.091 A 
ATOM     10  C   UNL     1      -4.162  -5.074  -1.480  0.00  0.00    +0.088 A 
ATOM     11  C   UNL     1      -4.915  -4.069  -0.889  0.00  0.00    +0.030 A 
ATOM     12  C   UNL     1      -6.279  -4.224  -0.761  0.00  0.00    +0.002 A 
ATOM     13  C   UNL     1      -6.902  -5.375  -1.219  0.00  0.00    +0.002 A 
ATOM     14  C   UNL     1      -6.178  -6.372  -1.810  0.00  0.00    +0.030 A 
ENDBRANCH   4   6
ENDBRANCH   1   2
BRANCH   1  15
ATOM     15  N   UNL     1       1.860  -4.164  -1.937  0.00  0.00    -0.300 N 
ATOM     16  C   UNL     1       2.854  -3.329  -2.298  0.00  0.00    +0.246 C 
ATOM     17  O   UNL     1       2.686  -2.126  -2.251  0.00  0.00    -0.270 OA
ATOM     18  H   UNL     1       1.994  -5.124  -1.974  0.00  0.00    +0.150 HD
BRANCH  16  19
ATOM     19  C   UNL     1       4.149  -3.877  -2.752  0.00  0.00    +0.055 A 
ATOM     20  C   UNL     1       4.344  -5.258  -2.814  0.00  0.00    +0.014 A 
ATOM     21  C   UNL     1       5.555  -5.763  -3.239  0.00  0.00    +0.001 A 
ATOM     22  C   UNL     1       6.577  -4.904  -3.604  0.00  0.00    +0.001 A 
ATOM     23  C   UNL     1       6.393  -3.535  -3.546  0.00  0.00    +0.021 A 
ATOM     24  C   UNL     1       5.183  -3.015  -3.128  0.00  0.00    +0.053 A 
ATOM     25 CL   UNL     1       4.950  -1.296  -3.063  0.00  0.00    -0.083 Cl
ENDBRANCH  16  19
ENDBRANCH   1  15
BRANCH   1  26
ATOM     26  C   UNL     1       0.628  -3.372   0.022  0.00  0.00    +0.065 C 
BRANCH  26  33
ATOM     27  C   UNL     1       4.570  -5.198   1.500  0.00  0.00    +0.001 A 
ATOM     28  C   UNL     1       4.414  -6.444   2.122  0.00  0.00    +0.002 A 
ATOM     29  C   UNL     1       3.212  -7.041   2.269  0.00  0.00    +0.026 A 
ATOM     30  C   UNL     1       2.033  -6.410   1.784  0.00  0.00    +0.043 A 
ATOM     31  N   UNL     1       0.774  -6.778   1.804  0.00  0.00    -0.380 N 
ATOM     32  C   UNL     1      -0.029  -5.735   1.156  0.00  0.00    +0.144 C 
ATOM     33  C   UNL     1       0.949  -4.662   0.733  0.00  0.00    -0.039 C 
ATOM     34  C   UNL     1       2.171  -5.093   1.122  0.00  0.00    -0.001 A 
ATOM     35  C   UNL     1       3.514  -4.514   1.004  0.00  0.00    +0.010 A 
ATOM     36  H   UNL     1       0.432  -7.603   2.183  0.00  0.00    +0.160 HD
ENDBRANCH  26  33
ENDBRANCH   1  26
TORSDOF 6
