REMARK  Name = ZINC40531194
REMARK  3 active torsions:
REMARK  status: ('A' for Active; 'I' for Inactive)
REMARK    1  A    between atoms: C_6  and  C_7
REMARK    2  A    between atoms: N_16  and  C_17
REMARK    3  A    between atoms: C_17  and  C_18
REMARK                            x       y       z     vdW  Elec       q    Type
REMARK                         _______ _______ _______ _____ _____    ______ ____
ROOT
ATOM      1  C   UNL     1      -0.018   1.413   0.101  0.00  0.00    +0.017 A 
ATOM      2  C   UNL     1       1.171   2.103   0.063  0.00  0.00    +0.024 A 
ATOM      3  C   UNL     1       2.380   1.411   0.017  0.00  0.00    +0.041 A 
ATOM      4  C   UNL     1       2.393   0.021   0.012  0.00  0.00    -0.025 A 
ATOM      5  C   UNL     1       1.211  -0.670   0.047  0.00  0.00    +0.020 A 
ATOM      6  C   UNL     1      -0.007   0.014   0.092  0.00  0.00    +0.064 A 
ATOM      7  C   UNL     1       3.684  -0.753  -0.026  0.00  0.00    +0.038 C 
ATOM      8  C   UNL     1       4.818   0.123  -0.558  0.00  0.00    +0.024 C 
ATOM      9  C   UNL     1       4.840   1.439   0.230  0.00  0.00    +0.115 C 
ATOM     10  N   UNL     1       3.572   2.137  -0.025  0.00  0.00    -0.255 N 
ATOM     11  C   UNL     1       3.561   3.457  -0.296  0.00  0.00    +0.307 C 
ATOM     12  O   UNL     1       2.523   4.001  -0.622  0.00  0.00    -0.252 OA
ATOM     13  N   UNL     1       4.698   4.173  -0.207  0.00  0.00    -0.290 N 
ATOM     14  H   UNL     1       5.539   3.727  -0.017  0.00  0.00    +0.151 HD
ENDROOT
BRANCH   6  15
ATOM     15  C   UNL     1      -1.274  -0.735   0.130  0.00  0.00    +0.387 C 
ATOM     16  O   UNL     1      -2.339  -0.134   0.169  0.00  0.00    -0.241 OA
ATOM     17  O   UNL     1      -1.262  -1.958   0.122  0.00  0.00    -0.241 OA
ENDBRANCH   6  15
BRANCH  13  18
ATOM     18  C   UNL     1       4.666   5.626  -0.395  0.00  0.00    +0.201 C 
BRANCH  18  19
ATOM     19  C   UNL     1       6.058   6.183  -0.245  0.00  0.00    +0.228 C 
ATOM     20  O   UNL     1       6.986   5.440  -0.004  0.00  0.00    -0.274 OA
ATOM     21  N   UNL     1       6.272   7.507  -0.379  0.00  0.00    -0.328 N 
ATOM     22  H   UNL     1       5.530   8.101  -0.571  0.00  0.00    +0.145 HD
ATOM     23  H   UNL     1       7.169   7.865  -0.282  0.00  0.00    +0.145 HD
ENDBRANCH  18  19
ENDBRANCH  13  18
TORSDOF 3
