REMARK  Name = ZINC14479005
REMARK  6 active torsions:
REMARK  status: ('A' for Active; 'I' for Inactive)
REMARK    1  A    between atoms: C_1  and  C_2
REMARK    2  A    between atoms: C_2  and  C_3
REMARK    3  A    between atoms: C_3  and  C_4
REMARK    4  A    between atoms: N_6  and  C_7
REMARK    5  A    between atoms: C_20  and  C_23
REMARK    6  A    between atoms: C_28  and  C_29
REMARK                            x       y       z     vdW  Elec       q    Type
REMARK                         _______ _______ _______ _____ _____    ______ ____
ROOT
ATOM      1  C   UNL     1       3.073   1.071   2.644  0.00  0.00    +0.039 A 
ATOM      2  C   UNL     1       3.675  -0.073   2.143  0.00  0.00    +0.025 A 
ATOM      3  C   UNL     1       4.112  -0.106   0.833  0.00  0.00    +0.023 A 
ATOM      4  C   UNL     1       3.950   1.003   0.027  0.00  0.00    +0.062 A 
ATOM      5  C   UNL     1       3.345   2.158   0.526  0.00  0.00    +0.052 A 
ATOM      6  C   UNL     1       2.905   2.194   1.835  0.00  0.00    +0.003 A 
ATOM      7  C   UNL     1       2.241   3.401   2.443  0.00  0.00    +0.050 C 
ATOM      8  C   UNL     1       3.118   3.922   3.570  0.00  0.00    -0.023 C 
ATOM      9  C   UNL     1       3.869   4.908   3.150  0.00  0.00    -0.030 C 
ATOM     10  C   UNL     1       3.607   5.189   1.683  0.00  0.00    +0.033 C 
ATOM     11  C   UNL     1       2.201   4.581   1.452  0.00  0.00    +0.029 C 
ATOM     12  C   UNL     1       2.072   4.075   0.024  0.00  0.00    +0.105 C 
ATOM     13  N   UNL     1       3.236   3.258  -0.323  0.00  0.00    -0.335 N 
ATOM     14 CL   UNL     1       4.501   0.961  -1.619  0.00  0.00    -0.082 Cl
ATOM     15  H   UNL     1       3.193   2.957  -1.285  0.00  0.00    +0.147 HD
ENDROOT
BRANCH  12  16
ATOM     16  C   UNL     1       0.822   3.244  -0.102  0.00  0.00    -0.024 A 
ATOM     17  C   UNL     1      -0.073   3.179   0.950  0.00  0.00    +0.006 A 
ATOM     18  C   UNL     1      -1.221   2.417   0.835  0.00  0.00    +0.000 A 
ATOM     19  C   UNL     1      -1.470   1.715  -0.330  0.00  0.00    +0.000 A 
ATOM     20  C   UNL     1      -0.577   1.783  -1.383  0.00  0.00    +0.004 A 
ATOM     21  C   UNL     1       0.570   2.546  -1.268  0.00  0.00    -0.045 A 
ATOM     22  C   UNL     1       1.546   2.617  -2.414  0.00  0.00    +0.044 C 
ENDBRANCH  12  16
BRANCH   1  25
ATOM     23  C   UNL     1       3.304   0.418   4.921  0.00  0.00    +0.217 C 
ATOM     24  O   UNL     1       4.340  -0.148   4.641  0.00  0.00    -0.275 OA
ATOM     25  N   UNL     1       2.631   1.099   3.972  0.00  0.00    -0.285 N 
ATOM     26  H   UNL     1       1.841   1.609   4.210  0.00  0.00    +0.155 HD
BRANCH  23  27
ATOM     27  C   UNL     1       2.770   0.359   6.328  0.00  0.00    +0.096 C 
BRANCH  27  29
ATOM     28  C   UNL     1       3.173  -0.530   8.628  0.00  0.00    +0.004 C 
ATOM     29  C   UNL     1       3.716  -0.471   7.199  0.00  0.00    +0.006 C 
ENDBRANCH  27  29
ENDBRANCH  23  27
ENDBRANCH   1  25
TORSDOF 4
