REMARK  Name = ZINC13063803
REMARK  19 active torsions:
REMARK  status: ('A' for Active; 'I' for Inactive)
REMARK    1  A    between atoms: C_1  and  C_2
REMARK    2  A    between atoms: C_2  and  C_3
REMARK    3  A    between atoms: C_3  and  C_5
REMARK    4  A    between atoms: C_3  and  N_79
REMARK    5  A    between atoms: N_9  and  C_10
REMARK    6  A    between atoms: C_10  and  C_11
REMARK    7  A    between atoms: C_10  and  C_12
REMARK    8  A    between atoms: C_10  and  C_13
REMARK    9  A    between atoms: C_13  and  C_14
REMARK   10  A    between atoms: C_15  and  C_16
REMARK   11  A    between atoms: C_15  and  N_79
REMARK   12  A    between atoms: C_16  and  C_17
REMARK   13  A    between atoms: C_20  and  O_25
REMARK   14  A    between atoms: C_21  and  O_23
REMARK   15  A    between atoms: O_23  and  C_24
REMARK   16  A    between atoms: O_25  and  C_26
REMARK   17  A    between atoms: C_27  and  C_28
REMARK   18  A    between atoms: C_27  and  N_79
REMARK   19  A    between atoms: C_33  and  C_40
REMARK                            x       y       z     vdW  Elec       q    Type
REMARK                         _______ _______ _______ _____ _____    ______ ____
ROOT
ATOM      1  N   UNL     1       0.108  -0.261  -0.306  0.00  0.00    +0.389 N 
ATOM      2  H   UNL     1       0.879   0.414  -0.366  0.00  0.00    -0.080 HD
ENDROOT
BRANCH   1   3
ATOM      3  C   UNL     1      -0.943   0.288   0.576  0.00  0.00    +0.003 C 
BRANCH   3   4
ATOM      4  C   UNL     1      -0.301   1.238   1.553  0.00  0.00    +0.139 A 
ATOM      5  N   UNL     1       0.861   1.088   2.141  0.00  0.00    -0.115 NA
ATOM      6  N   UNL     1       1.058   2.111   2.900  0.00  0.00    -0.023 NA
ATOM      7  N   UNL     1       0.048   2.905   2.817  0.00  0.00    -0.043 NA
ATOM      8  N   UNL     1      -0.811   2.402   1.996  0.00  0.00    -0.225 N 
BRANCH   8   9
ATOM      9  C   UNL     1      -2.100   2.987   1.618  0.00  0.00    +0.061 C 
ATOM     10  C   UNL     1      -2.070   3.374   0.139  0.00  0.00    +0.036 C 
ATOM     11  C   UNL     1      -3.213   1.965   1.856  0.00  0.00    +0.036 C 
BRANCH   9  12
ATOM     12  C   UNL     1      -2.362   4.233   2.466  0.00  0.00    +0.026 C 
ATOM     13  C   UNL     1      -3.708   4.844   2.072  0.00  0.00    +0.006 C 
ENDBRANCH   9  12
ENDBRANCH   8   9
ENDBRANCH   3   4
BRANCH   3  15
ATOM     14  C   UNL     1      -2.369  -1.752   0.355  0.00  0.00    +0.002 C 
ATOM     15  C   UNL     1      -1.637  -0.840   1.342  0.00  0.00    -0.011 C 
ENDBRANCH   3  15
ENDBRANCH   1   3
BRANCH   1  16
ATOM     16  C   UNL     1      -0.437  -0.488  -1.661  0.00  0.00    -0.073 C 
BRANCH  16  17
ATOM     17  C   UNL     1      -0.504   0.853  -2.394  0.00  0.00    +0.017 C 
BRANCH  17  18
ATOM     18  C   UNL     1      -1.141   0.656  -3.745  0.00  0.00    -0.045 A 
ATOM     19  C   UNL     1      -0.353   0.364  -4.843  0.00  0.00    +0.007 A 
ATOM     20  C   UNL     1      -0.932   0.177  -6.084  0.00  0.00    +0.049 A 
ATOM     21  C   UNL     1      -2.305   0.292  -6.232  0.00  0.00    +0.161 A 
ATOM     22  C   UNL     1      -3.098   0.591  -5.128  0.00  0.00    +0.162 A 
ATOM     23  C   UNL     1      -2.511   0.772  -3.886  0.00  0.00    +0.053 A 
BRANCH  22  24
ATOM     24  O   UNL     1      -4.446   0.705  -5.268  0.00  0.00    -0.491 OA
ATOM     25  C   UNL     1      -5.197   1.013  -4.092  0.00  0.00    +0.277 C 
ENDBRANCH  22  24
BRANCH  21  26
ATOM     26  O   UNL     1      -2.877   0.113  -7.453  0.00  0.00    -0.491 OA
ATOM     27  C   UNL     1      -2.001  -0.191  -8.541  0.00  0.00    +0.277 C 
ENDBRANCH  21  26
ENDBRANCH  17  18
ENDBRANCH  16  17
ENDBRANCH   1  16
BRANCH   1  28
ATOM     28  C   UNL     1       0.623  -1.530   0.251  0.00  0.00    -0.037 C 
BRANCH  28  29
ATOM     29  C   UNL     1       1.563  -1.212   1.385  0.00  0.00    +0.001 A 
ATOM     30  C   UNL     1       1.173  -1.426   2.666  0.00  0.00    +0.017 A 
ATOM     31  C   UNL     1       2.109  -1.107   3.745  0.00  0.00    -0.001 A 
ATOM     32  C   UNL     1       1.763  -1.306   5.086  0.00  0.00    +0.010 A 
ATOM     33  C   UNL     1       2.660  -1.000   6.069  0.00  0.00    +0.004 A 
ATOM     34  C   UNL     1       3.912  -0.492   5.750  0.00  0.00    -0.048 A 
ATOM     35  C   UNL     1       4.275  -0.288   4.436  0.00  0.00    +0.029 A 
ATOM     36  C   UNL     1       3.378  -0.593   3.417  0.00  0.00    +0.049 A 
ATOM     37  N   UNL     1       3.714  -0.400   2.095  0.00  0.00    -0.322 N 
ATOM     38  H   UNL     1       4.589  -0.045   1.871  0.00  0.00    +0.169 HD
ATOM     39  C   UNL     1       2.849  -0.700   1.110  0.00  0.00    +0.251 A 
ATOM     40  O   UNL     1       3.182  -0.520  -0.049  0.00  0.00    -0.268 OA
ATOM     41  C   UNL     1       4.886  -0.161   6.852  0.00  0.00    +0.044 C 
ENDBRANCH  28  29
ENDBRANCH   1  28
TORSDOF 12
