REMARK  Name = ZINC22728226
REMARK  5 active torsions:
REMARK  status: ('A' for Active; 'I' for Inactive)
REMARK    1  A    between atoms: C_1  and  C_2
REMARK    2  A    between atoms: C_2  and  C_3
REMARK    3  A    between atoms: C_2  and  N_13
REMARK    4  A    between atoms: C_14  and  C_15
REMARK    5  A    between atoms: C_17  and  N_22
REMARK                            x       y       z     vdW  Elec       q    Type
REMARK                         _______ _______ _______ _____ _____    ______ ____
ROOT
ATOM      1  N   UNL     1       0.648  -0.330   1.311  0.00  0.00    -0.383 N 
ATOM      2  C   UNL     1       0.078  -1.274   2.074  0.00  0.00    +0.090 C 
ATOM      3  H   UNL     1       1.525   0.015   1.541  0.00  0.00    +0.160 HD
ENDROOT
BRANCH   2   4
ATOM      4  C   UNL     1       0.781  -1.822   3.150  0.00  0.00    +0.039 A 
ATOM      5  C   UNL     1       0.158  -2.733   4.030  0.00  0.00    +0.045 A 
ATOM      6  C   UNL     1       0.858  -3.255   5.071  0.00  0.00    +0.127 A 
ATOM      7  C   UNL     1       2.189  -2.913   5.297  0.00  0.00    +0.036 A 
ATOM      8  C   UNL     1       2.848  -2.041   4.486  0.00  0.00    +0.054 A 
ATOM      9  C   UNL     1       2.186  -1.468   3.386  0.00  0.00    +0.188 A 
ATOM     10  O   UNL     1       2.767  -0.687   2.645  0.00  0.00    -0.287 OA
BRANCH   6  11
ATOM     11  N   UNL     1       0.191  -4.209   5.986  0.00  0.00    +0.056 N 
ATOM     12  O   UNL     1      -0.964  -4.515   5.803  0.00  0.00    -0.126 OA
ATOM     13  O   UNL     1       0.802  -4.682   6.916  0.00  0.00    -0.126 OA
ENDBRANCH   6  11
ENDBRANCH   2   4
BRANCH   1  15
ATOM     14  C   UNL     1      -0.276   1.687   0.281  0.00  0.00    +0.035 C 
ATOM     15  C   UNL     1      -0.053   0.181   0.130  0.00  0.00    +0.106 C 
BRANCH  15  16
ATOM     16  C   UNL     1       0.776  -0.083  -1.100  0.00  0.00    -0.022 A 
ATOM     17  C   UNL     1       2.149   0.076  -1.054  0.00  0.00    +0.009 A 
ATOM     18  C   UNL     1       2.913  -0.164  -2.181  0.00  0.00    +0.050 A 
ATOM     19  C   UNL     1       2.304  -0.566  -3.360  0.00  0.00    +0.162 A 
ATOM     20  C   UNL     1       0.924  -0.728  -3.406  0.00  0.00    +0.162 A 
ATOM     21  C   UNL     1       0.164  -0.489  -2.270  0.00  0.00    +0.055 A 
ATOM     22  O   UNL     1       0.307  -1.128  -4.551  0.00  0.00    -0.485 OA
ATOM     23  C   UNL     1       1.057  -1.003  -5.764  0.00  0.00    +0.270 C 
ATOM     24  C   UNL     1       2.467  -1.555  -5.516  0.00  0.00    +0.270 C 
ATOM     25  O   UNL     1       3.068  -0.794  -4.463  0.00  0.00    -0.485 OA
ENDBRANCH  15  16
ENDBRANCH   1  15
TORSDOF 4
