REMARK  Name = ZINC39476237
REMARK  13 active torsions:
REMARK  status: ('A' for Active; 'I' for Inactive)
REMARK    1  A    between atoms: C_1  and  C_2
REMARK    2  A    between atoms: C_2  and  C_3
REMARK    3  A    between atoms: C_3  and  C_4
REMARK    4  A    between atoms: C_4  and  N_5
REMARK    5  A    between atoms: N_5  and  C_6
REMARK    6  A    between atoms: C_7  and  N_18
REMARK    7  A    between atoms: N_8  and  C_15
REMARK    8  A    between atoms: C_15  and  C_16
REMARK    9  A    between atoms: C_16  and  C_17
REMARK   10  A    between atoms: C_19  and  C_21
REMARK   11  A    between atoms: C_21  and  O_22
REMARK   12  A    between atoms: O_22  and  C_23
REMARK   13  A    between atoms: C_23  and  C_25
REMARK                            x       y       z     vdW  Elec       q    Type
REMARK                         _______ _______ _______ _____ _____    ______ ____
ROOT
ATOM      1  N   UNL     1       1.420  -2.502  -2.465  0.00  0.00    -0.261 N 
ATOM      2  C   UNL     1       0.627  -2.825  -3.508  0.00  0.00    +0.258 C 
ATOM      3  O   UNL     1       1.109  -3.319  -4.506  0.00  0.00    -0.272 OA
ENDROOT
BRANCH   1   4
ATOM      4  C   UNL     1       2.820  -2.633  -2.576  0.00  0.00    +0.140 A 
ATOM      5  C   UNL     1       3.501  -3.555  -1.808  0.00  0.00    +0.127 A 
ATOM      6  N   UNL     1       4.867  -3.660  -1.938  0.00  0.00    -0.280 N 
ATOM      7  C   UNL     1       5.530  -2.873  -2.804  0.00  0.00    +0.331 A 
ATOM      8  O   UNL     1       6.737  -2.980  -2.904  0.00  0.00    -0.246 OA
ATOM      9  N   UNL     1       4.883  -1.969  -3.561  0.00  0.00    -0.273 N 
ATOM     10  H   UNL     1       5.384  -1.413  -4.178  0.00  0.00    +0.173 HD
ATOM     11  C   UNL     1       3.546  -1.830  -3.476  0.00  0.00    +0.277 A 
ATOM     12  O   UNL     1       2.968  -1.011  -4.170  0.00  0.00    -0.266 OA
BRANCH   5  13
ATOM     13  N   UNL     1       2.824  -4.359  -0.922  0.00  0.00    -0.343 N 
ATOM     14  H   UNL     1       1.872  -4.231  -0.782  0.00  0.00    +0.144 HD
ATOM     15  H   UNL     1       3.297  -5.053  -0.438  0.00  0.00    +0.144 HD
ENDBRANCH   5  13
BRANCH   6  16
ATOM     16  C   UNL     1       5.603  -4.635  -1.129  0.00  0.00    +0.128 C 
BRANCH  16  17
ATOM     17  C   UNL     1       5.684  -5.964  -1.881  0.00  0.00    +0.018 C 
ATOM     18  C   UNL     1       6.453  -6.982  -1.036  0.00  0.00    +0.005 C 
ENDBRANCH  16  17
ENDBRANCH   6  16
ENDBRANCH   1   4
BRANCH   1  19
ATOM     19  C   UNL     1       0.826  -2.014  -1.217  0.00  0.00    +0.114 C 
BRANCH  19  20
ATOM     20  C   UNL     1       0.816  -0.484  -1.221  0.00  0.00    +0.019 C 
BRANCH  20  22
ATOM     21  C   UNL     1       0.186   1.555   0.078  0.00  0.00    +0.004 C 
ATOM     22  C   UNL     1       0.196   0.025   0.082  0.00  0.00    -0.002 C 
ENDBRANCH  20  22
ENDBRANCH  19  20
ENDBRANCH   1  19
BRANCH   2  23
ATOM     23  C   UNL     1      -0.857  -2.572  -3.434  0.00  0.00    +0.328 C 
BRANCH  23  24
ATOM     24  O   UNL     1      -1.474  -2.995  -4.651  0.00  0.00    -0.451 OA
BRANCH  24  25
ATOM     25  C   UNL     1      -2.810  -2.837  -4.748  0.00  0.00    +0.346 C 
ATOM     26  O   UNL     1      -3.434  -2.352  -3.823  0.00  0.00    -0.244 OA
BRANCH  25  27
ATOM     27  C   UNL     1      -3.509  -3.248  -5.966  0.00  0.00    +0.097 A 
ATOM     28  C   UNL     1      -4.861  -3.167  -6.268  0.00  0.00    +0.024 A 
ATOM     29  C   UNL     1      -5.225  -3.638  -7.505  0.00  0.00    +0.024 A 
ATOM     30  C   UNL     1      -4.268  -4.137  -8.329  0.00  0.00    +0.056 A 
ATOM     31  S   UNL     1      -2.845  -3.975  -7.452  0.00  0.00    -0.075 S 
ATOM     32 BR   UNL     1      -4.486  -4.844 -10.069  0.00  0.00    -0.043 Br
ENDBRANCH  25  27
ENDBRANCH  24  25
ENDBRANCH  23  24
ENDBRANCH   2  23
TORSDOF 11
