REMARK  Name = ZINC25782360
REMARK  6 active torsions:
REMARK  status: ('A' for Active; 'I' for Inactive)
REMARK    1  A    between atoms: C_3  and  N_33
REMARK    2  A    between atoms: C_6  and  C_7
REMARK    3  A    between atoms: C_9  and  C_31
REMARK    4  A    between atoms: C_10  and  N_30
REMARK    5  A    between atoms: N_11  and  C_19
REMARK    6  A    between atoms: C_21  and  C_26
REMARK                            x       y       z     vdW  Elec       q    Type
REMARK                         _______ _______ _______ _____ _____    ______ ____
ROOT
ATOM      1  C   UNL     1       2.479   1.298  -0.008  0.00  0.00    +0.097 C 
ATOM      2  C   UNL     1       1.136   1.963   0.074  0.00  0.00    +0.077 C 
ATOM      3  C   UNL     1      -0.011   1.237   0.020  0.00  0.00    +0.107 C 
ATOM      4  N   UNL     1       0.044  -0.131  -0.120  0.00  0.00    -0.259 N 
ATOM      5  C   UNL     1       1.176  -0.736  -0.602  0.00  0.00    +0.025 C 
ATOM      6  C   UNL     1       2.364  -0.095  -0.574  0.00  0.00    +0.025 C 
ATOM      7  C   UNL     1       3.529  -0.707  -1.066  0.00  0.00    +0.162 C 
ATOM      8  O   UNL     1       4.579  -0.096  -1.044  0.00  0.00    -0.292 OA
ATOM      9  C   UNL     1       3.501  -2.105  -1.621  0.00  0.00    +0.080 C 
ATOM     10  C   UNL     1       2.370  -2.887  -0.944  0.00  0.00    +0.014 C 
ATOM     11  C   UNL     1       1.058  -2.131  -1.165  0.00  0.00    +0.052 C 
ENDROOT
BRANCH   4  12
ATOM     12  C   UNL     1      -1.064  -0.910   0.231  0.00  0.00    +0.058 A 
ATOM     13  C   UNL     1      -1.182  -1.411   1.521  0.00  0.00    +0.037 A 
ATOM     14  C   UNL     1      -2.277  -2.180   1.865  0.00  0.00    +0.057 A 
ATOM     15  C   UNL     1      -3.257  -2.450   0.926  0.00  0.00    +0.014 A 
ATOM     16  C   UNL     1      -3.143  -1.953  -0.359  0.00  0.00    +0.022 A 
ATOM     17  C   UNL     1      -2.052  -1.180  -0.709  0.00  0.00    +0.063 A 
ATOM     18 CL   UNL     1      -1.914  -0.550  -2.320  0.00  0.00    -0.082 Cl
BRANCH  14  19
ATOM     19  C   UNL     1      -2.405  -2.724   3.264  0.00  0.00    +0.417 C 
ATOM     20  F   UNL     1      -3.095  -1.803   4.061  0.00  0.00    -0.166 F 
ATOM     21  F   UNL     1      -3.110  -3.932   3.232  0.00  0.00    -0.166 F 
ATOM     22  F   UNL     1      -1.131  -2.941   3.799  0.00  0.00    -0.166 F 
ENDBRANCH  14  19
ENDBRANCH   4  12
BRANCH   1  28
ATOM     23  C   UNL     1       2.454   0.479   2.357  0.00  0.00    +0.007 A 
ATOM     24  C   UNL     1       3.005   0.406   3.622  0.00  0.00    +0.033 A 
ATOM     25  C   UNL     1       4.175   1.085   3.907  0.00  0.00    +0.126 A 
ATOM     26  C   UNL     1       4.796   1.834   2.924  0.00  0.00    +0.033 A 
ATOM     27  C   UNL     1       4.247   1.903   1.657  0.00  0.00    +0.007 A 
ATOM     28  C   UNL     1       3.077   1.223   1.373  0.00  0.00    -0.035 A 
BRANCH  25  29
ATOM     29  N   UNL     1       4.762   1.012   5.263  0.00  0.00    +0.056 N 
ATOM     30  O   UNL     1       5.792   1.611   5.514  0.00  0.00    -0.126 OA
ATOM     31  O   UNL     1       4.215   0.353   6.129  0.00  0.00    -0.126 OA
ENDBRANCH  25  29
ENDBRANCH   1  28
BRANCH   3  32
ATOM     32  N   UNL     1      -1.228   1.871   0.100  0.00  0.00    -0.345 N 
ATOM     33  H   UNL     1      -2.157   1.284   0.057  0.00  0.00    +0.144 HD
ATOM     34  H   UNL     1      -1.273   2.964   0.208  0.00  0.00    +0.144 HD
ENDBRANCH   3  32
BRANCH   2  35
ATOM     35  C   UNL     1       1.063   3.387   0.210  0.00  0.00    +0.099 C 
ATOM     36  N   UNL     1       1.004   4.516   0.319  0.00  0.00    -0.191 NA
ENDBRANCH   2  35
TORSDOF 6
