REMARK  Name = ZINC62777434
REMARK  3 active torsions:
REMARK  status: ('A' for Active; 'I' for Inactive)
REMARK    1  A    between atoms: C_6  and  C_7
REMARK    2  A    between atoms: C_7  and  C_9
REMARK    3  A    between atoms: C_7  and  N_22
REMARK                            x       y       z     vdW  Elec       q    Type
REMARK                         _______ _______ _______ _____ _____    ______ ____
ROOT
ATOM      1  C   UNL     1       1.188  -1.833   1.145  0.00  0.00    -0.040 A 
ATOM      2  C   UNL     1       1.822  -1.514   2.329  0.00  0.00    +0.031 A 
ATOM      3  C   UNL     1       1.779  -2.398   3.396  0.00  0.00    +0.067 A 
ATOM      4  C   UNL     1       1.095  -3.609   3.268  0.00  0.00    +0.068 A 
ATOM      5  C   UNL     1       0.461  -3.921   2.076  0.00  0.00    +0.043 A 
ATOM      6  C   UNL     1       0.504  -3.030   1.020  0.00  0.00    +0.022 A 
ATOM      7 BR   UNL     1      -0.367  -3.452  -0.605  0.00  0.00    -0.050 Br
ATOM      8  N   UNL     1       1.225  -4.275   4.484  0.00  0.00    -0.306 N 
ATOM      9  H   UNL     1       0.854  -5.145   4.698  0.00  0.00    +0.170 HD
ATOM     10  C   UNL     1       1.955  -3.506   5.314  0.00  0.00    +0.325 A 
ATOM     11  O   UNL     1       2.255  -3.796   6.457  0.00  0.00    -0.247 OA
ATOM     12  N   UNL     1       2.304  -2.367   4.686  0.00  0.00    -0.306 N 
ATOM     13  H   UNL     1       2.832  -1.647   5.067  0.00  0.00    +0.170 HD
ENDROOT
BRANCH   1  14
ATOM     14  C   UNL     1       1.235  -0.871  -0.014  0.00  0.00    +0.009 C 
BRANCH  14  20
ATOM     15  C   UNL     1      -0.017   1.395   0.010  0.00  0.00    +0.042 A 
ATOM     16  C   UNL     1      -1.310   1.793   0.018  0.00  0.00    +0.105 A 
ATOM     17  N   UNL     1      -2.082   0.686   0.016  0.00  0.00    -0.285 N 
ATOM     18  N   UNL     1      -1.235  -0.430   0.006  0.00  0.00    -0.180 NA
ATOM     19  H   UNL     1      -3.052   0.667   0.021  0.00  0.00    +0.188 HD
ATOM     20  C   UNL     1       0.002  -0.004   0.002  0.00  0.00    +0.053 A 
ENDBRANCH  14  20
BRANCH  14  21
ATOM     21  N   UNL     1       2.430  -0.025   0.099  0.00  0.00    +0.386 N 
ATOM     22  H   UNL     1       2.394   0.493   0.965  0.00  0.00    -0.089 HD
ATOM     23  H   UNL     1       3.255  -0.605   0.088  0.00  0.00    -0.089 HD
ATOM     24  H   UNL     1       2.461   0.619  -0.677  0.00  0.00    -0.089 HD
ENDBRANCH  14  21
ENDBRANCH   1  14
TORSDOF 3
