REMARK  Name = ZINC12220626
REMARK  11 active torsions:
REMARK  status: ('A' for Active; 'I' for Inactive)
REMARK    1  A    between atoms: C_1  and  C_2
REMARK    2  A    between atoms: C_2  and  C_3
REMARK    3  A    between atoms: C_2  and  N_4
REMARK    4  A    between atoms: C_8  and  S_14
REMARK    5  A    between atoms: S_14  and  N_17
REMARK    6  A    between atoms: N_17  and  C_18
REMARK    7  A    between atoms: C_18  and  C_19
REMARK    8  A    between atoms: C_19  and  C_21
REMARK    9  A    between atoms: C_19  and  N_53
REMARK   10  A    between atoms: C_28  and  N_53
REMARK   11  A    between atoms: C_29  and  N_53
REMARK                            x       y       z     vdW  Elec       q    Type
REMARK                         _______ _______ _______ _____ _____    ______ ____
ROOT
ATOM      1  S   UNL     1       2.336   0.612  -0.299  0.00  0.00    +0.058 S 
ATOM      2  O   UNL     1       3.318   1.298   0.465  0.00  0.00    -0.153 OA
ATOM      3  O   UNL     1       1.901  -0.702   0.023  0.00  0.00    -0.153 OA
ENDROOT
BRANCH   1   8
ATOM      4  N   UNL     1      -2.642   3.768  -0.362  0.00  0.00    -0.272 N 
ATOM      5  C   UNL     1      -1.353   3.239  -0.304  0.00  0.00    +0.091 A 
ATOM      6  C   UNL     1      -0.103   3.799  -0.090  0.00  0.00    +0.031 A 
ATOM      7  C   UNL     1       1.020   2.993  -0.089  0.00  0.00    +0.031 A 
ATOM      8  C   UNL     1       0.899   1.631  -0.302  0.00  0.00    +0.109 A 
ATOM      9  C   UNL     1      -0.344   1.066  -0.516  0.00  0.00    +0.077 A 
ATOM     10  C   UNL     1      -1.475   1.867  -0.524  0.00  0.00    +0.159 A 
ATOM     11  O   UNL     1      -2.793   1.603  -0.696  0.00  0.00    -0.407 OA
ATOM     12  C   UNL     1      -3.489   2.748  -0.601  0.00  0.00    +0.421 A 
ATOM     13  O   UNL     1      -4.695   2.848  -0.713  0.00  0.00    -0.223 OA
BRANCH   4  15
ATOM     14  C   UNL     1      -3.701   5.679  -1.462  0.00  0.00    +0.031 C 
ATOM     15  C   UNL     1      -3.008   5.177  -0.193  0.00  0.00    +0.088 C 
ATOM     16  C   UNL     1      -3.959   5.318   0.997  0.00  0.00    +0.031 C 
ENDBRANCH   4  15
ENDBRANCH   1   8
BRANCH   1  17
ATOM     17  N   UNL     1       2.900   0.556  -1.855  0.00  0.00    -0.191 NA
ATOM     18  H   UNL     1       2.898  -0.283  -2.342  0.00  0.00    +0.148 HD
BRANCH  17  19
ATOM     19  C   UNL     1       3.403   1.774  -2.495  0.00  0.00    +0.095 C 
BRANCH  19  20
ATOM     20  C   UNL     1       4.280   1.397  -3.691  0.00  0.00    -0.023 C 
BRANCH  20  21
ATOM     21  C   UNL     1       4.775   2.650  -4.366  0.00  0.00    -0.060 A 
ATOM     22  C   UNL     1       5.785   3.394  -3.786  0.00  0.00    +0.005 A 
ATOM     23  C   UNL     1       6.244   4.540  -4.407  0.00  0.00    +0.038 A 
ATOM     24  C   UNL     1       5.683   4.949  -5.605  0.00  0.00    +0.123 A 
ATOM     25  C   UNL     1       4.667   4.206  -6.182  0.00  0.00    +0.038 A 
ATOM     26  C   UNL     1       4.214   3.057  -5.562  0.00  0.00    +0.005 A 
ATOM     27  F   UNL     1       6.126   6.073  -6.210  0.00  0.00    -0.205 F 
ENDBRANCH  20  21
BRANCH  20  30
ATOM     28  C   UNL     1       5.781   0.953  -1.844  0.00  0.00    -0.096 C 
ATOM     29  C   UNL     1       5.160  -0.834  -3.356  0.00  0.00    -0.096 C 
ATOM     30  N   UNL     1       5.449   0.611  -3.243  0.00  0.00    +0.381 N 
ATOM     31  H   UNL     1       6.252   0.838  -3.841  0.00  0.00    -0.082 HD
ENDBRANCH  20  30
ENDBRANCH  19  20
ENDBRANCH  17  19
ENDBRANCH   1  17
TORSDOF 7
