REMARK  Name = ZINC39664728
REMARK  9 active torsions:
REMARK  status: ('A' for Active; 'I' for Inactive)
REMARK    1  A    between atoms: C_1  and  C_2
REMARK    2  A    between atoms: C_6  and  C_9
REMARK    3  A    between atoms: C_13  and  C_22
REMARK    4  A    between atoms: N_24  and  C_25
REMARK    5  A    between atoms: C_25  and  C_27
REMARK    6  A    between atoms: C_25  and  C_31
REMARK    7  A    between atoms: C_27  and  N_28
REMARK    8  A    between atoms: N_28  and  C_29
REMARK    9  A    between atoms: N_28  and  C_30
REMARK                            x       y       z     vdW  Elec       q    Type
REMARK                         _______ _______ _______ _____ _____    ______ ____
ROOT
ATOM      1  C   UNL     1      -0.356  -2.943   3.504  0.00  0.00    +0.252 C 
ATOM      2  O   UNL     1       0.692  -3.251   4.038  0.00  0.00    -0.270 OA
ATOM      3  N   UNL     1      -1.520  -3.448   3.960  0.00  0.00    -0.296 N 
ATOM      4  C   UNL     1      -2.884  -3.198   3.440  0.00  0.00    +0.121 C 
ATOM      5  C   UNL     1      -3.592  -4.569   3.524  0.00  0.00    +0.100 C 
ATOM      6  C   UNL     1      -2.826  -5.339   4.613  0.00  0.00    -0.004 C 
ATOM      7  C   UNL     1      -1.722  -4.385   5.091  0.00  0.00    +0.115 C 
ATOM      8  C   UNL     1      -2.206  -6.604   4.028  0.00  0.00    -0.010 C 
ATOM      9  C   UNL     1      -1.498  -7.382   5.141  0.00  0.00    -0.082 C 
ATOM     10  N   UNL     1      -2.466  -7.727   6.190  0.00  0.00    +0.379 N 
ATOM     11  C   UNL     1      -2.989  -6.505   6.811  0.00  0.00    -0.082 C 
ATOM     12  C   UNL     1      -3.759  -5.689   5.768  0.00  0.00    -0.010 C 
ATOM     13  H   UNL     1      -3.228  -8.249   5.784  0.00  0.00    -0.086 HD
ATOM     14  H   UNL     1      -2.011  -8.292   6.892  0.00  0.00    -0.086 HD
ENDROOT
BRANCH   1  20
ATOM     15  C   UNL     1      -0.579   1.710   1.707  0.00  0.00    +0.047 C 
ATOM     16  C   UNL     1      -0.461   0.224   1.484  0.00  0.00    -0.014 A 
ATOM     17  C   UNL     1      -0.350  -0.274   0.199  0.00  0.00    +0.009 A 
ATOM     18  C   UNL     1      -0.241  -1.635  -0.017  0.00  0.00    +0.039 A 
ATOM     19  C   UNL     1      -0.242  -2.511   1.052  0.00  0.00    +0.138 A 
ATOM     20  C   UNL     1      -0.354  -2.016   2.356  0.00  0.00    +0.107 A 
ATOM     21  C   UNL     1      -0.458  -0.636   2.566  0.00  0.00    +0.141 A 
ATOM     22  F   UNL     1      -0.560  -0.148   3.821  0.00  0.00    -0.204 F 
ATOM     23  F   UNL     1      -0.137  -3.841   0.839  0.00  0.00    -0.205 F 
ENDBRANCH   1  20
BRANCH   5  24
ATOM     24  C   UNL     1      -3.499  -5.289   2.204  0.00  0.00    +0.219 C 
ATOM     25  O   UNL     1      -2.593  -5.037   1.438  0.00  0.00    -0.275 OA
ATOM     26  N   UNL     1      -4.422  -6.214   1.874  0.00  0.00    -0.310 N 
ATOM     27  H   UNL     1      -5.170  -6.385   2.467  0.00  0.00    +0.149 HD
BRANCH  26  28
ATOM     28  C   UNL     1      -4.296  -6.960   0.620  0.00  0.00    +0.087 C 
BRANCH  28  29
ATOM     29  C   UNL     1      -5.669  -7.296   0.095  0.00  0.00    -0.029 A 
ATOM     30  C   UNL     1      -6.668  -7.682   0.969  0.00  0.00    +0.005 A 
ATOM     31  C   UNL     1      -7.926  -7.990   0.488  0.00  0.00    +0.000 A 
ATOM     32  C   UNL     1      -8.186  -7.911  -0.867  0.00  0.00    +0.000 A 
ATOM     33  C   UNL     1      -7.188  -7.524  -1.742  0.00  0.00    +0.000 A 
ATOM     34  C   UNL     1      -5.930  -7.212  -1.260  0.00  0.00    +0.005 A 
ENDBRANCH  28  29
BRANCH  28  35
ATOM     35  C   UNL     1      -3.516  -8.252   0.871  0.00  0.00    -0.052 C 
BRANCH  35  36
ATOM     36  N   UNL     1      -2.135  -7.924   1.250  0.00  0.00    +0.377 N 
ATOM     37  C   UNL     1      -1.435  -9.150   1.654  0.00  0.00    -0.097 C 
ATOM     38  C   UNL     1      -1.443  -7.320   0.104  0.00  0.00    -0.097 C 
ATOM     39  H   UNL     1      -2.144  -7.272   2.020  0.00  0.00    -0.083 HD
ENDBRANCH  35  36
ENDBRANCH  28  35
ENDBRANCH  26  28
ENDBRANCH   5  24
TORSDOF 6
