REMARK  Name = ZINC13065133
REMARK  13 active torsions:
REMARK  status: ('A' for Active; 'I' for Inactive)
REMARK    1  A    between atoms: C_1  and  C_2
REMARK    2  A    between atoms: C_2  and  C_3
REMARK    3  A    between atoms: C_3  and  C_5
REMARK    4  A    between atoms: C_3  and  N_69
REMARK    5  A    between atoms: N_9  and  C_10
REMARK    6  A    between atoms: C_10  and  C_11
REMARK    7  A    between atoms: C_16  and  C_17
REMARK    8  A    between atoms: C_16  and  N_69
REMARK    9  A    between atoms: C_17  and  C_18
REMARK   10  A    between atoms: C_24  and  C_25
REMARK   11  A    between atoms: C_24  and  N_69
REMARK   12  A    between atoms: C_30  and  C_38
REMARK   13  A    between atoms: C_31  and  C_37
REMARK                            x       y       z     vdW  Elec       q    Type
REMARK                         _______ _______ _______ _____ _____    ______ ____
ROOT
ATOM      1  N   UNL     1      -1.639  -0.951   1.277  0.00  0.00    +0.389 N 
ATOM      2  H   UNL     1      -1.634   0.033   1.568  0.00  0.00    -0.080 HD
ENDROOT
BRANCH   1   3
ATOM      3  C   UNL     1      -2.953  -1.542   1.605  0.00  0.00    +0.003 C 
BRANCH   3   4
ATOM      4  C   UNL     1      -3.072  -2.925   1.018  0.00  0.00    +0.139 A 
ATOM      5  N   UNL     1      -2.828  -3.272  -0.222  0.00  0.00    -0.115 NA
ATOM      6  N   UNL     1      -3.042  -4.538  -0.331  0.00  0.00    -0.023 NA
ATOM      7  N   UNL     1      -3.424  -5.006   0.806  0.00  0.00    -0.044 NA
ATOM      8  N   UNL     1      -3.455  -4.042   1.663  0.00  0.00    -0.223 N 
BRANCH   8   9
ATOM      9  C   UNL     1      -3.837  -4.145   3.074  0.00  0.00    +0.221 C 
BRANCH   9  10
ATOM     10  C   UNL     1      -5.320  -3.916   3.211  0.00  0.00    +0.126 A 
ATOM     11  C   UNL     1      -6.271  -4.865   3.152  0.00  0.00    +0.046 A 
ATOM     12  C   UNL     1      -7.513  -4.212   3.332  0.00  0.00    +0.041 A 
ATOM     13  C   UNL     1      -7.247  -2.902   3.481  0.00  0.00    +0.195 A 
ATOM     14  O   UNL     1      -5.917  -2.728   3.408  0.00  0.00    -0.466 OA
ENDBRANCH   9  10
ENDBRANCH   8   9
ENDBRANCH   3   4
BRANCH   3  16
ATOM     15  C   UNL     1      -4.021   0.713   1.730  0.00  0.00    +0.002 C 
ATOM     16  C   UNL     1      -4.054  -0.648   1.032  0.00  0.00    -0.011 C 
ENDBRANCH   3  16
ENDBRANCH   1   3
BRANCH   1  17
ATOM     17  C   UNL     1      -0.567  -1.671   1.997  0.00  0.00    -0.073 C 
BRANCH  17  18
ATOM     18  C   UNL     1      -0.723  -1.415   3.497  0.00  0.00    +0.016 C 
BRANCH  18  19
ATOM     19  C   UNL     1       0.441  -2.027   4.234  0.00  0.00    -0.049 A 
ATOM     20  C   UNL     1       0.364  -3.330   4.688  0.00  0.00    +0.003 A 
ATOM     21  C   UNL     1       1.433  -3.893   5.359  0.00  0.00    +0.000 A 
ATOM     22  C   UNL     1       2.576  -3.149   5.586  0.00  0.00    +0.000 A 
ATOM     23  C   UNL     1       2.651  -1.843   5.137  0.00  0.00    +0.000 A 
ATOM     24  C   UNL     1       1.584  -1.283   4.461  0.00  0.00    +0.003 A 
ENDBRANCH  18  19
ENDBRANCH  17  18
ENDBRANCH   1  17
BRANCH   1  25
ATOM     25  C   UNL     1      -1.404  -1.022  -0.181  0.00  0.00    -0.037 C 
BRANCH  25  26
ATOM     26  C   UNL     1      -0.274  -0.089  -0.534  0.00  0.00    +0.001 A 
ATOM     27  C   UNL     1       0.990  -0.568  -0.640  0.00  0.00    +0.017 A 
ATOM     28  C   UNL     1       2.065   0.364  -0.984  0.00  0.00    -0.001 A 
ATOM     29  C   UNL     1       3.389  -0.071  -1.109  0.00  0.00    +0.010 A 
ATOM     30  C   UNL     1       4.369   0.824  -1.431  0.00  0.00    +0.004 A 
ATOM     31  C   UNL     1       4.063   2.162  -1.637  0.00  0.00    -0.046 A 
ATOM     32  C   UNL     1       2.766   2.614  -1.520  0.00  0.00    -0.024 A 
ATOM     33  C   UNL     1       1.751   1.721  -1.192  0.00  0.00    +0.052 A 
ATOM     34  N   UNL     1       0.445   2.145  -1.069  0.00  0.00    -0.322 N 
ATOM     35  H   UNL     1       0.231   3.080  -1.213  0.00  0.00    +0.169 HD
ATOM     36  C   UNL     1      -0.535   1.281  -0.752  0.00  0.00    +0.251 A 
ATOM     37  O   UNL     1      -1.679   1.690  -0.657  0.00  0.00    -0.268 OA
ATOM     38  C   UNL     1       2.449   4.070  -1.746  0.00  0.00    +0.046 C 
ATOM     39  C   UNL     1       5.161   3.132  -1.992  0.00  0.00    +0.044 C 
ENDBRANCH  25  26
ENDBRANCH   1  25
TORSDOF 10
