REMARK  Name = ZINC05049156
REMARK  3 active torsions:
REMARK  status: ('A' for Active; 'I' for Inactive)
REMARK    1  A    between atoms: C_1  and  O_2
REMARK    2  A    between atoms: O_2  and  C_3
REMARK    3  A    between atoms: N_5  and  C_6
REMARK                            x       y       z     vdW  Elec       q    Type
REMARK                         _______ _______ _______ _____ _____    ______ ____
ROOT
ATOM      1  C   UNL     1      -0.962   3.086   1.139  0.00  0.00    +0.093 C 
ATOM      2  C   UNL     1      -1.984   3.315   0.024  0.00  0.00    +0.050 C 
ATOM      3  C   UNL     1      -1.587   2.553  -1.206  0.00  0.00    -0.029 C 
ATOM      4  C   UNL     1      -0.733   1.580  -1.212  0.00  0.00    -0.030 C 
ATOM      5  C   UNL     1      -0.013   1.086   0.008  0.00  0.00    +0.042 C 
ATOM      6  C   UNL     1      -0.723   1.577   1.271  0.00  0.00    +0.076 C 
ATOM      7  I   UNL     1       0.516   1.189   3.000  0.00  0.00    -0.079 I 
ENDROOT
BRANCH   1  10
ATOM      8  C   UNL     1       0.463   5.062   1.096  0.00  0.00    +0.400 C 
ATOM      9  O   UNL     1      -0.429   5.681   1.642  0.00  0.00    -0.226 OA
ATOM     10  N   UNL     1       0.296   3.758   0.801  0.00  0.00    -0.277 N 
ATOM     11  H   UNL     1       1.007   3.264   0.365  0.00  0.00    +0.152 HD
BRANCH   8  13
ATOM     12  C   UNL     1       1.728   7.085   1.132  0.00  0.00    +0.282 C 
ATOM     13  O   UNL     1       1.618   5.680   0.785  0.00  0.00    -0.454 OA
ENDBRANCH   8  13
ENDBRANCH   1  10
TORSDOF 2
