REMARK  Name = ZINC33033299
REMARK  6 active torsions:
REMARK  status: ('A' for Active; 'I' for Inactive)
REMARK    1  A    between atoms: C_1  and  C_2
REMARK    2  A    between atoms: C_9  and  C_11
REMARK    3  A    between atoms: C_14  and  N_26
REMARK    4  A    between atoms: C_15  and  N_17
REMARK    5  A    between atoms: N_17  and  S_18
REMARK    6  A    between atoms: S_18  and  C_21
REMARK                            x       y       z     vdW  Elec       q    Type
REMARK                         _______ _______ _______ _____ _____    ______ ____
ROOT
ATOM      1  C   UNL     1       1.678  -4.206   1.538  0.00  0.00    +0.039 A 
ATOM      2  C   UNL     1       0.446  -4.861   1.461  0.00  0.00    +0.015 A 
ATOM      3  C   UNL     1       0.383  -6.231   1.594  0.00  0.00    +0.026 A 
ATOM      4  C   UNL     1       1.544  -6.965   1.806  0.00  0.00    +0.054 A 
ATOM      5  C   UNL     1       2.779  -6.317   1.885  0.00  0.00    +0.096 A 
ATOM      6  C   UNL     1       2.848  -4.944   1.745  0.00  0.00    +0.041 A 
ENDROOT
BRANCH   1  14
ATOM      7  C   UNL     1      -0.988  -2.468   5.354  0.00  0.00    +0.009 C 
ATOM      8  C   UNL     1       0.133  -1.970   4.440  0.00  0.00    +0.003 C 
ATOM      9  C   UNL     1       0.098  -0.441   4.375  0.00  0.00    +0.006 C 
ATOM     10  C   UNL     1       1.239   0.059   3.486  0.00  0.00    +0.019 C 
ATOM     11  C   UNL     1       1.055  -0.489   2.068  0.00  0.00    +0.108 C 
ATOM     12  N   UNL     1       0.942  -1.953   2.138  0.00  0.00    -0.297 N 
ATOM     13  C   UNL     1      -0.063  -2.542   3.032  0.00  0.00    +0.111 C 
ATOM     14  C   UNL     1       1.746  -2.740   1.395  0.00  0.00    +0.247 C 
ATOM     15  O   UNL     1       2.526  -2.240   0.607  0.00  0.00    -0.270 OA
ENDBRANCH   1  14
BRANCH   4  16
ATOM     16  N   UNL     1       1.475  -8.351   1.941  0.00  0.00    -0.332 N 
ATOM     17  C   UNL     1       1.286  -8.974   3.260  0.00  0.00    +0.086 C 
ATOM     18  C   UNL     1       0.131  -9.976   3.162  0.00  0.00    -0.063 C 
ATOM     19  N   UNL     1       0.400 -10.927   2.076  0.00  0.00    +0.381 N 
ATOM     20  C   UNL     1       0.421 -10.221   0.788  0.00  0.00    -0.063 C 
ATOM     21  C   UNL     1       1.584  -9.231   0.767  0.00  0.00    +0.086 C 
ATOM     22  H   UNL     1       1.293 -11.368   2.231  0.00  0.00    -0.086 HD
ATOM     23  H   UNL     1      -0.323 -11.631   2.060  0.00  0.00    -0.086 HD
ENDBRANCH   4  16
BRANCH   5  24
ATOM     24  N   UNL     1       3.948  -7.059   2.099  0.00  0.00    -0.095 NA
BRANCH  24  25
ATOM     25  S   UNL     1       5.411  -6.290   2.191  0.00  0.00    +0.098 S 
ATOM     26  O   UNL     1       5.665  -5.743   0.904  0.00  0.00    -0.148 OA
ATOM     27  O   UNL     1       5.376  -5.490   3.365  0.00  0.00    -0.148 OA
BRANCH  25  28
ATOM     28  C   UNL     1       6.635  -7.529   2.463  0.00  0.00    +0.148 A 
ATOM     29  C   UNL     1       7.353  -8.232   1.554  0.00  0.00    +0.037 A 
ATOM     30  C   UNL     1       8.270  -9.165   2.002  0.00  0.00    +0.010 A 
ATOM     31  C   UNL     1       8.423  -9.349   3.336  0.00  0.00    +0.047 A 
ATOM     32  S   UNL     1       7.254  -8.177   4.007  0.00  0.00    -0.077 S 
ENDBRANCH  25  28
ENDBRANCH  24  25
ENDBRANCH   5  24
TORSDOF 5
