REMARK  Name = ZINC02059784
REMARK  8 active torsions:
REMARK  status: ('A' for Active; 'I' for Inactive)
REMARK    1  A    between atoms: C_1  and  C_2
REMARK    2  A    between atoms: C_2  and  C_3
REMARK    3  A    between atoms: C_3  and  C_4
REMARK    4  A    between atoms: C_4  and  S_5
REMARK    5  A    between atoms: S_5  and  C_6
REMARK    6  A    between atoms: C_19  and  C_22
REMARK    7  A    between atoms: C_25  and  C_27
REMARK    8  A    between atoms: C_32  and  N_33
REMARK                            x       y       z     vdW  Elec       q    Type
REMARK                         _______ _______ _______ _____ _____    ______ ____
ROOT
ATOM      1  C   UNL     1      -5.151   1.617   4.061  0.00  0.00    +0.212 A 
ATOM      2  N   UNL     1      -6.402   1.393   4.453  0.00  0.00    -0.184 NA
ATOM      3  C   UNL     1      -6.827   1.915   5.591  0.00  0.00    +0.248 A 
ATOM      4  C   UNL     1      -5.933   2.702   6.353  0.00  0.00    +0.156 A 
ATOM      5  N   UNL     1      -4.702   2.892   5.902  0.00  0.00    -0.141 NA
ATOM      6  N   UNL     1      -4.329   2.363   4.788  0.00  0.00    -0.122 NA
ATOM      7  C   UNL     1      -6.384   3.290   7.631  0.00  0.00    +0.028 A 
ATOM      8  C   UNL     1      -6.158   4.626   7.937  0.00  0.00    +0.012 A 
ATOM      9  C   UNL     1      -6.584   5.134   9.149  0.00  0.00    +0.001 A 
ATOM     10  C   UNL     1      -7.236   4.320  10.060  0.00  0.00    +0.002 A 
ATOM     11  C   UNL     1      -7.473   2.990   9.765  0.00  0.00    +0.024 A 
ATOM     12  C   UNL     1      -7.058   2.468   8.554  0.00  0.00    +0.040 A 
ATOM     13  N   UNL     1      -7.312   1.137   8.209  0.00  0.00    -0.303 N 
ATOM     14  C   UNL     1      -8.274   0.858   7.147  0.00  0.00    +0.329 C 
ATOM     15  O   UNL     1      -8.093   1.720   6.029  0.00  0.00    -0.445 OA
ATOM     16  H   UNL     1      -6.857   0.413   8.666  0.00  0.00    +0.150 HD
ENDROOT
BRANCH  14  17
ATOM     17  C   UNL     1      -9.669   1.040   7.687  0.00  0.00    +0.165 A 
ATOM     18  C   UNL     1     -10.766   0.381   7.268  0.00  0.00    +0.051 A 
ATOM     19  C   UNL     1     -11.849   0.851   8.038  0.00  0.00    +0.050 A 
ATOM     20  C   UNL     1     -11.349   1.787   8.887  0.00  0.00    +0.138 A 
ATOM     21  O   UNL     1     -10.025   1.891   8.663  0.00  0.00    -0.454 OA
BRANCH  20  22
ATOM     22  C   UNL     1     -12.123   2.556   9.884  0.00  0.00    +0.047 A 
ATOM     23  C   UNL     1     -13.297   3.211   9.506  0.00  0.00    +0.014 A 
ATOM     24  C   UNL     1     -14.015   3.927  10.441  0.00  0.00    +0.001 A 
ATOM     25  C   UNL     1     -13.575   3.996  11.751  0.00  0.00    +0.002 A 
ATOM     26  C   UNL     1     -12.413   3.349  12.132  0.00  0.00    +0.033 A 
ATOM     27  C   UNL     1     -11.688   2.626  11.208  0.00  0.00    +0.137 A 
BRANCH  27  28
ATOM     28  N   UNL     1     -10.448   1.929  11.619  0.00  0.00    +0.057 N 
ATOM     29  O   UNL     1     -10.069   1.990  12.775  0.00  0.00    -0.126 OA
ATOM     30  O   UNL     1      -9.806   1.294  10.801  0.00  0.00    -0.126 OA
ENDBRANCH  27  28
ENDBRANCH  20  22
ENDBRANCH  14  17
BRANCH   1  31
ATOM     31  S   UNL     1      -4.578   0.917   2.549  0.00  0.00    -0.084 S 
BRANCH  31  32
ATOM     32  C   UNL     1      -2.880   1.543   2.537  0.00  0.00    +0.077 C 
BRANCH  32  33
ATOM     33  C   UNL     1      -2.164   1.050   1.278  0.00  0.00    +0.011 C 
BRANCH  33  35
ATOM     34  C   UNL     1      -0.013   1.086   0.008  0.00  0.00    +0.004 C 
ATOM     35  C   UNL     1      -0.729   1.579   1.267  0.00  0.00    -0.003 C 
ENDBRANCH  33  35
ENDBRANCH  32  33
ENDBRANCH  31  32
ENDBRANCH   1  31
TORSDOF 7
