REMARK  Name = ZINC39988196
REMARK  15 active torsions:
REMARK  status: ('A' for Active; 'I' for Inactive)
REMARK    1  A    between atoms: C_1  and  C_2
REMARK    2  A    between atoms: C_2  and  C_3
REMARK    3  A    between atoms: C_3  and  C_4
REMARK    4  A    between atoms: C_4  and  C_6
REMARK    5  A    between atoms: C_4  and  O_32
REMARK    6  A    between atoms: N_8  and  N_9
REMARK    7  A    between atoms: N_17  and  C_20
REMARK    8  A    between atoms: C_20  and  C_21
REMARK    9  A    between atoms: C_21  and  C_22
REMARK   10  A    between atoms: C_22  and  O_23
REMARK   11  A    between atoms: O_23  and  C_24
REMARK   12  A    between atoms: C_27  and  O_30
REMARK   13  A    between atoms: O_30  and  C_31
REMARK   14  A    between atoms: O_32  and  C_33
REMARK   15  A    between atoms: C_36  and  O_39
REMARK                            x       y       z     vdW  Elec       q    Type
REMARK                         _______ _______ _______ _____ _____    ______ ____
ROOT
ATOM      1  N   UNL     1       3.672  -2.913  -3.470  0.00  0.00    -0.174 NA
ATOM      2  C   UNL     1       4.962  -2.684  -3.513  0.00  0.00    +0.153 C 
ATOM      3  C   UNL     1       5.928  -3.157  -4.531  0.00  0.00    +0.028 A 
ATOM      4  C   UNL     1       5.800  -3.933  -5.677  0.00  0.00    +0.012 A 
ATOM      5  C   UNL     1       6.914  -4.213  -6.443  0.00  0.00    +0.001 A 
ATOM      6  C   UNL     1       8.154  -3.721  -6.070  0.00  0.00    +0.002 A 
ATOM      7  C   UNL     1       8.291  -2.949  -4.934  0.00  0.00    +0.024 A 
ATOM      8  C   UNL     1       7.180  -2.658  -4.150  0.00  0.00    +0.046 A 
ATOM      9  N   UNL     1       7.044  -1.919  -2.979  0.00  0.00    -0.265 N 
ATOM     10  C   UNL     1       5.767  -1.892  -2.561  0.00  0.00    +0.271 C 
ATOM     11  O   UNL     1       5.349  -1.320  -1.572  0.00  0.00    -0.268 OA
ENDROOT
BRANCH   1  14
ATOM     12  C   UNL     1       1.574  -2.615  -2.385  0.00  0.00    +0.273 C 
ATOM     13  O   UNL     1       1.049  -3.289  -3.245  0.00  0.00    -0.270 OA
ATOM     14  N   UNL     1       2.900  -2.379  -2.429  0.00  0.00    -0.203 N 
ATOM     15  H   UNL     1       3.320  -1.839  -1.742  0.00  0.00    +0.177 HD
BRANCH  12  16
ATOM     16  C   UNL     1       0.744  -2.040  -1.266  0.00  0.00    +0.260 C 
BRANCH  16  17
ATOM     17  C   UNL     1       0.747  -0.513  -1.361  0.00  0.00    +0.054 C 
BRANCH  17  19
ATOM     18  C   UNL     1       0.012   1.602  -0.252  0.00  0.00    +0.004 C 
ATOM     19  C   UNL     1       0.009   0.075  -0.157  0.00  0.00    +0.001 C 
ENDBRANCH  17  19
ENDBRANCH  16  17
BRANCH  16  20
ATOM     20  O   UNL     1      -0.598  -2.521  -1.373  0.00  0.00    -0.480 OA
BRANCH  20  21
ATOM     21  C   UNL     1      -1.232  -2.842  -0.213  0.00  0.00    +0.122 A 
ATOM     22  C   UNL     1      -2.489  -3.429  -0.250  0.00  0.00    +0.049 A 
ATOM     23  C   UNL     1      -3.133  -3.754   0.928  0.00  0.00    +0.049 A 
ATOM     24  C   UNL     1      -2.524  -3.494   2.146  0.00  0.00    +0.117 A 
ATOM     25  C   UNL     1      -1.268  -2.908   2.183  0.00  0.00    +0.049 A 
ATOM     26  C   UNL     1      -0.621  -2.587   1.005  0.00  0.00    +0.049 A 
BRANCH  24  27
ATOM     27  O   UNL     1      -3.159  -3.814   3.306  0.00  0.00    -0.507 OA
ATOM     28  H   UNL     1      -2.970  -4.707   3.625  0.00  0.00    +0.292 HD
ENDBRANCH  24  27
ENDBRANCH  20  21
ENDBRANCH  16  20
ENDBRANCH  12  16
ENDBRANCH   1  14
BRANCH   9  29
ATOM     29  C   UNL     1       8.151  -1.249  -2.293  0.00  0.00    +0.117 C 
BRANCH  29  30
ATOM     30  C   UNL     1       8.299   0.175  -2.834  0.00  0.00    +0.060 C 
BRANCH  30  31
ATOM     31  C   UNL     1       9.456   0.875  -2.117  0.00  0.00    +0.230 C 
BRANCH  31  32
ATOM     32  O   UNL     1       9.594   2.205  -2.622  0.00  0.00    -0.492 OA
BRANCH  32  33
ATOM     33  C   UNL     1      10.583   2.969  -2.087  0.00  0.00    +0.121 A 
ATOM     34  C   UNL     1      11.407   2.446  -1.101  0.00  0.00    +0.049 A 
ATOM     35  C   UNL     1      12.412   3.221  -0.557  0.00  0.00    +0.049 A 
ATOM     36  C   UNL     1      12.598   4.523  -0.998  0.00  0.00    +0.120 A 
ATOM     37  C   UNL     1      11.775   5.046  -1.984  0.00  0.00    +0.049 A 
ATOM     38  C   UNL     1      10.773   4.269  -2.531  0.00  0.00    +0.049 A 
BRANCH  36  39
ATOM     39  O   UNL     1      13.587   5.287  -0.462  0.00  0.00    -0.495 OA
ATOM     40  C   UNL     1      13.722   6.619  -0.963  0.00  0.00    +0.277 C 
ENDBRANCH  36  39
ENDBRANCH  32  33
ENDBRANCH  31  32
ENDBRANCH  30  31
ENDBRANCH  29  30
ENDBRANCH   9  29
TORSDOF 13
