REMARK  Name = ZINC44881666
REMARK  9 active torsions:
REMARK  status: ('A' for Active; 'I' for Inactive)
REMARK    1  A    between atoms: C_1  and  C_2
REMARK    2  A    between atoms: C_3  and  C_16
REMARK    3  A    between atoms: C_4  and  O_15
REMARK    4  A    between atoms: C_5  and  C_8
REMARK    5  A    between atoms: C_16  and  O_18
REMARK    6  A    between atoms: O_18  and  C_19
REMARK    7  A    between atoms: C_19  and  C_20
REMARK    8  A    between atoms: C_19  and  C_21
REMARK    9  A    between atoms: C_19  and  C_22
REMARK                            x       y       z     vdW  Elec       q    Type
REMARK                         _______ _______ _______ _____ _____    ______ ____
ROOT
ATOM      1  C   UNL     1      -0.018   1.503   0.010  0.00  0.00    +0.064 C 
ATOM      2  C   UNL     1       0.002  -0.004   0.002  0.00  0.00    +0.031 A 
ATOM      3  C   UNL     1       0.008  -0.803  -1.124  0.00  0.00    +0.121 A 
ATOM      4  C   UNL     1       0.029  -2.189  -0.643  0.00  0.00    +0.156 A 
ATOM      5  C   UNL     1       0.035  -2.119   0.718  0.00  0.00    +0.090 A 
ATOM      6  N   UNL     1       0.024  -0.795   1.090  0.00  0.00    -0.355 N 
ATOM      7  H   UNL     1       0.029  -0.476   2.006  0.00  0.00    +0.166 HD
ENDROOT
BRANCH   5   8
ATOM      8  C   UNL     1       0.055  -3.274   1.639  0.00  0.00    +0.002 A 
ATOM      9  C   UNL     1      -0.782  -4.368   1.410  0.00  0.00    +0.011 A 
ATOM     10  C   UNL     1      -0.758  -5.443   2.274  0.00  0.00    +0.016 A 
ATOM     11  C   UNL     1       0.092  -5.439   3.367  0.00  0.00    +0.018 A 
ATOM     12  C   UNL     1       0.924  -4.356   3.600  0.00  0.00    +0.016 A 
ATOM     13  C   UNL     1       0.914  -3.278   2.740  0.00  0.00    +0.011 A 
ATOM     14 BR   UNL     1       0.117  -6.916   4.547  0.00  0.00    -0.050 Br
ENDBRANCH   5   8
BRANCH   4  15
ATOM     15  O   UNL     1       0.041  -3.316  -1.403  0.00  0.00    -0.504 OA
ATOM     16  H   UNL     1       0.928  -3.631  -1.627  0.00  0.00    +0.292 HD
ENDBRANCH   4  15
BRANCH   3  17
ATOM     17  C   UNL     1      -0.005  -0.355  -2.524  0.00  0.00    +0.345 C 
ATOM     18  O   UNL     1       1.042  -0.155  -3.108  0.00  0.00    -0.245 OA
BRANCH  17  19
ATOM     19  O   UNL     1      -1.179  -0.167  -3.160  0.00  0.00    -0.455 OA
BRANCH  19  20
ATOM     20  C   UNL     1      -1.117   0.269  -4.520  0.00  0.00    +0.106 C 
ATOM     21  C   UNL     1      -0.359  -0.766  -5.353  0.00  0.00    +0.055 C 
ATOM     22  C   UNL     1      -2.536   0.427  -5.070  0.00  0.00    +0.055 C 
ATOM     23  C   UNL     1      -0.389   1.613  -4.592  0.00  0.00    +0.055 C 
ENDBRANCH  19  20
ENDBRANCH  17  19
ENDBRANCH   3  17
TORSDOF 5
