REMARK  Name = ZINC63315909
REMARK  10 active torsions:
REMARK  status: ('A' for Active; 'I' for Inactive)
REMARK    1  A    between atoms: C_1  and  O_2
REMARK    2  A    between atoms: O_2  and  C_3
REMARK    3  A    between atoms: C_5  and  N_13
REMARK    4  A    between atoms: C_7  and  O_11
REMARK    5  A    between atoms: C_8  and  O_9
REMARK    6  A    between atoms: O_9  and  C_10
REMARK    7  A    between atoms: O_11  and  C_12
REMARK    8  A    between atoms: C_14  and  C_16
REMARK    9  A    between atoms: C_16  and  C_17
REMARK   10  A    between atoms: C_17  and  N_18
REMARK                            x       y       z     vdW  Elec       q    Type
REMARK                         _______ _______ _______ _____ _____    ______ ____
ROOT
ATOM      1  N   UNL     1       5.149   0.472  -8.194  0.00  0.00    -0.299 N 
ATOM      2  C   UNL     1       5.831  -0.120  -9.193  0.00  0.00    +0.302 C 
ATOM      3  O   UNL     1       5.799  -1.329  -9.318  0.00  0.00    -0.253 OA
ATOM      4  N   UNL     1       6.549   0.627 -10.055  0.00  0.00    -0.283 N 
ATOM      5  C   UNL     1       6.495   2.090  -9.966  0.00  0.00    +0.114 C 
ATOM      6  C   UNL     1       6.021   2.668 -11.312  0.00  0.00    +0.052 C 
ATOM      7  C   UNL     1       6.797   1.950 -12.388  0.00  0.00    -0.035 C 
ATOM      8  C   UNL     1       7.516   2.408 -13.405  0.00  0.00    +0.001 A 
ATOM      9  C   UNL     1       7.731   3.770 -13.918  0.00  0.00    +0.030 A 
ATOM     10  C   UNL     1       8.563   3.884 -14.989  0.00  0.00    +0.042 A 
ATOM     11  C   UNL     1       9.194   2.790 -15.592  0.00  0.00    +0.022 A 
ATOM     12  C   UNL     1       9.047   1.503 -15.191  0.00  0.00    +0.027 A 
ATOM     13  C   UNL     1       8.190   1.256 -14.079  0.00  0.00    +0.043 A 
ATOM     14  N   UNL     1       7.854   0.136 -13.508  0.00  0.00    -0.376 N 
ATOM     15  C   UNL     1       6.887   0.430 -12.450  0.00  0.00    +0.124 C 
ATOM     16  C   UNL     1       7.383  -0.033 -11.072  0.00  0.00    +0.138 C 
ATOM     17 CL   UNL     1       8.855   5.466 -15.640  0.00  0.00    -0.084 Cl
ATOM     18  H   UNL     1       5.115   1.440  -8.137  0.00  0.00    +0.150 HD
ATOM     19  H   UNL     1       8.189  -0.743 -13.743  0.00  0.00    +0.160 HD
ENDROOT
BRANCH   1  20
ATOM     20  C   UNL     1       4.459  -0.345  -7.192  0.00  0.00    +0.115 C 
BRANCH  20  21
ATOM     21  C   UNL     1       3.768   0.568  -6.177  0.00  0.00    +0.115 C 
BRANCH  21  23
ATOM     22  N   UNL     1       2.375   0.320  -4.148  0.00  0.00    -0.285 N 
ATOM     23  C   UNL     1       3.058  -0.273  -5.148  0.00  0.00    +0.219 C 
ATOM     24  O   UNL     1       3.100  -1.483  -5.219  0.00  0.00    -0.275 OA
ATOM     25  H   UNL     1       2.279   1.285  -4.132  0.00  0.00    +0.155 HD
BRANCH  22  28
ATOM     26  C   UNL     1       1.870  -2.395  -1.711  0.00  0.00    +0.167 A 
ATOM     27  C   UNL     1       2.433  -1.625  -2.717  0.00  0.00    +0.073 A 
ATOM     28  C   UNL     1       1.806  -0.458  -3.131  0.00  0.00    +0.041 A 
ATOM     29  C   UNL     1       0.615  -0.061  -2.540  0.00  0.00    +0.073 A 
ATOM     30  C   UNL     1       0.050  -0.830  -1.534  0.00  0.00    +0.167 A 
ATOM     31  C   UNL     1       0.675  -2.001  -1.121  0.00  0.00    +0.204 A 
BRANCH  26  33
ATOM     32  C   UNL     1       3.710  -3.882  -1.954  0.00  0.00    +0.277 C 
ATOM     33  O   UNL     1       2.485  -3.538  -1.305  0.00  0.00    -0.491 OA
ENDBRANCH  26  33
BRANCH  31  34
ATOM     34  O   UNL     1       0.118  -2.759  -0.137  0.00  0.00    -0.488 OA
ATOM     35  C   UNL     1       0.502  -2.462   1.207  0.00  0.00    +0.277 C 
ENDBRANCH  31  34
BRANCH  30  36
ATOM     36  O   UNL     1      -1.117  -0.441  -0.954  0.00  0.00    -0.491 OA
ATOM     37  C   UNL     1      -1.706   0.771  -1.430  0.00  0.00    +0.277 C 
ENDBRANCH  30  36
ENDBRANCH  22  28
ENDBRANCH  21  23
ENDBRANCH  20  21
ENDBRANCH   1  20
TORSDOF 7
