REMARK  Name = ZINC12863152
REMARK  10 active torsions:
REMARK  status: ('A' for Active; 'I' for Inactive)
REMARK    1  A    between atoms: C_1  and  C_2
REMARK    2  A    between atoms: C_2  and  C_3
REMARK    3  A    between atoms: C_3  and  C_4
REMARK    4  A    between atoms: C_4  and  C_5
REMARK    5  A    between atoms: C_5  and  C_6
REMARK    6  A    between atoms: C_6  and  C_8
REMARK    7  A    between atoms: C_6  and  N_9
REMARK    8  A    between atoms: C_10  and  C_12
REMARK    9  A    between atoms: C_17  and  N_18
REMARK   10  A    between atoms: C_21  and  C_37
REMARK                            x       y       z     vdW  Elec       q    Type
REMARK                         _______ _______ _______ _____ _____    ______ ____
ROOT
ATOM      1  N   UNL     1       2.823  -2.647   4.589  0.00  0.00    -0.191 N 
ATOM      2  C   UNL     1       2.795  -2.215   5.869  0.00  0.00    +0.257 C 
ATOM      3  O   UNL     1       1.862  -2.269   6.641  0.00  0.00    -0.272 OA
ATOM      4  C   UNL     1       4.172  -1.654   6.135  0.00  0.00    +0.153 C 
ATOM      5  C   UNL     1       4.102  -0.215   6.588  0.00  0.00    +0.053 A 
ATOM      6  C   UNL     1       4.762   0.786   5.961  0.00  0.00    -0.015 A 
ATOM      7  C   UNL     1       4.478   1.999   6.708  0.00  0.00    +0.003 A 
ATOM      8  C   UNL     1       4.887   3.326   6.543  0.00  0.00    +0.010 A 
ATOM      9  C   UNL     1       4.415   4.238   7.455  0.00  0.00    +0.001 A 
ATOM     10  C   UNL     1       3.574   3.873   8.493  0.00  0.00    +0.002 A 
ATOM     11  C   UNL     1       3.155   2.567   8.680  0.00  0.00    +0.026 A 
ATOM     12  C   UNL     1       3.619   1.619   7.770  0.00  0.00    +0.047 A 
ATOM     13  N   UNL     1       3.411   0.275   7.662  0.00  0.00    -0.356 N 
ATOM     14  H   UNL     1       2.857  -0.254   8.258  0.00  0.00    +0.166 HD
ATOM     15  C   UNL     1       5.619   0.657   4.728  0.00  0.00    +0.056 C 
ATOM     16  C   UNL     1       5.962  -0.818   4.469  0.00  0.00    +0.115 C 
ATOM     17  N   UNL     1       4.773  -1.612   4.780  0.00  0.00    -0.265 N 
ATOM     18  C   UNL     1       3.995  -2.361   3.998  0.00  0.00    +0.317 C 
ATOM     19  O   UNL     1       4.308  -2.739   2.886  0.00  0.00    -0.252 OA
ATOM     20  C   UNL     1       4.984  -2.518   7.102  0.00  0.00    +0.048 C 
ENDROOT
BRANCH   1  26
ATOM     21  C   UNL     1       0.787  -2.566   3.274  0.00  0.00    +0.059 A 
ATOM     22  C   UNL     1      -0.270  -3.233   2.651  0.00  0.00    +0.015 A 
ATOM     23  C   UNL     1      -0.340  -4.609   2.701  0.00  0.00    +0.001 A 
ATOM     24  C   UNL     1       0.628  -5.333   3.377  0.00  0.00    +0.002 A 
ATOM     25  C   UNL     1       1.675  -4.687   4.003  0.00  0.00    +0.025 A 
ATOM     26  C   UNL     1       1.764  -3.303   3.957  0.00  0.00    +0.058 A 
BRANCH  21  28
ATOM     27  N   UNL     1      -0.072  -0.389   2.561  0.00  0.00    -0.309 N 
ATOM     28  C   UNL     1       0.870  -1.093   3.219  0.00  0.00    +0.246 C 
ATOM     29  O   UNL     1       1.789  -0.516   3.767  0.00  0.00    -0.270 OA
ATOM     30  H   UNL     1      -0.805  -0.850   2.124  0.00  0.00    +0.149 HD
BRANCH  27  31
ATOM     31  C   UNL     1       0.011   1.072   2.506  0.00  0.00    +0.070 C 
ATOM     32  C   UNL     1      -0.630   1.667   3.762  0.00  0.00    +0.028 C 
BRANCH  31  33
ATOM     33  C   UNL     1      -0.729   1.579   1.267  0.00  0.00    +0.022 C 
BRANCH  33  34
ATOM     34  C   UNL     1      -0.013   1.086   0.008  0.00  0.00    +0.002 C 
BRANCH  34  35
ATOM     35  C   UNL     1      -0.753   1.593  -1.232  0.00  0.00    -0.000 C 
BRANCH  35  37
ATOM     36  C   UNL     1      -0.777   1.606  -3.730  0.00  0.00    +0.004 C 
ATOM     37  C   UNL     1      -0.037   1.099  -2.490  0.00  0.00    -0.003 C 
ENDBRANCH  35  37
ENDBRANCH  34  35
ENDBRANCH  33  34
ENDBRANCH  31  33
ENDBRANCH  27  31
ENDBRANCH  21  28
ENDBRANCH   1  26
TORSDOF 7
