REMARK  Name = ZINC40025075
REMARK  9 active torsions:
REMARK  status: ('A' for Active; 'I' for Inactive)
REMARK    1  A    between atoms: C_1  and  C_2
REMARK    2  A    between atoms: C_3  and  C_23
REMARK    3  A    between atoms: C_5  and  S_7
REMARK    4  A    between atoms: S_7  and  C_8
REMARK    5  A    between atoms: C_8  and  C_10
REMARK    6  A    between atoms: C_8  and  C_11
REMARK    7  A    between atoms: N_13  and  C_14
REMARK    8  A    between atoms: C_20  and  C_22
REMARK    9  A    between atoms: C_23  and  C_24
REMARK                            x       y       z     vdW  Elec       q    Type
REMARK                         _______ _______ _______ _____ _____    ______ ____
ROOT
ATOM      1  S   UNL     1       0.058  -3.129   2.474  0.00  0.00    -0.086 S 
ENDROOT
BRANCH   1   6
ATOM      2  C   UNL     1      -0.018   1.503   0.010  0.00  0.00    +0.066 C 
ATOM      3  C   UNL     1       0.002  -0.004   0.002  0.00  0.00    +0.050 A 
ATOM      4  C   UNL     1       0.006  -0.705  -1.157  0.00  0.00    +0.022 A 
ATOM      5  S   UNL     1       0.032  -2.378  -0.535  0.00  0.00    -0.065 S 
ATOM      6  C   UNL     1       0.036  -2.016   1.108  0.00  0.00    +0.136 A 
ATOM      7  N   UNL     1       0.023  -0.700   1.125  0.00  0.00    -0.238 NA
BRANCH   4   8
ATOM      8  C   UNL     1      -0.009  -0.209  -2.580  0.00  0.00    +0.139 C 
BRANCH   8   9
ATOM      9  C   UNL     1       1.407  -0.023  -3.062  0.00  0.00    +0.215 C 
ATOM     10  O   UNL     1       2.336  -0.270  -2.323  0.00  0.00    -0.276 OA
ATOM     11  N   UNL     1       1.640   0.417  -4.314  0.00  0.00    -0.329 N 
ATOM     12  H   UNL     1       0.897   0.614  -4.906  0.00  0.00    +0.145 HD
ATOM     13  H   UNL     1       2.552   0.536  -4.625  0.00  0.00    +0.145 HD
ENDBRANCH   8   9
ENDBRANCH   4   8
ENDBRANCH   1   6
BRANCH   1  14
ATOM     14  C   UNL     1       0.051  -2.041   3.926  0.00  0.00    +0.136 C 
ATOM     15  C   UNL     1      -1.267  -1.266   3.975  0.00  0.00    +0.029 C 
BRANCH  14  16
ATOM     16  C   UNL     1       0.192  -2.871   5.176  0.00  0.00    +0.226 C 
ATOM     17  O   UNL     1      -0.071  -4.055   5.151  0.00  0.00    -0.275 OA
ATOM     18  N   UNL     1       0.612  -2.297   6.322  0.00  0.00    -0.311 N 
ATOM     19  H   UNL     1       0.822  -1.351   6.341  0.00  0.00    +0.149 HD
BRANCH  18  20
ATOM     20  C   UNL     1       0.749  -3.104   7.537  0.00  0.00    +0.076 C 
ATOM     21  C   UNL     1      -0.603  -3.191   8.247  0.00  0.00    +0.022 C 
ATOM     22  C   UNL     1      -1.075  -1.784   8.620  0.00  0.00    +0.002 C 
ATOM     23  C   UNL     1      -0.051  -1.133   9.551  0.00  0.00    +0.000 C 
ATOM     24  C   UNL     1       1.302  -1.046   8.840  0.00  0.00    +0.005 C 
ATOM     25  C   UNL     1       1.774  -2.452   8.468  0.00  0.00    +0.006 C 
ATOM     26  C   UNL     1       3.126  -2.365   7.758  0.00  0.00    +0.009 C 
ENDBRANCH  18  20
ENDBRANCH  14  16
ENDBRANCH   1  14
TORSDOF 6
