REMARK  Name = ZINC50059506
REMARK  9 active torsions:
REMARK  status: ('A' for Active; 'I' for Inactive)
REMARK    1  A    between atoms: C_1  and  C_2
REMARK    2  A    between atoms: C_2  and  C_3
REMARK    3  A    between atoms: C_3  and  C_4
REMARK    4  A    between atoms: N_6  and  C_7
REMARK    5  A    between atoms: C_11  and  N_14
REMARK    6  A    between atoms: C_12  and  C_13
REMARK    7  A    between atoms: N_17  and  C_18
REMARK    8  A    between atoms: C_18  and  C_19
REMARK    9  A    between atoms: N_21  and  C_22
REMARK                            x       y       z     vdW  Elec       q    Type
REMARK                         _______ _______ _______ _____ _____    ______ ____
ROOT
ATOM      1  N   UNL     1      -4.759  -7.021  -0.402  0.00  0.00    -0.269 N 
ATOM      2  C   UNL     1      -4.828  -8.235   0.179  0.00  0.00    +0.304 C 
ATOM      3  O   UNL     1      -3.843  -8.713   0.707  0.00  0.00    -0.252 OA
ATOM      4  N   UNL     1      -5.989  -8.919   0.174  0.00  0.00    -0.291 N 
ATOM      5  H   UNL     1      -5.524  -6.669  -0.883  0.00  0.00    +0.156 HD
ATOM      6  H   UNL     1      -6.775  -8.538  -0.248  0.00  0.00    +0.151 HD
ENDROOT
BRANCH   1  11
ATOM      7  C   UNL     1      -2.482  -4.141  -0.127  0.00  0.00    +0.038 A 
ATOM      8  C   UNL     1      -1.250  -4.783  -0.133  0.00  0.00    +0.024 A 
ATOM      9  C   UNL     1      -1.187  -6.160  -0.228  0.00  0.00    +0.004 A 
ATOM     10  C   UNL     1      -2.348  -6.903  -0.317  0.00  0.00    +0.024 A 
ATOM     11  C   UNL     1      -3.583  -6.267  -0.311  0.00  0.00    +0.039 A 
ATOM     12  C   UNL     1      -3.650  -4.885  -0.210  0.00  0.00    -0.008 A 
ATOM     13  C   UNL     1      -4.989  -4.193  -0.197  0.00  0.00    +0.047 C 
BRANCH   7  16
ATOM     14  C   UNL     1      -1.533  -2.064   0.541  0.00  0.00    +0.217 C 
ATOM     15  O   UNL     1      -0.616  -2.663   1.063  0.00  0.00    -0.275 OA
ATOM     16  N   UNL     1      -2.545  -2.747  -0.030  0.00  0.00    -0.285 N 
ATOM     17  H   UNL     1      -3.317  -2.271  -0.375  0.00  0.00    +0.155 HD
BRANCH  14  18
ATOM     18  C   UNL     1      -1.541  -0.557   0.533  0.00  0.00    +0.096 C 
BRANCH  18  20
ATOM     19  C   UNL     1      -0.297   1.493   1.233  0.00  0.00    +0.004 C 
ATOM     20  C   UNL     1      -0.289  -0.037   1.241  0.00  0.00    +0.006 C 
ENDBRANCH  18  20
ENDBRANCH  14  18
ENDBRANCH   7  16
ENDBRANCH   1  11
BRANCH   4  21
ATOM     21  C   UNL     1      -6.064 -10.239   0.806  0.00  0.00    +0.202 C 
BRANCH  21  22
ATOM     22  C   UNL     1      -7.461 -10.786   0.663  0.00  0.00    +0.234 C 
ATOM     23  O   UNL     1      -8.311 -10.137   0.090  0.00  0.00    -0.274 OA
ATOM     24  N   UNL     1      -7.767 -11.995   1.172  0.00  0.00    -0.284 N 
ATOM     25  H   UNL     1      -7.110 -12.481   1.695  0.00  0.00    +0.155 HD
BRANCH  24  26
ATOM     26  C   UNL     1      -9.032 -12.552   0.944  0.00  0.00    +0.034 A 
ATOM     27  C   UNL     1      -9.640 -13.320   1.928  0.00  0.00    +0.026 A 
ATOM     28  C   UNL     1     -10.888 -13.867   1.702  0.00  0.00    +0.040 A 
ATOM     29  C   UNL     1     -11.532 -13.651   0.495  0.00  0.00    +0.124 A 
ATOM     30  C   UNL     1     -10.926 -12.885  -0.487  0.00  0.00    +0.040 A 
ATOM     31  C   UNL     1      -9.682 -12.331  -0.263  0.00  0.00    +0.026 A 
ATOM     32  F   UNL     1     -12.752 -14.188   0.276  0.00  0.00    -0.205 F 
ENDBRANCH  24  26
ENDBRANCH  21  22
ENDBRANCH   4  21
TORSDOF 7
