REMARK  Name = ZINC36304972
REMARK  19 active torsions:
REMARK  status: ('A' for Active; 'I' for Inactive)
REMARK    1  A    between atoms: C_1  and  C_2
REMARK    2  A    between atoms: C_2  and  C_3
REMARK    3  A    between atoms: C_2  and  C_4
REMARK    4  A    between atoms: C_2  and  O_5
REMARK    5  A    between atoms: O_5  and  C_6
REMARK    6  A    between atoms: C_6  and  C_7
REMARK    7  A    between atoms: C_7  and  C_9
REMARK    8  A    between atoms: C_7  and  O_36
REMARK    9  A    between atoms: C_9  and  N_10
REMARK   10  A    between atoms: N_10  and  C_11
REMARK   11  A    between atoms: N_10  and  C_15
REMARK   12  A    between atoms: C_11  and  C_12
REMARK   13  A    between atoms: C_12  and  O_13
REMARK   14  A    between atoms: O_13  and  C_14
REMARK   15  A    between atoms: C_15  and  C_16
REMARK   16  A    between atoms: C_17  and  C_30
REMARK   17  A    between atoms: N_19  and  C_29
REMARK   18  A    between atoms: C_20  and  O_21
REMARK   19  A    between atoms: O_21  and  C_22
REMARK                            x       y       z     vdW  Elec       q    Type
REMARK                         _______ _______ _______ _____ _____    ______ ____
ROOT
ATOM      1  C   UNL     1       6.824  -1.177  -5.439  0.00  0.00    +0.025 A 
ATOM      2  C   UNL     1       7.502  -2.402  -5.296  0.00  0.00    +0.098 A 
ATOM      3  N   UNL     1       8.135  -2.653  -6.422  0.00  0.00    -0.168 NA
ATOM      4  N   UNL     1       7.882  -1.602  -7.312  0.00  0.00    -0.235 N 
ATOM      5  C   UNL     1       7.070  -0.710  -6.689  0.00  0.00    +0.221 A 
ATOM      6  C   UNL     1       8.398  -1.488  -8.679  0.00  0.00    +0.176 C 
ENDROOT
BRANCH   2   7
ATOM      7  C   UNL     1       7.504  -3.261  -4.086  0.00  0.00    +0.002 A 
ATOM      8  C   UNL     1       7.364  -4.642  -4.208  0.00  0.00    +0.010 A 
ATOM      9  C   UNL     1       7.367  -5.436  -3.080  0.00  0.00    +0.001 A 
ATOM     10  C   UNL     1       7.507  -4.864  -1.828  0.00  0.00    +0.000 A 
ATOM     11  C   UNL     1       7.646  -3.494  -1.701  0.00  0.00    +0.001 A 
ATOM     12  C   UNL     1       7.651  -2.691  -2.823  0.00  0.00    +0.010 A 
ENDBRANCH   2   7
BRANCH   1  13
ATOM     13  C   UNL     1       5.971  -0.507  -4.392  0.00  0.00    -0.035 C 
BRANCH  13  14
ATOM     14  N   UNL     1       4.559  -0.838  -4.626  0.00  0.00    +0.386 N 
ATOM     15  H   UNL     1       4.295  -0.546  -5.555  0.00  0.00    -0.081 HD
BRANCH  14  16
ATOM     16  C   UNL     1       3.723  -0.143  -3.638  0.00  0.00    -0.044 C 
BRANCH  16  17
ATOM     17  C   UNL     1       3.773   1.364  -3.898  0.00  0.00    +0.124 C 
BRANCH  17  18
ATOM     18  O   UNL     1       5.082   1.856  -3.602  0.00  0.00    -0.391 OA
ATOM     19  H   UNL     1       5.357   1.716  -2.686  0.00  0.00    +0.210 HD
ENDBRANCH  17  18
BRANCH  17  20
ATOM     20  C   UNL     1       2.749   2.070  -3.006  0.00  0.00    +0.189 C 
BRANCH  20  21
ATOM     21  O   UNL     1       2.713   3.461  -3.331  0.00  0.00    -0.372 OA
BRANCH  21  23
ATOM     22  C   UNL     1       2.154   4.108  -1.070  0.00  0.00    +0.041 C 
ATOM     23  C   UNL     1       1.784   4.216  -2.551  0.00  0.00    +0.061 C 
ATOM     24  C   UNL     1       0.372   3.665  -2.765  0.00  0.00    +0.041 C 
ATOM     25  C   UNL     1       1.829   5.683  -2.982  0.00  0.00    +0.041 C 
ENDBRANCH  21  23
ENDBRANCH  20  21
ENDBRANCH  17  20
ENDBRANCH  16  17
ENDBRANCH  14  16
BRANCH  14  26
ATOM     26  C   UNL     1       4.367  -2.288  -4.495  0.00  0.00    -0.050 C 
BRANCH  26  27
ATOM     27  C   UNL     1       2.933  -2.650  -4.884  0.00  0.00    +0.141 C 
BRANCH  27  28
ATOM     28  O   UNL     1       2.711  -2.312  -6.255  0.00  0.00    -0.385 OA
ATOM     29  C   UNL     1       1.394  -2.612  -6.721  0.00  0.00    +0.193 C 
ENDBRANCH  27  28
ENDBRANCH  26  27
ENDBRANCH  14  26
ENDBRANCH  13  14
ENDBRANCH   1  13
BRANCH   5  30
ATOM     30  O   UNL     1       6.592   0.445  -7.220  0.00  0.00    -0.437 OA
BRANCH  30  31
ATOM     31  C   UNL     1       7.354   1.564  -7.103  0.00  0.00    +0.149 A 
ATOM     32  C   UNL     1       8.624   1.486  -6.550  0.00  0.00    +0.048 A 
ATOM     33  C   UNL     1       9.396   2.625  -6.432  0.00  0.00    +0.004 A 
ATOM     34  C   UNL     1       8.905   3.843  -6.864  0.00  0.00    +0.002 A 
ATOM     35  C   UNL     1       7.640   3.925  -7.415  0.00  0.00    +0.024 A 
ATOM     36  C   UNL     1       6.865   2.787  -7.542  0.00  0.00    +0.083 A 
ATOM     37 CL   UNL     1       5.279   2.889  -8.241  0.00  0.00    -0.080 Cl
ENDBRANCH  30  31
ENDBRANCH   5  30
TORSDOF 14
