REMARK  Name = ZINC21148515
REMARK  12 active torsions:
REMARK  status: ('A' for Active; 'I' for Inactive)
REMARK    1  A    between atoms: C_1  and  C_2
REMARK    2  A    between atoms: C_2  and  C_3
REMARK    3  A    between atoms: C_3  and  C_4
REMARK    4  A    between atoms: C_4  and  N_5
REMARK    5  A    between atoms: N_5  and  C_6
REMARK    6  A    between atoms: N_5  and  C_30
REMARK    7  A    between atoms: C_6  and  C_7
REMARK    8  A    between atoms: C_7  and  C_8
REMARK    9  A    between atoms: C_8  and  N_9
REMARK   10  A    between atoms: C_10  and  C_12
REMARK   11  A    between atoms: C_25  and  C_29
REMARK   12  A    between atoms: C_30  and  C_31
REMARK                            x       y       z     vdW  Elec       q    Type
REMARK                         _______ _______ _______ _____ _____    ______ ____
ROOT
ATOM      1  N   UNL     1       2.733   8.199   1.342  0.00  0.00    -0.315 N 
ATOM      2  C   UNL     1       3.819   7.564   0.860  0.00  0.00    +0.218 C 
ATOM      3  O   UNL     1       4.888   7.679   1.421  0.00  0.00    -0.275 OA
ATOM      4  H   UNL     1       1.763   8.094   0.833  0.00  0.00    +0.149 HD
ENDROOT
BRANCH   2   5
ATOM      5  C   UNL     1       3.706   6.710  -0.377  0.00  0.00    +0.092 C 
ATOM      6  C   UNL     1       5.073   6.103  -0.706  0.00  0.00    +0.016 C 
ATOM      7  C   UNL     1       4.936   5.190  -1.928  0.00  0.00    +0.020 C 
ATOM      8  C   UNL     1       3.894   4.108  -1.636  0.00  0.00    +0.107 C 
ATOM      9  N   UNL     1       2.604   4.740  -1.328  0.00  0.00    -0.307 N 
ATOM     10  C   UNL     1       2.699   5.584  -0.130  0.00  0.00    +0.119 C 
ATOM     11  C   UNL     1       1.608   3.789  -1.187  0.00  0.00    +0.184 A 
ATOM     12  N   UNL     1       1.688   2.491  -1.305  0.00  0.00    -0.139 NA
ATOM     13  N   UNL     1       0.574   1.676  -1.128  0.00  0.00    -0.170 N 
ATOM     14  C   UNL     1       0.526   0.315  -1.224  0.00  0.00    +0.275 A 
ATOM     15  O   UNL     1       1.537  -0.316  -1.492  0.00  0.00    -0.266 OA
ATOM     16  C   UNL     1      -0.680  -0.355  -1.016  0.00  0.00    +0.095 A 
ATOM     17  C   UNL     1      -1.818   0.364  -0.714  0.00  0.00    +0.046 A 
ATOM     18  N   UNL     1      -1.735   1.689  -0.629  0.00  0.00    -0.227 NA
ATOM     19  C   UNL     1      -0.599   2.309  -0.825  0.00  0.00    +0.200 A 
ATOM     20  S   UNL     1      -0.119   4.022  -0.796  0.00  0.00    -0.013 S 
ATOM     21  C   UNL     1      -3.131  -0.339  -0.485  0.00  0.00    +0.066 C 
ENDBRANCH   2   5
BRANCH   1  22
ATOM     22  C   UNL     1       2.843   9.029   2.544  0.00  0.00    +0.102 C 
BRANCH  22  23
ATOM     23  C   UNL     1       1.476   9.631   2.875  0.00  0.00    +0.000 C 
BRANCH  23  24
ATOM     24  C   UNL     1       1.590  10.497   4.131  0.00  0.00    -0.077 C 
BRANCH  24  25
ATOM     25  N   UNL     1       0.278  11.075   4.448  0.00  0.00    +0.382 N 
ATOM     26  H   UNL     1      -0.104  11.566   3.541  0.00  0.00    -0.081 HD
BRANCH  25  27
ATOM     27  C   UNL     1      -0.679  10.029   4.832  0.00  0.00    -0.078 C 
BRANCH  27  28
ATOM     28  C   UNL     1      -2.102  10.588   4.759  0.00  0.00    -0.019 C 
BRANCH  28  30
ATOM     29  C   UNL     1      -4.520  10.064   5.109  0.00  0.00    +0.004 C 
ATOM     30  C   UNL     1      -3.097   9.505   5.182  0.00  0.00    -0.005 C 
ENDBRANCH  28  30
ENDBRANCH  27  28
ENDBRANCH  25  27
BRANCH  25  31
ATOM     31  C   UNL     1       0.392  12.095   5.499  0.00  0.00    -0.043 C 
BRANCH  31  32
ATOM     32  C   UNL     1       0.976  13.356   4.915  0.00  0.00    -0.064 A 
ATOM     33  C   UNL     1       2.332  13.603   5.019  0.00  0.00    +0.002 A 
ATOM     34  C   UNL     1       2.868  14.757   4.478  0.00  0.00    +0.000 A 
ATOM     35  C   UNL     1       2.046  15.668   3.842  0.00  0.00    +0.000 A 
ATOM     36  C   UNL     1       0.689  15.424   3.743  0.00  0.00    +0.000 A 
ATOM     37  C   UNL     1       0.154  14.268   4.279  0.00  0.00    +0.002 A 
ENDBRANCH  31  32
ENDBRANCH  25  31
ENDBRANCH  24  25
ENDBRANCH  23  24
ENDBRANCH  22  23
ENDBRANCH   1  22
TORSDOF 10
