REMARK  Name = ZINC03158305
REMARK  7 active torsions:
REMARK  status: ('A' for Active; 'I' for Inactive)
REMARK    1  A    between atoms: C_1  and  C_2
REMARK    2  A    between atoms: C_3  and  C_23
REMARK    3  A    between atoms: C_4  and  C_16
REMARK    4  A    between atoms: C_10  and  C_14
REMARK    5  A    between atoms: C_10  and  C_15
REMARK    6  A    between atoms: C_23  and  O_25
REMARK    7  A    between atoms: O_25  and  C_26
REMARK                            x       y       z     vdW  Elec       q    Type
REMARK                         _______ _______ _______ _____ _____    ______ ____
ROOT
ATOM      1  C   UNL     1      -4.870   2.152  -2.465  0.00  0.00    +0.061 C 
ATOM      2  C   UNL     1      -4.242   2.571  -1.161  0.00  0.00    +0.016 C 
ATOM      3  C   UNL     1      -3.192   3.409  -1.164  0.00  0.00    +0.065 C 
ATOM      4  C   UNL     1      -2.535   3.840   0.114  0.00  0.00    +0.092 C 
ATOM      5  C   UNL     1      -3.433   3.583   1.298  0.00  0.00    +0.024 C 
ATOM      6  C   UNL     1      -4.480   2.736   1.199  0.00  0.00    +0.016 C 
ATOM      7  N   UNL     1      -4.744   2.095   0.018  0.00  0.00    -0.321 N 
ATOM      8  C   UNL     1      -5.385   2.478   2.377  0.00  0.00    +0.058 C 
ATOM      9  C   UNL     1      -4.591   2.616   3.677  0.00  0.00    -0.023 C 
ATOM     10  C   UNL     1      -3.990   4.024   3.733  0.00  0.00    +0.086 C 
ATOM     11  C   UNL     1      -3.149   4.246   2.505  0.00  0.00    +0.162 C 
ATOM     12  O   UNL     1      -2.207   5.013   2.557  0.00  0.00    -0.292 OA
ATOM     13  C   UNL     1      -3.468   1.576   3.704  0.00  0.00    +0.011 C 
ATOM     14  C   UNL     1      -5.517   2.404   4.876  0.00  0.00    +0.011 C 
ATOM     15  H   UNL     1      -5.367   1.188   0.025  0.00  0.00    +0.152 HD
ENDROOT
BRANCH   4  16
ATOM     16  C   UNL     1      -1.250   3.074   0.293  0.00  0.00    -0.035 A 
ATOM     17  C   UNL     1      -1.272   1.694   0.368  0.00  0.00    +0.005 A 
ATOM     18  C   UNL     1      -0.094   0.991   0.536  0.00  0.00    +0.015 A 
ATOM     19  C   UNL     1       1.109   1.668   0.620  0.00  0.00    +0.018 A 
ATOM     20  C   UNL     1       1.132   3.049   0.540  0.00  0.00    +0.015 A 
ATOM     21  C   UNL     1      -0.048   3.751   0.377  0.00  0.00    +0.005 A 
ATOM     22 BR   UNL     1       2.722   0.707   0.842  0.00  0.00    -0.050 Br
ENDBRANCH   4  16
BRANCH   3  23
ATOM     23  C   UNL     1      -2.695   3.894  -2.397  0.00  0.00    +0.338 C 
ATOM     24  O   UNL     1      -2.913   5.044  -2.730  0.00  0.00    -0.245 OA
BRANCH  23  25
ATOM     25  O   UNL     1      -1.980   3.081  -3.203  0.00  0.00    -0.458 OA
BRANCH  25  26
ATOM     26  C   UNL     1      -1.510   3.637  -4.432  0.00  0.00    +0.177 C 
ATOM     27  C   UNL     1      -2.557   3.416  -5.526  0.00  0.00    +0.044 C 
ATOM     28  C   UNL     1      -2.053   4.011  -6.842  0.00  0.00    +0.004 C 
ATOM     29  C   UNL     1      -0.745   3.327  -7.243  0.00  0.00    +0.000 C 
ATOM     30  C   UNL     1       0.302   3.549  -6.150  0.00  0.00    +0.004 C 
ATOM     31  C   UNL     1      -0.201   2.953  -4.833  0.00  0.00    +0.044 C 
ENDBRANCH  25  26
ENDBRANCH  23  25
ENDBRANCH   3  23
TORSDOF 4
