REMARK  Name = ZINC39685853
REMARK  11 active torsions:
REMARK  status: ('A' for Active; 'I' for Inactive)
REMARK    1  A    between atoms: C_1  and  C_2
REMARK    2  A    between atoms: C_2  and  C_3
REMARK    3  A    between atoms: C_2  and  C_4
REMARK    4  A    between atoms: C_4  and  C_6
REMARK    5  A    between atoms: C_4  and  N_13
REMARK    6  A    between atoms: N_8  and  C_9
REMARK    7  A    between atoms: C_9  and  C_10
REMARK    8  A    between atoms: C_9  and  C_11
REMARK    9  A    between atoms: C_9  and  C_12
REMARK   10  A    between atoms: C_14  and  C_16
REMARK   11  A    between atoms: C_27  and  C_29
REMARK                            x       y       z     vdW  Elec       q    Type
REMARK                         _______ _______ _______ _____ _____    ______ ____
ROOT
ATOM      1  C   UNL     1      -1.712  -0.511  -3.581  0.00  0.00    +0.100 C 
ATOM      2  C   UNL     1      -1.078   0.841  -3.978  0.00  0.00    +0.121 C 
ATOM      3  N   UNL     1       0.098   0.475  -4.802  0.00  0.00    -0.297 N 
ATOM      4  C   UNL     1      -0.367  -0.670  -5.621  0.00  0.00    +0.115 C 
ATOM      5  C   UNL     1      -1.246  -1.499  -4.663  0.00  0.00    -0.004 C 
ATOM      6  C   UNL     1      -0.426  -2.622  -4.035  0.00  0.00    -0.010 C 
ATOM      7  C   UNL     1      -0.022  -3.622  -5.123  0.00  0.00    -0.082 C 
ATOM      8  N   UNL     1      -1.227  -4.166  -5.762  0.00  0.00    +0.379 N 
ATOM      9  C   UNL     1      -1.961  -3.093  -6.442  0.00  0.00    -0.082 C 
ATOM     10  C   UNL     1      -2.447  -2.071  -5.410  0.00  0.00    -0.010 C 
ATOM     11  C   UNL     1       1.316   1.053  -4.806  0.00  0.00    +0.260 C 
ATOM     12  O   UNL     1       1.571   1.935  -4.014  0.00  0.00    -0.271 OA
ATOM     13  H   UNL     1      -0.961  -4.869  -6.435  0.00  0.00    -0.086 HD
ATOM     14  H   UNL     1      -1.819  -4.584  -5.059  0.00  0.00    -0.086 HD
ENDROOT
BRANCH  11  15
ATOM     15  C   UNL     1       2.360   0.602  -5.794  0.00  0.00    +0.296 C 
ATOM     16  C   UNL     1       1.936   1.001  -7.214  0.00  0.00    +0.283 C 
ATOM     17  O   UNL     1       2.954   0.571  -8.124  0.00  0.00    -0.484 OA
ATOM     18  C   UNL     1       4.241   0.846  -7.776  0.00  0.00    +0.162 A 
ATOM     19  C   UNL     1       5.234   0.795  -8.743  0.00  0.00    +0.049 A 
ATOM     20  C   UNL     1       6.545   1.068  -8.404  0.00  0.00    +0.004 A 
ATOM     21  C   UNL     1       6.871   1.394  -7.100  0.00  0.00    +0.004 A 
ATOM     22  C   UNL     1       5.887   1.448  -6.132  0.00  0.00    +0.049 A 
ATOM     23  C   UNL     1       4.568   1.176  -6.466  0.00  0.00    +0.163 A 
ATOM     24  O   UNL     1       3.608   1.240  -5.503  0.00  0.00    -0.473 OA
ENDBRANCH  11  15
BRANCH   1  26
ATOM     25  N   UNL     1      -1.935  -1.819  -1.494  0.00  0.00    -0.303 N 
ATOM     26  C   UNL     1      -1.217  -0.945  -2.226  0.00  0.00    +0.219 C 
ATOM     27  O   UNL     1      -0.171  -0.508  -1.794  0.00  0.00    -0.275 OA
ATOM     28  H   UNL     1      -2.771  -2.169  -1.839  0.00  0.00    +0.149 HD
BRANCH  25  29
ATOM     29  C   UNL     1      -1.454  -2.241  -0.176  0.00  0.00    +0.161 C 
BRANCH  29  30
ATOM     30  C   UNL     1      -2.029  -3.592   0.160  0.00  0.00    +0.234 C 
ATOM     31  O   UNL     1      -2.824  -4.117  -0.591  0.00  0.00    -0.274 OA
ATOM     32  N   UNL     1      -1.662  -4.218   1.296  0.00  0.00    -0.309 N 
ATOM     33  H   UNL     1      -0.973  -3.833   1.861  0.00  0.00    +0.149 HD
BRANCH  32  34
ATOM     34  C   UNL     1      -2.303  -5.478   1.679  0.00  0.00    +0.026 C 
ATOM     35  C   UNL     1      -2.064  -6.524   0.588  0.00  0.00    +0.031 C 
ATOM     36  C   UNL     1      -1.707  -5.974   2.998  0.00  0.00    +0.031 C 
ATOM     37  C   UNL     1      -3.807  -5.254   1.850  0.00  0.00    +0.031 C 
ENDBRANCH  32  34
ENDBRANCH  29  30
BRANCH  29  39
ATOM     38  C   UNL     1      -1.185   0.110   0.626  0.00  0.00    +0.009 C 
ATOM     39  C   UNL     1      -1.893  -1.223   0.878  0.00  0.00    +0.012 C 
ATOM     40  C   UNL     1      -3.407  -1.020   0.791  0.00  0.00    +0.009 C 
ENDBRANCH  29  39
ENDBRANCH  25  29
ENDBRANCH   1  26
TORSDOF 6
