REMARK  Name = ZINC66089137
REMARK  9 active torsions:
REMARK  status: ('A' for Active; 'I' for Inactive)
REMARK    1  A    between atoms: C_1  and  C_2
REMARK    2  A    between atoms: C_2  and  C_3
REMARK    3  A    between atoms: C_2  and  C_4
REMARK    4  A    between atoms: C_2  and  N_17
REMARK    5  A    between atoms: N_6  and  C_9
REMARK    6  A    between atoms: C_9  and  C_10
REMARK    7  A    between atoms: C_18  and  C_20
REMARK    8  A    between atoms: N_23  and  C_35
REMARK    9  A    between atoms: C_24  and  C_25
REMARK                            x       y       z     vdW  Elec       q    Type
REMARK                         _______ _______ _______ _____ _____    ______ ____
ROOT
ATOM      1  N   UNL     1       0.688  -0.476  -1.203  0.00  0.00    -0.301 N 
ATOM      2  C   UNL     1       1.972  -0.132  -1.427  0.00  0.00    +0.248 C 
ATOM      3  O   UNL     1       2.561   0.571  -0.628  0.00  0.00    -0.270 OA
ATOM      4  H   UNL     1       0.218  -1.037  -1.840  0.00  0.00    +0.150 HD
ENDROOT
BRANCH   2   5
ATOM      5  C   UNL     1       2.660  -0.607  -2.637  0.00  0.00    +0.082 A 
ATOM      6  C   UNL     1       2.110  -1.418  -3.652  0.00  0.00    +0.148 A 
ATOM      7  N   UNL     1       3.028  -1.623  -4.556  0.00  0.00    -0.179 NA
ATOM      8  N   UNL     1       4.202  -0.964  -4.177  0.00  0.00    -0.266 N 
ATOM      9  C   UNL     1       3.979  -0.335  -3.002  0.00  0.00    +0.081 A 
ATOM     10  C   UNL     1       5.460  -0.954  -4.929  0.00  0.00    +0.173 C 
BRANCH   9  11
ATOM     11  C   UNL     1       4.947   0.484  -2.246  0.00  0.00    +0.004 A 
ATOM     12  C   UNL     1       4.555   1.709  -1.702  0.00  0.00    +0.014 A 
ATOM     13  C   UNL     1       5.463   2.472  -0.999  0.00  0.00    +0.050 A 
ATOM     14  C   UNL     1       6.767   2.026  -0.826  0.00  0.00    +0.162 A 
ATOM     15  C   UNL     1       7.164   0.805  -1.364  0.00  0.00    +0.163 A 
ATOM     16  C   UNL     1       6.257   0.033  -2.068  0.00  0.00    +0.059 A 
ATOM     17  O   UNL     1       8.436   0.351  -1.197  0.00  0.00    -0.485 OA
ATOM     18  C   UNL     1       9.417   1.316  -0.801  0.00  0.00    +0.270 C 
ATOM     19  C   UNL     1       8.833   2.153   0.344  0.00  0.00    +0.270 C 
ATOM     20  O   UNL     1       7.646   2.798  -0.131  0.00  0.00    -0.485 OA
ENDBRANCH   9  11
ENDBRANCH   2   5
BRANCH   1  22
ATOM     21  C   UNL     1      -0.019   1.526   0.010  0.00  0.00    +0.038 C 
ATOM     22  C   UNL     1       0.002  -0.004   0.002  0.00  0.00    +0.075 C 
ATOM     23  C   UNL     1       0.742  -0.511   1.242  0.00  0.00    +0.038 C 
BRANCH  22  24
ATOM     24  C   UNL     1      -1.412  -0.526   0.013  0.00  0.00    +0.106 A 
ATOM     25  C   UNL     1      -2.352  -0.298   0.959  0.00  0.00    +0.136 A 
ATOM     26  N   UNL     1      -3.461  -0.959   0.556  0.00  0.00    -0.247 N 
ATOM     27  N   UNL     1      -3.199  -1.544  -0.560  0.00  0.00    -0.065 NA
ATOM     28  N   UNL     1      -1.986  -1.300  -0.914  0.00  0.00    -0.132 NA
BRANCH  26  29
ATOM     29  C   UNL     1      -4.741  -1.003   1.267  0.00  0.00    +0.180 C 
BRANCH  29  30
ATOM     30  C   UNL     1      -5.843  -0.545   0.347  0.00  0.00    -0.026 A 
ATOM     31  C   UNL     1      -6.181   0.794   0.285  0.00  0.00    +0.007 A 
ATOM     32  C   UNL     1      -7.191   1.214  -0.559  0.00  0.00    +0.020 A 
ATOM     33  C   UNL     1      -7.866   0.293  -1.342  0.00  0.00    +0.041 A 
ATOM     34  C   UNL     1      -7.527  -1.047  -1.280  0.00  0.00    +0.020 A 
ATOM     35  C   UNL     1      -6.513  -1.465  -0.439  0.00  0.00    +0.007 A 
ATOM     36 CL   UNL     1      -9.136   0.820  -2.402  0.00  0.00    -0.084 Cl
ENDBRANCH  29  30
ENDBRANCH  26  29
ENDBRANCH  22  24
ENDBRANCH   1  22
TORSDOF 6
