REMARK  Name = ZINC64610073
REMARK  14 active torsions:
REMARK  status: ('A' for Active; 'I' for Inactive)
REMARK    1  A    between atoms: C_1  and  C_2
REMARK    2  A    between atoms: C_2  and  C_3
REMARK    3  A    between atoms: C_2  and  C_4
REMARK    4  A    between atoms: C_4  and  N_5
REMARK    5  A    between atoms: C_7  and  C_18
REMARK    6  A    between atoms: C_10  and  C_12
REMARK    7  A    between atoms: N_14  and  C_15
REMARK    8  A    between atoms: C_15  and  C_16
REMARK    9  A    between atoms: C_15  and  C_17
REMARK   10  A    between atoms: N_20  and  C_21
REMARK   11  A    between atoms: C_21  and  C_22
REMARK   12  A    between atoms: C_22  and  C_23
REMARK   13  A    between atoms: C_29  and  O_33
REMARK   14  A    between atoms: O_33  and  C_34
REMARK                            x       y       z     vdW  Elec       q    Type
REMARK                         _______ _______ _______ _____ _____    ______ ____
ROOT
ATOM      1  C   UNL     1      -1.650  -3.681  -2.612  0.00  0.00    +0.249 C 
ATOM      2  O   UNL     1      -1.792  -2.822  -3.460  0.00  0.00    -0.270 OA
ATOM      3  N   UNL     1      -1.563  -4.977  -2.973  0.00  0.00    -0.311 N 
ATOM      4  H   UNL     1      -1.372  -5.654  -2.305  0.00  0.00    +0.149 HD
ENDROOT
BRANCH   1   7
ATOM      5  N   UNL     1      -1.478  -1.627   0.485  0.00  0.00    -0.351 N 
ATOM      6  C   UNL     1      -1.546  -1.982  -0.808  0.00  0.00    +0.102 A 
ATOM      7  C   UNL     1      -1.575  -3.306  -1.189  0.00  0.00    +0.100 A 
ATOM      8  C   UNL     1      -1.528  -4.336  -0.138  0.00  0.00    +0.206 A 
ATOM      9  O   UNL     1      -1.549  -5.525  -0.412  0.00  0.00    -0.286 OA
ATOM     10  C   UNL     1      -1.453  -3.871   1.257  0.00  0.00    +0.100 A 
ATOM     11  C   UNL     1      -1.427  -2.514   1.493  0.00  0.00    +0.102 A 
BRANCH  10  12
ATOM     12  C   UNL     1      -1.403  -4.832   2.372  0.00  0.00    +0.249 C 
ATOM     13  O   UNL     1      -1.441  -4.434   3.520  0.00  0.00    -0.270 OA
ATOM     14  N   UNL     1      -1.314  -6.153   2.119  0.00  0.00    -0.309 N 
ATOM     15  H   UNL     1      -1.206  -6.467   1.208  0.00  0.00    +0.149 HD
BRANCH  14  16
ATOM     16  C   UNL     1      -1.383  -7.116   3.221  0.00  0.00    +0.067 C 
ATOM     17  C   UNL     1      -1.878  -8.463   2.692  0.00  0.00    +0.027 C 
ATOM     18  C   UNL     1       0.008  -7.290   3.834  0.00  0.00    +0.027 C 
ENDBRANCH  14  16
ENDBRANCH  10  12
BRANCH   5  19
ATOM     19  C   UNL     1      -1.452  -0.200   0.814  0.00  0.00    +0.124 C 
BRANCH  19  21
ATOM     20  C   UNL     1       0.020   1.803   1.068  0.00  0.00    +0.009 C 
ATOM     21  C   UNL     1      -0.003   0.289   0.848  0.00  0.00    +0.003 C 
ATOM     22  C   UNL     1       0.742  -0.403   1.992  0.00  0.00    +0.009 C 
ENDBRANCH  19  21
ENDBRANCH   5  19
ENDBRANCH   1   7
BRANCH   3  23
ATOM     23  C   UNL     1      -1.756  -5.362  -4.373  0.00  0.00    +0.108 C 
BRANCH  23  24
ATOM     24  C   UNL     1      -1.605  -6.878  -4.510  0.00  0.00    +0.065 C 
BRANCH  24  25
ATOM     25  C   UNL     1      -1.806  -7.280  -5.973  0.00  0.00    +0.175 C 
ATOM     26  N   UNL     1      -3.164  -6.933  -6.408  0.00  0.00    -0.363 N 
ATOM     27  C   UNL     1      -3.758  -8.038  -6.759  0.00  0.00    +0.060 A 
ATOM     28  C   UNL     1      -5.108  -8.315  -7.272  0.00  0.00    +0.031 A 
ATOM     29  C   UNL     1      -5.467  -9.580  -7.561  0.00  0.00    +0.048 A 
ATOM     30  C   UNL     1      -4.552 -10.700  -7.381  0.00  0.00    +0.122 A 
ATOM     31  C   UNL     1      -3.292 -10.525  -6.913  0.00  0.00    +0.073 A 
ATOM     32  C   UNL     1      -2.823  -9.180  -6.575  0.00  0.00    +0.064 A 
ATOM     33  N   UNL     1      -1.683  -8.736  -6.117  0.00  0.00    -0.363 N 
ATOM     34  H   UNL     1      -3.550  -6.043  -6.429  0.00  0.00    +0.162 HD
ATOM     35  H   UNL     1      -0.899  -9.269  -5.909  0.00  0.00    +0.162 HD
BRANCH  30  36
ATOM     36  O   UNL     1      -4.973 -11.951  -7.690  0.00  0.00    -0.495 OA
ATOM     37  C   UNL     1      -6.309 -12.084  -8.179  0.00  0.00    +0.277 C 
ENDBRANCH  30  36
ENDBRANCH  24  25
ENDBRANCH  23  24
ENDBRANCH   3  23
TORSDOF 9
