REMARK  Name = ZINC19125698
REMARK  6 active torsions:
REMARK  status: ('A' for Active; 'I' for Inactive)
REMARK    1  A    between atoms: C_1  and  C_2
REMARK    2  A    between atoms: C_9  and  O_31
REMARK    3  A    between atoms: C_18  and  C_19
REMARK    4  A    between atoms: C_18  and  N_58
REMARK    5  A    between atoms: C_19  and  C_21
REMARK    6  A    between atoms: C_19  and  O_30
REMARK                            x       y       z     vdW  Elec       q    Type
REMARK                         _______ _______ _______ _____ _____    ______ ____
ROOT
ATOM      1  C   UNL     1      -2.559   3.864   0.048  0.00  0.00    +0.045 C 
ATOM      2  C   UNL     1      -1.243   3.130   0.030  0.00  0.00    -0.029 A 
ATOM      3  C   UNL     1      -0.058   3.837   0.023  0.00  0.00    +0.050 A 
ATOM      4  C   UNL     1       1.159   3.165   0.006  0.00  0.00    +0.127 A 
ATOM      5  C   UNL     1       1.179   1.781   0.000  0.00  0.00    +0.024 A 
ATOM      6  C   UNL     1      -0.013   1.076   0.008  0.00  0.00    +0.030 A 
ATOM      7  C   UNL     1      -1.221   1.747   0.017  0.00  0.00    +0.044 A 
ATOM      8 CL   UNL     1      -2.710   0.855   0.019  0.00  0.00    -0.083 Cl
ATOM      9  C   UNL     1       2.476   1.012  -0.010  0.00  0.00    +0.152 C 
ATOM     10  C   UNL     1       3.619   1.932  -0.444  0.00  0.00    +0.084 C 
ATOM     11  C   UNL     1       3.517   3.236   0.354  0.00  0.00    +0.110 C 
ATOM     12  O   UNL     1       2.304   3.897  -0.005  0.00  0.00    -0.485 OA
ATOM     13  C   UNL     1       4.713   4.132   0.031  0.00  0.00    +0.029 C 
ATOM     14  C   UNL     1       4.636   5.404   0.879  0.00  0.00    -0.075 C 
ATOM     15  C   UNL     1       3.465   4.227   2.645  0.00  0.00    -0.075 C 
ATOM     16  C   UNL     1       3.508   2.919   1.851  0.00  0.00    +0.029 C 
ATOM     17  N   UNL     1       4.660   5.030   2.310  0.00  0.00    +0.382 N 
ATOM     18  H   UNL     1       5.500   4.469   2.493  0.00  0.00    -0.082 HD
ENDROOT
BRANCH   9  19
ATOM     19  O   UNL     1       2.372  -0.082  -0.924  0.00  0.00    -0.387 OA
ATOM     20  H   UNL     1       1.669  -0.710  -0.709  0.00  0.00    +0.210 HD
ENDBRANCH   9  19
BRANCH  17  21
ATOM     21  C   UNL     1       4.703   6.246   3.148  0.00  0.00    -0.042 C 
BRANCH  21  22
ATOM     22  C   UNL     1       5.777   7.191   2.606  0.00  0.00    +0.128 C 
BRANCH  22  23
ATOM     23  C   UNL     1       5.846   8.422   3.473  0.00  0.00    -0.020 A 
ATOM     24  C   UNL     1       6.612   8.418   4.624  0.00  0.00    +0.009 A 
ATOM     25  C   UNL     1       6.680   9.542   5.420  0.00  0.00    +0.046 A 
ATOM     26  C   UNL     1       5.968  10.689   5.077  0.00  0.00    +0.124 A 
ATOM     27  C   UNL     1       5.202  10.681   3.918  0.00  0.00    -0.002 A 
ATOM     28  C   UNL     1       5.139   9.558   3.123  0.00  0.00    +0.013 A 
ATOM     29  C   UNL     1       4.564  12.052   3.798  0.00  0.00    +0.080 C 
ATOM     30  C   UNL     1       5.402  12.883   4.799  0.00  0.00    +0.234 C 
ATOM     31  O   UNL     1       5.879  11.886   5.719  0.00  0.00    -0.491 OA
ENDBRANCH  22  23
BRANCH  22  32
ATOM     32  O   UNL     1       7.043   6.529   2.617  0.00  0.00    -0.389 OA
ATOM     33  H   UNL     1       7.331   6.244   3.495  0.00  0.00    +0.210 HD
ENDBRANCH  22  32
ENDBRANCH  21  22
ENDBRANCH  17  21
TORSDOF 5
