REMARK  Name = ZINC16648545
REMARK  11 active torsions:
REMARK  status: ('A' for Active; 'I' for Inactive)
REMARK    1  A    between atoms: C_1  and  C_2
REMARK    2  A    between atoms: C_2  and  C_3
REMARK    3  A    between atoms: C_2  and  N_4
REMARK    4  A    between atoms: N_4  and  C_5
REMARK    5  A    between atoms: C_5  and  C_6
REMARK    6  A    between atoms: N_8  and  C_9
REMARK    7  A    between atoms: N_8  and  C_21
REMARK    8  A    between atoms: C_9  and  C_10
REMARK    9  A    between atoms: C_10  and  C_11
REMARK   10  A    between atoms: C_21  and  C_22
REMARK   11  A    between atoms: C_30  and  C_32
REMARK                            x       y       z     vdW  Elec       q    Type
REMARK                         _______ _______ _______ _____ _____    ______ ____
ROOT
ATOM      1  C   UNL     1      -4.433  -1.239  -1.948  0.00  0.00    +0.233 C 
ATOM      2  O   UNL     1      -4.298  -0.043  -2.097  0.00  0.00    -0.274 OA
ATOM      3  N   UNL     1      -3.362  -2.010  -1.675  0.00  0.00    -0.296 N 
ENDROOT
BRANCH   1   4
ATOM      4  C   UNL     1      -5.800  -1.864  -2.067  0.00  0.00    +0.204 C 
BRANCH   4   5
ATOM      5  N   UNL     1      -6.769  -0.844  -2.475  0.00  0.00    -0.284 N 
ATOM      6  C   UNL     1      -6.900  -0.522  -3.777  0.00  0.00    +0.283 C 
ATOM      7  O   UNL     1      -7.648   0.379  -4.109  0.00  0.00    -0.267 OA
BRANCH   6   8
ATOM      8  C   UNL     1      -6.140  -1.256  -4.794  0.00  0.00    +0.189 A 
ATOM      9  C   UNL     1      -6.183  -1.037  -6.141  0.00  0.00    +0.054 A 
ATOM     10  C   UNL     1      -5.305  -1.960  -6.729  0.00  0.00    +0.042 A 
ATOM     11  C   UNL     1      -4.771  -2.694  -5.727  0.00  0.00    +0.196 A 
ATOM     12  O   UNL     1      -5.273  -2.263  -4.563  0.00  0.00    -0.458 OA
ENDBRANCH   6   8
BRANCH   5  14
ATOM     13  C   UNL     1      -7.274   1.320  -1.455  0.00  0.00    +0.028 C 
ATOM     14  C   UNL     1      -7.596  -0.175  -1.468  0.00  0.00    +0.071 C 
ATOM     15  C   UNL     1      -9.075  -0.376  -1.807  0.00  0.00    +0.028 C 
ENDBRANCH   5  14
ENDBRANCH   4   5
ENDBRANCH   1   4
BRANCH   3  16
ATOM     16  C   UNL     1      -2.021  -1.420  -1.660  0.00  0.00    +0.113 C 
BRANCH  16  17
ATOM     17  C   UNL     1      -1.699  -0.919  -0.251  0.00  0.00    +0.056 C 
BRANCH  17  18
ATOM     18  C   UNL     1      -0.319  -0.313  -0.236  0.00  0.00    -0.021 A 
ATOM     19  C   UNL     1       0.821  -0.931   0.110  0.00  0.00    +0.087 A 
ATOM     20  N   UNL     1       1.874  -0.064   0.001  0.00  0.00    -0.360 N 
ATOM     21  H   UNL     1       2.798  -0.282   0.198  0.00  0.00    +0.165 HD
ATOM     22  C   UNL     1       1.425   1.165  -0.427  0.00  0.00    +0.047 A 
ATOM     23  C   UNL     1       0.032   1.063  -0.595  0.00  0.00    +0.003 A 
ATOM     24  C   UNL     1      -0.702   2.171  -1.023  0.00  0.00    +0.010 A 
ATOM     25  C   UNL     1      -0.060   3.349  -1.286  0.00  0.00    +0.001 A 
ATOM     26  C   UNL     1       1.314   3.455  -1.123  0.00  0.00    +0.002 A 
ATOM     27  C   UNL     1       2.057   2.375  -0.697  0.00  0.00    +0.026 A 
ENDBRANCH  17  18
ENDBRANCH  16  17
ENDBRANCH   3  16
BRANCH   3  28
ATOM     28  C   UNL     1      -3.538  -3.436  -1.392  0.00  0.00    +0.143 C 
BRANCH  28  29
ATOM     29  C   UNL     1      -3.589  -3.651   0.099  0.00  0.00    -0.029 A 
ATOM     30  C   UNL     1      -2.421  -3.857   0.808  0.00  0.00    +0.007 A 
ATOM     31  C   UNL     1      -2.466  -4.048   2.176  0.00  0.00    +0.022 A 
ATOM     32  C   UNL     1      -3.682  -4.045   2.835  0.00  0.00    +0.059 A 
ATOM     33  C   UNL     1      -4.853  -3.844   2.124  0.00  0.00    +0.060 A 
ATOM     34  C   UNL     1      -4.805  -3.647   0.755  0.00  0.00    +0.026 A 
ATOM     35 CL   UNL     1      -6.380  -3.838   2.949  0.00  0.00    -0.082 Cl
ATOM     36 CL   UNL     1      -3.740  -4.291   4.552  0.00  0.00    -0.082 Cl
ENDBRANCH  28  29
ENDBRANCH   3  28
TORSDOF 9
