REMARK  Name = ZINC04883458
REMARK  8 active torsions:
REMARK  status: ('A' for Active; 'I' for Inactive)
REMARK    1  A    between atoms: C_1  and  C_2
REMARK    2  A    between atoms: C_5  and  C_8
REMARK    3  A    between atoms: C_14  and  C_16
REMARK    4  A    between atoms: C_16  and  C_18
REMARK    5  A    between atoms: C_16  and  N_21
REMARK    6  A    between atoms: C_18  and  C_19
REMARK    7  A    between atoms: C_18  and  C_20
REMARK    8  A    between atoms: C_22  and  C_24
REMARK                            x       y       z     vdW  Elec       q    Type
REMARK                         _______ _______ _______ _____ _____    ______ ____
ROOT
ATOM      1  C   UNL     1       1.626  -4.926   0.908  0.00  0.00    +0.134 A 
ATOM      2  N   UNL     1       0.971  -4.523   1.989  0.00  0.00    -0.140 NA
ATOM      3  N   UNL     1       0.718  -3.298   2.163  0.00  0.00    -0.125 NA
ATOM      4  C   UNL     1       1.080  -2.377   1.284  0.00  0.00    +0.188 A 
ATOM      5  S   UNL     1       1.876  -3.356   0.087  0.00  0.00    -0.030 S 
ATOM      6  N   UNL     1       0.882  -1.002   1.312  0.00  0.00    -0.262 N 
ATOM      7  C   UNL     1       0.231  -0.436   2.347  0.00  0.00    +0.239 C 
ATOM      8  O   UNL     1      -0.254  -1.133   3.213  0.00  0.00    -0.273 OA
ATOM      9  H   UNL     1       1.213  -0.450   0.587  0.00  0.00    +0.157 HD
ENDROOT
BRANCH   1  14
ATOM     10  C   UNL     1       3.216 -10.222  -0.686  0.00  0.00    +0.044 C 
ATOM     11  C   UNL     1       2.800  -8.835  -0.269  0.00  0.00    -0.050 A 
ATOM     12  C   UNL     1       2.113  -8.650   0.918  0.00  0.00    +0.004 A 
ATOM     13  C   UNL     1       1.729  -7.383   1.306  0.00  0.00    +0.011 A 
ATOM     14  C   UNL     1       2.034  -6.287   0.498  0.00  0.00    +0.009 A 
ATOM     15  C   UNL     1       2.722  -6.481  -0.701  0.00  0.00    +0.011 A 
ATOM     16  C   UNL     1       3.105  -7.753  -1.074  0.00  0.00    +0.004 A 
ENDBRANCH   1  14
BRANCH   7  17
ATOM     17  C   UNL     1       0.104   1.063   2.429  0.00  0.00    +0.162 C 
BRANCH  17  18
ATOM     18  N   UNL     1      -0.222   1.452   3.803  0.00  0.00    -0.299 N 
ATOM     19  C   UNL     1       0.098   2.683   4.249  0.00  0.00    +0.251 C 
ATOM     20  O   UNL     1       0.657   3.471   3.510  0.00  0.00    -0.270 OA
ATOM     21  H   UNL     1      -0.669   0.823   4.392  0.00  0.00    +0.150 HD
BRANCH  19  22
ATOM     22  C   UNL     1      -0.229   3.072   5.624  0.00  0.00    +0.074 A 
ATOM     23  C   UNL     1       0.010   4.273   6.272  0.00  0.00    +0.021 A 
ATOM     24  C   UNL     1      -0.405   4.373   7.577  0.00  0.00    +0.008 A 
ATOM     25  C   UNL     1      -1.018   3.310   8.162  0.00  0.00    +0.046 A 
ATOM     26  S   UNL     1      -1.044   2.124   6.897  0.00  0.00    -0.092 S 
ENDBRANCH  19  22
ENDBRANCH  17  18
BRANCH  17  27
ATOM     27  C   UNL     1      -1.008   1.533   1.488  0.00  0.00    +0.012 C 
ATOM     28  C   UNL     1      -1.043   3.063   1.464  0.00  0.00    +0.009 C 
ATOM     29  C   UNL     1      -2.353   0.999   1.983  0.00  0.00    +0.009 C 
ENDBRANCH  17  27
ENDBRANCH   7  17
TORSDOF 5
