REMARK  Name = ZINC38905730
REMARK  10 active torsions:
REMARK  status: ('A' for Active; 'I' for Inactive)
REMARK    1  A    between atoms: C_1  and  C_2
REMARK    2  A    between atoms: C_2  and  C_3
REMARK    3  A    between atoms: C_3  and  C_5
REMARK    4  A    between atoms: C_3  and  C_12
REMARK    5  A    between atoms: C_5  and  C_6
REMARK    6  A    between atoms: C_12  and  N_13
REMARK    7  A    between atoms: C_14  and  C_16
REMARK    8  A    between atoms: N_21  and  C_23
REMARK    9  A    between atoms: C_23  and  C_24
REMARK   10  A    between atoms: C_26  and  C_29
REMARK                            x       y       z     vdW  Elec       q    Type
REMARK                         _______ _______ _______ _____ _____    ______ ____
ROOT
ATOM      1  C   UNL     1      -0.118  -3.751   3.591  0.00  0.00    +0.058 C 
ATOM      2  C   UNL     1      -0.860  -2.969   4.680  0.00  0.00    +0.009 C 
ATOM      3  C   UNL     1      -0.235  -3.290   6.040  0.00  0.00    -0.018 C 
ATOM      4  C   UNL     1      -0.286  -4.801   6.275  0.00  0.00    -0.078 C 
ATOM      5  N   UNL     1       0.463  -5.490   5.217  0.00  0.00    +0.386 N 
ATOM      6  C   UNL     1      -0.172  -5.245   3.916  0.00  0.00    -0.065 C 
ATOM      7  H   UNL     1       1.411  -5.144   5.197  0.00  0.00    -0.081 HD
ENDROOT
BRANCH   1   9
ATOM      8  N   UNL     1      -0.845  -2.249   1.765  0.00  0.00    -0.315 N 
ATOM      9  C   UNL     1      -0.774  -3.502   2.258  0.00  0.00    +0.214 C 
ATOM     10  O   UNL     1      -1.238  -4.428   1.627  0.00  0.00    -0.276 OA
ATOM     11  H   UNL     1      -0.474  -1.508   2.269  0.00  0.00    +0.149 HD
BRANCH   8  12
ATOM     12  C   UNL     1      -1.483  -2.007   0.468  0.00  0.00    +0.108 C 
BRANCH  12  13
ATOM     13  C   UNL     1      -1.430  -0.513   0.145  0.00  0.00    +0.010 C 
BRANCH  13  15
ATOM     14  C   UNL     1       0.090   1.438  -0.212  0.00  0.00    +0.004 C 
ATOM     15  C   UNL     1       0.027  -0.080  -0.033  0.00  0.00    +0.002 C 
ENDBRANCH  13  15
BRANCH  13  16
ATOM     16  C   UNL     1      -2.204  -0.242  -1.147  0.00  0.00    +0.040 C 
BRANCH  16  17
ATOM     17  C   UNL     1      -3.665  -0.538  -0.928  0.00  0.00    -0.047 A 
ATOM     18  C   UNL     1      -4.181  -1.771  -1.281  0.00  0.00    +0.003 A 
ATOM     19  C   UNL     1      -5.522  -2.042  -1.080  0.00  0.00    +0.000 A 
ATOM     20  C   UNL     1      -6.346  -1.081  -0.526  0.00  0.00    +0.000 A 
ATOM     21  C   UNL     1      -5.830   0.152  -0.173  0.00  0.00    +0.000 A 
ATOM     22  C   UNL     1      -4.489   0.421  -0.369  0.00  0.00    +0.003 A 
ENDBRANCH  16  17
ENDBRANCH  13  16
ENDBRANCH  12  13
ENDBRANCH   8  12
ENDBRANCH   1   9
BRANCH   5  23
ATOM     23  C   UNL     1       0.477  -6.933   5.489  0.00  0.00    +0.022 C 
BRANCH  23  24
ATOM     24  C   UNL     1       1.245  -7.198   6.758  0.00  0.00    +0.211 A 
ATOM     25  N   UNL     1       0.741  -7.239   7.958  0.00  0.00    -0.193 NA
ATOM     26  C   UNL     1       1.709  -7.499   8.856  0.00  0.00    +0.202 A 
ATOM     27  N   UNL     1       2.847  -7.624   8.219  0.00  0.00    -0.056 NA
ATOM     28  O   UNL     1       2.561  -7.435   6.842  0.00  0.00    -0.340 OA
BRANCH  26  29
ATOM     29  C   UNL     1       1.519  -7.622  10.323  0.00  0.00    +0.023 A 
ATOM     30  C   UNL     1       0.250  -7.471  10.878  0.00  0.00    +0.013 A 
ATOM     31  C   UNL     1       0.079  -7.586  12.243  0.00  0.00    +0.016 A 
ATOM     32  C   UNL     1       1.165  -7.851  13.059  0.00  0.00    +0.018 A 
ATOM     33  C   UNL     1       2.428  -8.001  12.512  0.00  0.00    +0.016 A 
ATOM     34  C   UNL     1       2.608  -7.894  11.148  0.00  0.00    +0.013 A 
ATOM     35 BR   UNL     1       0.924  -8.007  14.928  0.00  0.00    -0.050 Br
ENDBRANCH  26  29
ENDBRANCH  23  24
ENDBRANCH   5  23
TORSDOF 9
