REMARK  Name = ZINC25717820
REMARK  10 active torsions:
REMARK  status: ('A' for Active; 'I' for Inactive)
REMARK    1  A    between atoms: C_1  and  C_2
REMARK    2  A    between atoms: C_2  and  C_3
REMARK    3  A    between atoms: C_2  and  C_4
REMARK    4  A    between atoms: C_4  and  N_5
REMARK    5  A    between atoms: C_6  and  C_8
REMARK    6  A    between atoms: C_13  and  N_14
REMARK    7  A    between atoms: N_14  and  C_15
REMARK    8  A    between atoms: C_15  and  C_16
REMARK    9  A    between atoms: N_18  and  C_19
REMARK   10  A    between atoms: C_19  and  C_20
REMARK                            x       y       z     vdW  Elec       q    Type
REMARK                         _______ _______ _______ _____ _____    ______ ____
ROOT
ATOM      1  C   UNL     1      -2.454   0.869   0.028  0.00  0.00    +0.057 A 
ATOM      2  C   UNL     1      -2.443  -0.524  -0.090  0.00  0.00    +0.015 A 
ATOM      3  C   UNL     1      -3.630  -1.222  -0.092  0.00  0.00    +0.001 A 
ATOM      4  C   UNL     1      -4.838  -0.551   0.012  0.00  0.00    +0.002 A 
ATOM      5  C   UNL     1      -4.866   0.824   0.124  0.00  0.00    +0.024 A 
ATOM      6  C   UNL     1      -3.678   1.546   0.134  0.00  0.00    +0.040 A 
ENDROOT
BRANCH   1   8
ATOM      7  N   UNL     1      -0.011   0.963   0.050  0.00  0.00    -0.311 N 
ATOM      8  C   UNL     1      -1.186   1.622   0.037  0.00  0.00    +0.246 C 
ATOM      9  O   UNL     1      -1.202   2.838   0.032  0.00  0.00    -0.270 OA
ATOM     10  H   UNL     1       0.004  -0.137   0.059  0.00  0.00    +0.149 HD
BRANCH   7  11
ATOM     11  C   UNL     1       1.248   1.712   0.052  0.00  0.00    +0.107 C 
BRANCH  11  13
ATOM     12  C   UNL     1       2.432  -0.067  -1.243  0.00  0.00    +0.009 C 
ATOM     13  C   UNL     1       2.424   0.733   0.061  0.00  0.00    -0.000 C 
ATOM     14  C   UNL     1       3.735   1.511   0.190  0.00  0.00    +0.009 C 
ENDBRANCH  11  13
ENDBRANCH   7  11
ENDBRANCH   1   8
BRANCH   6  15
ATOM     15  N   UNL     1      -3.704   2.929   0.246  0.00  0.00    -0.335 N 
ATOM     16  H   UNL     1      -2.770   3.505   0.163  0.00  0.00    +0.147 HD
BRANCH  15  17
ATOM     17  C   UNL     1      -4.974   3.623   0.475  0.00  0.00    +0.197 C 
BRANCH  17  18
ATOM     18  C   UNL     1      -4.728   5.107   0.558  0.00  0.00    +0.230 C 
ATOM     19  O   UNL     1      -3.603   5.543   0.438  0.00  0.00    -0.274 OA
ATOM     20  N   UNL     1      -5.759   5.950   0.767  0.00  0.00    -0.309 N 
ATOM     21  H   UNL     1      -6.779   5.555   0.876  0.00  0.00    +0.149 HD
BRANCH  20  22
ATOM     22  C   UNL     1      -5.520   7.393   0.847  0.00  0.00    +0.146 C 
BRANCH  22  23
ATOM     23  C   UNL     1      -6.826   8.107   1.083  0.00  0.00    +0.007 A 
ATOM     24  C   UNL     1      -7.426   8.424   2.257  0.00  0.00    +0.013 A 
ATOM     25  C   UNL     1      -8.636   9.091   2.232  0.00  0.00    +0.008 A 
ATOM     26  C   UNL     1      -9.193   9.399   1.036  0.00  0.00    +0.045 A 
ATOM     27  S   UNL     1      -7.990   8.746  -0.110  0.00  0.00    -0.100 S 
ENDBRANCH  22  23
ENDBRANCH  20  22
ENDBRANCH  17  18
ENDBRANCH  15  17
ENDBRANCH   6  15
TORSDOF 8
