REMARK  Name = ZINC08721984
REMARK  4 active torsions:
REMARK  status: ('A' for Active; 'I' for Inactive)
REMARK    1  A    between atoms: C_4  and  C_7
REMARK    2  A    between atoms: C_7  and  N_8
REMARK    3  A    between atoms: C_19  and  C_22
REMARK    4  A    between atoms: C_25  and  N_28
REMARK                            x       y       z     vdW  Elec       q    Type
REMARK                         _______ _______ _______ _____ _____    ______ ____
ROOT
ATOM      1  N   UNL     1       4.153  -0.953   1.342  0.00  0.00    +0.386 N 
ATOM      2  C   UNL     1       5.491  -1.560   1.326  0.00  0.00    -0.073 C 
ATOM      3  C   UNL     1       6.098  -1.537   2.733  0.00  0.00    +0.018 C 
ATOM      4  C   UNL     1       5.087  -2.156   3.689  0.00  0.00    -0.027 A 
ATOM      5  C   UNL     1       3.792  -2.285   3.316  0.00  0.00    -0.021 A 
ATOM      6  S   UNL     1       2.995  -3.039   4.704  0.00  0.00    -0.080 S 
ATOM      7  C   UNL     1       4.294  -3.174   5.728  0.00  0.00    +0.080 A 
ATOM      8  C   UNL     1       5.385  -2.646   5.021  0.00  0.00    +0.068 A 
ATOM      9  C   UNL     1       6.705  -2.648   5.692  0.00  0.00    +0.248 C 
ATOM     10  O   UNL     1       7.724  -2.375   5.086  0.00  0.00    -0.270 OA
ATOM     11  N   UNL     1       6.731  -2.965   7.004  0.00  0.00    -0.289 N 
ATOM     12  C   UNL     1       5.530  -3.145   7.813  0.00  0.00    +0.190 C 
ATOM     13  N   UNL     1       4.412  -3.665   7.005  0.00  0.00    -0.316 N 
ATOM     14  C   UNL     1       3.204  -1.866   2.006  0.00  0.00    -0.035 C 
ATOM     15  H   UNL     1       7.594  -3.080   7.432  0.00  0.00    +0.151 HD
ATOM     16  H   UNL     1       3.792  -4.322   7.358  0.00  0.00    +0.149 HD
ATOM     17  H   UNL     1       4.187  -0.079   1.845  0.00  0.00    -0.081 HD
ENDROOT
BRANCH  12  18
ATOM     18  C   UNL     1       5.132  -1.818   8.407  0.00  0.00    -0.009 A 
ATOM     19  C   UNL     1       3.802  -1.551   8.671  0.00  0.00    +0.009 A 
ATOM     20  C   UNL     1       3.437  -0.334   9.216  0.00  0.00    +0.033 A 
ATOM     21  C   UNL     1       4.402   0.615   9.496  0.00  0.00    +0.126 A 
ATOM     22  C   UNL     1       5.732   0.347   9.233  0.00  0.00    +0.033 A 
ATOM     23  C   UNL     1       6.098  -0.871   8.692  0.00  0.00    +0.009 A 
BRANCH  21  24
ATOM     24  N   UNL     1       4.011   1.919  10.079  0.00  0.00    +0.056 N 
ATOM     25  O   UNL     1       2.848   2.153  10.309  0.00  0.00    -0.126 OA
ATOM     26  O   UNL     1       4.855   2.749  10.324  0.00  0.00    -0.126 OA
ENDBRANCH  21  24
ENDBRANCH  12  18
BRANCH   1  27
ATOM     27  C   UNL     1       3.711  -0.707  -0.038  0.00  0.00    -0.043 C 
BRANCH  27  31
ATOM     28  C   UNL     1      -0.017   1.378   0.010  0.00  0.00    +0.000 A 
ATOM     29  C   UNL     1       1.171   2.086   0.002  0.00  0.00    +0.000 A 
ATOM     30  C   UNL     1       2.377   1.411  -0.013  0.00  0.00    +0.002 A 
ATOM     31  C   UNL     1       2.396   0.029  -0.020  0.00  0.00    -0.064 A 
ATOM     32  C   UNL     1       1.208  -0.679  -0.012  0.00  0.00    +0.002 A 
ATOM     33  C   UNL     1       0.002  -0.004   0.002  0.00  0.00    +0.000 A 
ENDBRANCH  27  31
ENDBRANCH   1  27
TORSDOF 4
