REMARK  Name = ZINC58993468
REMARK  8 active torsions:
REMARK  status: ('A' for Active; 'I' for Inactive)
REMARK    1  A    between atoms: C_3  and  N_31
REMARK    2  A    between atoms: C_6  and  C_7
REMARK    3  A    between atoms: N_8  and  N_9
REMARK    4  A    between atoms: C_12  and  S_15
REMARK    5  A    between atoms: S_15  and  C_16
REMARK    6  A    between atoms: C_16  and  C_17
REMARK    7  A    between atoms: N_19  and  C_20
REMARK    8  A    between atoms: C_22  and  C_27
REMARK                            x       y       z     vdW  Elec       q    Type
REMARK                         _______ _______ _______ _____ _____    ______ ____
ROOT
ATOM      1  N   UNL     1      -2.445  -2.780  -0.045  0.00  0.00    -0.205 N 
ATOM      2  C   UNL     1      -2.422  -4.163  -0.044  0.00  0.00    +0.232 A 
ATOM      3  N   UNL     1      -1.345  -4.919  -0.043  0.00  0.00    -0.186 NA
ATOM      4  C   UNL     1      -1.700  -6.209  -0.043  0.00  0.00    +0.211 A 
ATOM      5  N   UNL     1      -3.009  -6.290  -0.044  0.00  0.00    -0.144 NA
ATOM      6  N   UNL     1      -3.501  -4.975  -0.039  0.00  0.00    -0.245 N 
ATOM      7  H   UNL     1      -3.293  -2.309  -0.041  0.00  0.00    +0.177 HD
ATOM      8  H   UNL     1      -4.433  -4.703  -0.035  0.00  0.00    +0.192 HD
ENDROOT
BRANCH   1  10
ATOM      9  C   UNL     1      -1.265  -0.762  -0.051  0.00  0.00    +0.138 C 
ATOM     10  N   UNL     1      -1.244  -2.060  -0.050  0.00  0.00    -0.188 NA
BRANCH   9  16
ATOM     11  C   UNL     1      -0.020   1.393  -0.057  0.00  0.00    +0.012 A 
ATOM     12  C   UNL     1       1.167   2.096  -0.062  0.00  0.00    +0.033 A 
ATOM     13  C   UNL     1       2.374   1.421  -0.067  0.00  0.00    +0.126 A 
ATOM     14  C   UNL     1       2.401   0.037  -0.066  0.00  0.00    +0.033 A 
ATOM     15  C   UNL     1       1.222  -0.679  -0.061  0.00  0.00    +0.012 A 
ATOM     16  C   UNL     1      -0.001  -0.004  -0.056  0.00  0.00    -0.005 A 
BRANCH  13  17
ATOM     17  N   UNL     1       3.644   2.182  -0.073  0.00  0.00    +0.056 N 
ATOM     18  O   UNL     1       3.624   3.391  -0.074  0.00  0.00    -0.126 OA
ATOM     19  O   UNL     1       4.701   1.595  -0.077  0.00  0.00    -0.126 OA
ENDBRANCH  13  17
ENDBRANCH   9  16
ENDBRANCH   1  10
BRANCH   4  20
ATOM     20  S   UNL     1      -0.589  -7.577  -0.041  0.00  0.00    -0.075 S 
BRANCH  20  21
ATOM     21  C   UNL     1      -1.679  -9.027  -0.042  0.00  0.00    +0.173 C 
BRANCH  21  22
ATOM     22  C   UNL     1      -0.845 -10.282  -0.040  0.00  0.00    +0.228 C 
ATOM     23  O   UNL     1       0.365 -10.206  -0.039  0.00  0.00    -0.275 OA
ATOM     24  N   UNL     1      -1.444 -11.489  -0.041  0.00  0.00    -0.284 N 
ATOM     25  H   UNL     1      -2.409 -11.552   0.039  0.00  0.00    +0.155 HD
BRANCH  24  26
ATOM     26  C   UNL     1      -0.674 -12.652  -0.156  0.00  0.00    +0.052 A 
ATOM     27  C   UNL     1       0.571 -12.605  -0.767  0.00  0.00    +0.037 A 
ATOM     28  C   UNL     1       1.329 -13.754  -0.879  0.00  0.00    +0.057 A 
ATOM     29  C   UNL     1       0.848 -14.952  -0.384  0.00  0.00    +0.014 A 
ATOM     30  C   UNL     1      -0.392 -15.004   0.225  0.00  0.00    +0.022 A 
ATOM     31  C   UNL     1      -1.153 -13.857   0.346  0.00  0.00    +0.062 A 
ATOM     32 CL   UNL     1      -2.707 -13.921   1.117  0.00  0.00    -0.082 Cl
BRANCH  28  33
ATOM     33  C   UNL     1       2.681 -13.702  -1.543  0.00  0.00    +0.417 C 
ATOM     34  F   UNL     1       3.661 -13.430  -0.583  0.00  0.00    -0.166 F 
ATOM     35  F   UNL     1       2.951 -14.934  -2.148  0.00  0.00    -0.166 F 
ATOM     36  F   UNL     1       2.686 -12.695  -2.514  0.00  0.00    -0.166 F 
ENDBRANCH  28  33
ENDBRANCH  24  26
ENDBRANCH  21  22
ENDBRANCH  20  21
ENDBRANCH   4  20
TORSDOF 8
