REMARK  Name = ZINC40321272
REMARK  10 active torsions:
REMARK  status: ('A' for Active; 'I' for Inactive)
REMARK    1  A    between atoms: C_1  and  O_2
REMARK    2  A    between atoms: O_2  and  C_3
REMARK    3  A    between atoms: C_3  and  C_4
REMARK    4  A    between atoms: C_4  and  C_5
REMARK    5  A    between atoms: C_5  and  N_6
REMARK    6  A    between atoms: C_7  and  C_9
REMARK    7  A    between atoms: C_13  and  N_14
REMARK    8  A    between atoms: C_15  and  C_17
REMARK    9  A    between atoms: C_20  and  S_22
REMARK   10  A    between atoms: S_22  and  C_25
REMARK                            x       y       z     vdW  Elec       q    Type
REMARK                         _______ _______ _______ _____ _____    ______ ____
ROOT
ATOM      1  C   UNL     1       1.848  -6.410   2.948  0.00  0.00    +0.069 A 
ATOM      2  C   UNL     1       2.898  -7.147   2.267  0.00  0.00    -0.023 A 
ATOM      3  C   UNL     1       2.716  -8.485   2.255  0.00  0.00    -0.004 A 
ATOM      4  S   UNL     1       1.196  -8.739   3.123  0.00  0.00    -0.077 S 
ATOM      5  C   UNL     1       0.810  -7.148   3.497  0.00  0.00    +0.085 A 
ATOM      6  C   UNL     1       3.614  -9.510   1.635  0.00  0.00    +0.043 C 
ATOM      7  C   UNL     1       4.585  -8.791   0.686  0.00  0.00    +0.005 C 
ATOM      8  C   UNL     1       5.186  -7.585   1.414  0.00  0.00    +0.005 C 
ATOM      9  C   UNL     1       4.115  -6.509   1.612  0.00  0.00    +0.037 C 
ENDROOT
BRANCH   1  11
ATOM     10  N   UNL     1       1.312  -4.188   2.103  0.00  0.00    -0.311 N 
ATOM     11  C   UNL     1       1.887  -4.949   3.055  0.00  0.00    +0.247 C 
ATOM     12  O   UNL     1       2.438  -4.423   4.005  0.00  0.00    -0.270 OA
ATOM     13  H   UNL     1       0.873  -4.606   1.347  0.00  0.00    +0.149 HD
BRANCH  10  14
ATOM     14  C   UNL     1       1.351  -2.727   2.211  0.00  0.00    +0.107 C 
BRANCH  14  15
ATOM     15  C   UNL     1       0.633  -2.108   1.011  0.00  0.00    +0.047 C 
BRANCH  15  16
ATOM     16  C   UNL     1       0.673  -0.582   1.123  0.00  0.00    +0.161 C 
BRANCH  16  18
ATOM     17  C   UNL     1      -0.017   1.425   0.010  0.00  0.00    +0.193 C 
ATOM     18  O   UNL     1       0.002  -0.004   0.002  0.00  0.00    -0.383 OA
ENDBRANCH  16  18
ENDBRANCH  15  16
ENDBRANCH  14  15
ENDBRANCH  10  14
ENDBRANCH   1  11
BRANCH   5  19
ATOM     19  N   UNL     1      -0.293  -6.679   4.192  0.00  0.00    -0.273 N 
ATOM     20  C   UNL     1      -1.213  -7.546   4.659  0.00  0.00    +0.284 C 
ATOM     21  O   UNL     1      -1.075  -8.741   4.470  0.00  0.00    -0.266 OA
ATOM     22  H   UNL     1      -0.403  -5.728   4.342  0.00  0.00    +0.156 HD
BRANCH  20  23
ATOM     23  C   UNL     1      -2.380  -7.051   5.394  0.00  0.00    +0.192 A 
ATOM     24  C   UNL     1      -3.379  -7.816   5.924  0.00  0.00    +0.056 A 
ATOM     25  C   UNL     1      -4.282  -6.934   6.536  0.00  0.00    +0.070 A 
ATOM     26  C   UNL     1      -3.801  -5.684   6.356  0.00  0.00    +0.246 A 
ATOM     27  O   UNL     1      -2.652  -5.759   5.672  0.00  0.00    -0.433 OA
BRANCH  26  28
ATOM     28  S   UNL     1      -4.558  -4.200   6.931  0.00  0.00    +0.058 S 
ATOM     29  O   UNL     1      -4.085  -3.152   6.096  0.00  0.00    -0.161 OA
ATOM     30  O   UNL     1      -5.941  -4.484   7.087  0.00  0.00    -0.161 OA
BRANCH  28  31
ATOM     31  C   UNL     1      -3.924  -3.883   8.544  0.00  0.00    +0.097 A 
ATOM     32  C   UNL     1      -4.564  -4.403   9.653  0.00  0.00    +0.027 A 
ATOM     33  C   UNL     1      -4.067  -4.155  10.918  0.00  0.00    +0.002 A 
ATOM     34  C   UNL     1      -2.928  -3.386  11.075  0.00  0.00    +0.000 A 
ATOM     35  C   UNL     1      -2.287  -2.867   9.966  0.00  0.00    +0.002 A 
ATOM     36  C   UNL     1      -2.782  -3.119   8.700  0.00  0.00    +0.027 A 
ENDBRANCH  28  31
ENDBRANCH  26  28
ENDBRANCH  20  23
ENDBRANCH   5  19
TORSDOF 9
