REMARK  Name = ZINC22001544
REMARK  14 active torsions:
REMARK  status: ('A' for Active; 'I' for Inactive)
REMARK    1  A    between atoms: C_1  and  C_2
REMARK    2  A    between atoms: C_7  and  C_9
REMARK    3  A    between atoms: C_7  and  C_10
REMARK    4  A    between atoms: N_13  and  C_17
REMARK    5  A    between atoms: C_17  and  C_18
REMARK    6  A    between atoms: C_18  and  O_20
REMARK    7  A    between atoms: O_20  and  C_21
REMARK    8  A    between atoms: C_21  and  C_22
REMARK    9  A    between atoms: N_24  and  C_25
REMARK   10  A    between atoms: N_24  and  C_32
REMARK   11  A    between atoms: C_25  and  C_26
REMARK   12  A    between atoms: C_32  and  C_33
REMARK   13  A    between atoms: C_32  and  C_34
REMARK   14  A    between atoms: C_32  and  C_35
REMARK                            x       y       z     vdW  Elec       q    Type
REMARK                         _______ _______ _______ _____ _____    ______ ____
ROOT
ATOM      1  C   UNL     1      -5.731  -3.758  -3.263  0.00  0.00    +0.326 C 
ATOM      2  O   UNL     1      -5.115  -2.735  -3.081  0.00  0.00    -0.249 OA
ENDROOT
BRANCH   1   3
ATOM      3  C   UNL     1      -6.001  -4.690  -2.109  0.00  0.00    +0.238 C 
BRANCH   3  15
ATOM      4  C   UNL     1      -5.858   0.520   2.169  0.00  0.00    +0.007 C 
ATOM      5  C   UNL     1      -6.126  -0.976   1.974  0.00  0.00    -0.011 C 
ATOM      6  C   UNL     1      -4.881  -1.639   1.382  0.00  0.00    +0.038 C 
ATOM      7  C   UNL     1      -5.153  -3.117   1.139  0.00  0.00    +0.113 C 
ATOM      8  C   UNL     1      -5.652  -3.836   2.377  0.00  0.00    +0.041 C 
ATOM      9  C   UNL     1      -6.716  -3.105   3.176  0.00  0.00    -0.032 C 
ATOM     10  C   UNL     1      -6.419  -1.618   3.329  0.00  0.00    +0.009 C 
ATOM     11  C   UNL     1      -8.098  -3.303   2.547  0.00  0.00    +0.011 C 
ATOM     12  C   UNL     1      -6.760  -3.723   4.590  0.00  0.00    +0.011 C 
ATOM     13  C   UNL     1      -6.072  -3.309  -0.041  0.00  0.00    +0.247 C 
ATOM     14  O   UNL     1      -7.165  -2.818  -0.228  0.00  0.00    -0.273 OA
ATOM     15  N   UNL     1      -5.418  -4.135  -0.886  0.00  0.00    -0.213 N 
ATOM     16  C   UNL     1      -4.173  -4.381  -0.464  0.00  0.00    +0.310 C 
ATOM     17  O   UNL     1      -3.383  -5.085  -1.063  0.00  0.00    -0.252 OA
ATOM     18  N   UNL     1      -3.896  -3.763   0.697  0.00  0.00    -0.285 N 
ATOM     19  H   UNL     1      -3.048  -3.735   1.163  0.00  0.00    +0.151 HD
ENDBRANCH   3  15
ENDBRANCH   1   3
BRANCH   1  20
ATOM     20  O   UNL     1      -6.175  -4.065  -4.491  0.00  0.00    -0.454 OA
BRANCH  20  21
ATOM     21  C   UNL     1      -5.883  -3.136  -5.537  0.00  0.00    +0.327 C 
BRANCH  21  22
ATOM     22  C   UNL     1      -6.457  -3.644  -6.835  0.00  0.00    +0.254 C 
ATOM     23  O   UNL     1      -7.144  -4.643  -6.844  0.00  0.00    -0.272 OA
ATOM     24  N   UNL     1      -6.205  -2.989  -7.986  0.00  0.00    -0.289 N 
BRANCH  24  25
ATOM     25  C   UNL     1      -5.247  -1.880  -8.002  0.00  0.00    +0.029 C 
ATOM     26  C   UNL     1      -3.836  -2.421  -7.763  0.00  0.00    +0.031 C 
ATOM     27  C   UNL     1      -5.301  -1.181  -9.362  0.00  0.00    +0.031 C 
ATOM     28  C   UNL     1      -5.604  -0.881  -6.900  0.00  0.00    +0.031 C 
ENDBRANCH  24  25
BRANCH  24  29
ATOM     29  C   UNL     1      -6.888  -3.385  -9.219  0.00  0.00    +0.143 C 
BRANCH  29  30
ATOM     30  C   UNL     1      -8.246  -2.734  -9.272  0.00  0.00    -0.030 A 
ATOM     31  C   UNL     1      -9.306  -3.288  -8.580  0.00  0.00    +0.005 A 
ATOM     32  C   UNL     1     -10.552  -2.691  -8.629  0.00  0.00    +0.000 A 
ATOM     33  C   UNL     1     -10.738  -1.538  -9.369  0.00  0.00    +0.000 A 
ATOM     34  C   UNL     1      -9.677  -0.983 -10.061  0.00  0.00    +0.000 A 
ATOM     35  C   UNL     1      -8.430  -1.578 -10.008  0.00  0.00    +0.005 A 
ENDBRANCH  29  30
ENDBRANCH  24  29
ENDBRANCH  21  22
ENDBRANCH  20  21
ENDBRANCH   1  20
TORSDOF 8
