REMARK  Name = ZINC40020359
REMARK  18 active torsions:
REMARK  status: ('A' for Active; 'I' for Inactive)
REMARK    1  A    between atoms: C_1  and  C_2
REMARK    2  A    between atoms: C_2  and  C_3
REMARK    3  A    between atoms: C_3  and  C_4
REMARK    4  A    between atoms: C_4  and  N_5
REMARK    5  A    between atoms: N_5  and  C_6
REMARK    6  A    between atoms: N_5  and  C_10
REMARK    7  A    between atoms: C_6  and  C_7
REMARK    8  A    between atoms: C_7  and  C_8
REMARK    9  A    between atoms: C_8  and  C_9
REMARK   10  A    between atoms: C_10  and  C_11
REMARK   11  A    between atoms: C_11  and  C_12
REMARK   12  A    between atoms: C_12  and  N_13
REMARK   13  A    between atoms: C_14  and  C_33
REMARK   14  A    between atoms: C_16  and  C_21
REMARK   15  A    between atoms: C_21  and  C_23
REMARK   16  A    between atoms: C_27  and  O_29
REMARK   17  A    between atoms: O_29  and  C_30
REMARK   18  A    between atoms: C_30  and  C_31
REMARK                            x       y       z     vdW  Elec       q    Type
REMARK                         _______ _______ _______ _____ _____    ______ ____
ROOT
ATOM      1  N   UNL     1      -1.790  -6.469   4.017  0.00  0.00    -0.284 N 
ATOM      2  C   UNL     1      -0.440  -6.719   4.535  0.00  0.00    +0.145 C 
ATOM      3  C   UNL     1      -0.612  -7.122   5.981  0.00  0.00    +0.076 C 
ATOM      4  C   UNL     1      -1.941  -7.096   6.239  0.00  0.00    +0.249 C 
ATOM      5  C   UNL     1      -2.664  -6.686   5.017  0.00  0.00    +0.288 C 
ATOM      6  O   UNL     1      -3.870  -6.564   4.928  0.00  0.00    -0.266 OA
ATOM      7  O   UNL     1      -2.515  -7.395   7.427  0.00  0.00    -0.282 OA
ENDROOT
BRANCH   2   8
ATOM      8  C   UNL     1       0.391  -5.466   4.441  0.00  0.00    -0.022 A 
ATOM      9  C   UNL     1      -0.101  -4.271   4.931  0.00  0.00    +0.006 A 
ATOM     10  C   UNL     1       0.662  -3.122   4.844  0.00  0.00    +0.000 A 
ATOM     11  C   UNL     1       1.918  -3.168   4.267  0.00  0.00    +0.000 A 
ATOM     12  C   UNL     1       2.410  -4.363   3.777  0.00  0.00    +0.000 A 
ATOM     13  C   UNL     1       1.649  -5.513   3.868  0.00  0.00    +0.006 A 
ENDBRANCH   2   8
BRANCH   3  14
ATOM     14  C   UNL     1       0.454  -7.473   6.924  0.00  0.00    +0.195 C 
ATOM     15  O   UNL     1       0.678  -6.759   7.883  0.00  0.00    -0.287 OA
BRANCH  14  16
ATOM     16  C   UNL     1       1.257  -8.696   6.709  0.00  0.00    +0.026 A 
ATOM     17  C   UNL     1       0.977  -9.539   5.631  0.00  0.00    +0.012 A 
ATOM     18  C   UNL     1       1.729 -10.678   5.434  0.00  0.00    +0.004 A 
ATOM     19  C   UNL     1       2.760 -10.991   6.301  0.00  0.00    +0.046 A 
ATOM     20  C   UNL     1       3.046 -10.160   7.376  0.00  0.00    +0.122 A 
ATOM     21  C   UNL     1       2.302  -9.010   7.580  0.00  0.00    +0.057 A 
BRANCH  20  22
ATOM     22  O   UNL     1       4.060 -10.472   8.225  0.00  0.00    -0.488 OA
BRANCH  22  23
ATOM     23  C   UNL     1       4.789 -11.670   7.952  0.00  0.00    +0.256 C 
BRANCH  23  24
ATOM     24  C   UNL     1       5.866 -11.851   8.991  0.00  0.00    +0.006 C 
ATOM     25  C   UNL     1       6.054 -13.024   9.541  0.00  0.00    +0.007 C 
ENDBRANCH  23  24
ENDBRANCH  22  23
ENDBRANCH  20  22
ENDBRANCH  14  16
ENDBRANCH   3  14
BRANCH   1  26
ATOM     26  C   UNL     1      -2.127  -6.051   2.654  0.00  0.00    +0.107 C 
BRANCH  26  27
ATOM     27  C   UNL     1      -2.133  -4.524   2.575  0.00  0.00    +0.000 C 
BRANCH  27  28
ATOM     28  C   UNL     1      -2.484  -4.087   1.152  0.00  0.00    -0.077 C 
BRANCH  28  29
ATOM     29  N   UNL     1      -2.491  -2.620   1.077  0.00  0.00    +0.380 N 
ATOM     30  H   UNL     1      -3.116  -2.250   1.776  0.00  0.00    -0.082 HD
BRANCH  29  31
ATOM     31  C   UNL     1      -2.944  -2.200  -0.256  0.00  0.00    -0.079 C 
BRANCH  31  32
ATOM     32  C   UNL     1      -4.407  -2.605  -0.449  0.00  0.00    -0.019 C 
BRANCH  32  33
ATOM     33  C   UNL     1      -4.917  -2.054  -1.782  0.00  0.00    -0.005 C 
ATOM     34  C   UNL     1      -6.380  -2.459  -1.975  0.00  0.00    +0.004 C 
ENDBRANCH  32  33
ENDBRANCH  31  32
ENDBRANCH  29  31
BRANCH  29  35
ATOM     35  C   UNL     1      -1.133  -2.112   1.315  0.00  0.00    -0.079 C 
BRANCH  35  36
ATOM     36  C   UNL     1      -1.165  -0.583   1.377  0.00  0.00    -0.019 C 
BRANCH  36  38
ATOM     37  C   UNL     1       0.190   1.469   1.817  0.00  0.00    +0.004 C 
ATOM     38  C   UNL     1       0.222  -0.059   1.756  0.00  0.00    -0.005 C 
ENDBRANCH  36  38
ENDBRANCH  35  36
ENDBRANCH  29  35
ENDBRANCH  28  29
ENDBRANCH  27  28
ENDBRANCH  26  27
ENDBRANCH   1  26
TORSDOF 16
