REMARK  Name = ZINC49517936
REMARK  5 active torsions:
REMARK  status: ('A' for Active; 'I' for Inactive)
REMARK    1  A    between atoms: C_1  and  C_2
REMARK    2  A    between atoms: C_2  and  C_3
REMARK    3  A    between atoms: N_12  and  C_13
REMARK    4  A    between atoms: C_13  and  C_15
REMARK    5  A    between atoms: C_13  and  C_16
REMARK                            x       y       z     vdW  Elec       q    Type
REMARK                         _______ _______ _______ _____ _____    ______ ____
ROOT
ATOM      1  C   UNL     1       3.517  -2.217  -1.123  0.00  0.00    +0.135 C 
ATOM      2  C   UNL     1       2.870  -1.999  -2.495  0.00  0.00    +0.141 C 
ATOM      3  N   UNL     1       1.483  -2.488  -2.437  0.00  0.00    -0.281 N 
ATOM      4  C   UNL     1       0.632  -2.023  -1.331  0.00  0.00    +0.137 C 
ATOM      5  C   UNL     1       1.388  -2.239  -0.015  0.00  0.00    +0.179 C 
ATOM      6  O   UNL     1       2.684  -1.644  -0.112  0.00  0.00    -0.373 OA
ATOM      7  C   UNL     1       1.007  -3.336  -3.370  0.00  0.00    +0.303 C 
ATOM      8  O   UNL     1      -0.110  -3.802  -3.254  0.00  0.00    -0.253 OA
ATOM      9  N   UNL     1       1.768  -3.666  -4.432  0.00  0.00    -0.293 N 
ATOM     10  H   UNL     1       2.684  -3.352  -4.489  0.00  0.00    +0.151 HD
ENDROOT
BRANCH   1  12
ATOM     11  C   UNL     1       5.587  -1.866   0.231  0.00  0.00    +0.006 C 
ATOM     12  C   UNL     1       4.891  -1.546  -1.093  0.00  0.00    +0.030 C 
ENDBRANCH   1  12
BRANCH   9  13
ATOM     13  C   UNL     1       1.212  -4.500  -5.501  0.00  0.00    +0.104 C 
ATOM     14  C   UNL     1       1.357  -5.975  -5.124  0.00  0.00    +0.033 C 
BRANCH  13  15
ATOM     15  C   UNL     1       1.957  -4.234  -6.784  0.00  0.00    +0.008 A 
ATOM     16  C   UNL     1       3.255  -3.762  -6.745  0.00  0.00    +0.008 A 
ATOM     17  C   UNL     1       3.938  -3.518  -7.922  0.00  0.00    +0.000 A 
ATOM     18  C   UNL     1       3.324  -3.746  -9.139  0.00  0.00    +0.003 A 
ATOM     19  C   UNL     1       2.026  -4.219  -9.181  0.00  0.00    +0.039 A 
ATOM     20  C   UNL     1       1.343  -4.468  -8.002  0.00  0.00    +0.128 A 
ATOM     21  F   UNL     1       0.075  -4.935  -8.042  0.00  0.00    -0.205 F 
ENDBRANCH  13  15
ENDBRANCH   9  13
TORSDOF 3
