REMARK  Name = ZINC06952401
REMARK  8 active torsions:
REMARK  status: ('A' for Active; 'I' for Inactive)
REMARK    1  A    between atoms: C_1  and  C_2
REMARK    2  A    between atoms: C_2  and  C_3
REMARK    3  A    between atoms: C_2  and  C_4
REMARK    4  A    between atoms: C_4  and  C_5
REMARK    5  A    between atoms: C_5  and  C_7
REMARK    6  A    between atoms: C_5  and  N_24
REMARK    7  A    between atoms: N_9  and  N_10
REMARK    8  A    between atoms: C_14  and  N_21
REMARK                            x       y       z     vdW  Elec       q    Type
REMARK                         _______ _______ _______ _____ _____    ______ ____
ROOT
ATOM      1  N   UNL     1       2.488  -0.094   5.289  0.00  0.00    -0.175 NA
ATOM      2  C   UNL     1       3.470   0.667   5.706  0.00  0.00    +0.153 C 
ATOM      3  C   UNL     1       4.351   0.443   6.876  0.00  0.00    +0.030 A 
ATOM      4  C   UNL     1       4.422  -0.561   7.835  0.00  0.00    +0.044 A 
ATOM      5  C   UNL     1       5.378  -0.491   8.830  0.00  0.00    +0.127 A 
ATOM      6  C   UNL     1       6.260   0.576   8.871  0.00  0.00    +0.034 A 
ATOM      7  C   UNL     1       6.196   1.577   7.923  0.00  0.00    +0.026 A 
ATOM      8  C   UNL     1       5.241   1.524   6.914  0.00  0.00    +0.043 A 
ATOM      9  N   UNL     1       4.966   2.384   5.856  0.00  0.00    -0.280 N 
ATOM     10  C   UNL     1       3.944   1.933   5.110  0.00  0.00    +0.269 C 
ATOM     11  O   UNL     1       3.487   2.473   4.120  0.00  0.00    -0.268 OA
ATOM     12  H   UNL     1       5.454   3.203   5.677  0.00  0.00    +0.155 HD
ENDROOT
BRANCH   1  15
ATOM     13  C   UNL     1       0.746  -0.514   3.721  0.00  0.00    +0.218 C 
ATOM     14  O   UNL     1       0.472  -1.532   4.320  0.00  0.00    -0.276 OA
ATOM     15  N   UNL     1       1.756   0.269   4.151  0.00  0.00    -0.208 N 
ATOM     16  H   UNL     1       1.975   1.083   3.672  0.00  0.00    +0.177 HD
BRANCH  13  17
ATOM     17  C   UNL     1      -0.042  -0.124   2.497  0.00  0.00    +0.015 C 
BRANCH  17  18
ATOM     18  N   UNL     1      -1.334  -0.823   2.503  0.00  0.00    +0.386 N 
ATOM     19  H   UNL     1      -1.850  -0.567   3.331  0.00  0.00    -0.089 HD
ATOM     20  H   UNL     1      -1.861  -0.561   1.684  0.00  0.00    -0.089 HD
ATOM     21  H   UNL     1      -1.177  -1.819   2.498  0.00  0.00    -0.089 HD
ENDBRANCH  17  18
BRANCH  17  22
ATOM     22  C   UNL     1       0.742  -0.511   1.242  0.00  0.00    -0.004 C 
BRANCH  22  24
ATOM     23  C   UNL     1      -0.019   1.526   0.010  0.00  0.00    +0.007 C 
ATOM     24  C   UNL     1       0.002  -0.004   0.002  0.00  0.00    -0.018 C 
ATOM     25  C   UNL     1       0.718  -0.497  -1.257  0.00  0.00    +0.007 C 
ENDBRANCH  22  24
ENDBRANCH  17  22
ENDBRANCH  13  17
ENDBRANCH   1  15
BRANCH   5  26
ATOM     26  N   UNL     1       5.458  -1.557   9.854  0.00  0.00    +0.056 N 
ATOM     27  O   UNL     1       4.688  -2.488   9.819  0.00  0.00    -0.126 OA
ATOM     28  O   UNL     1       6.295  -1.496  10.725  0.00  0.00    -0.126 OA
ENDBRANCH   5  26
TORSDOF 6
