REMARK  Name = ZINC33810232
REMARK  9 active torsions:
REMARK  status: ('A' for Active; 'I' for Inactive)
REMARK    1  A    between atoms: C_1  and  C_2
REMARK    2  A    between atoms: C_2  and  O_3
REMARK    3  A    between atoms: O_3  and  C_4
REMARK    4  A    between atoms: C_6  and  C_11
REMARK    5  A    between atoms: C_9  and  O_10
REMARK    6  A    between atoms: C_16  and  S_20
REMARK    7  A    between atoms: S_20  and  C_21
REMARK    8  A    between atoms: C_21  and  C_22
REMARK    9  A    between atoms: C_25  and  C_28
REMARK                            x       y       z     vdW  Elec       q    Type
REMARK                         _______ _______ _______ _____ _____    ______ ____
ROOT
ATOM      1  C   UNL     1      -0.962   5.276   0.061  0.00  0.00    +0.093 C 
ATOM      2  C   UNL     1      -0.544   5.861   1.377  0.00  0.00    +0.069 A 
ATOM      3  C   UNL     1      -0.484   5.092   2.497  0.00  0.00    +0.135 A 
ATOM      4  N   UNL     1      -0.102   5.663   3.683  0.00  0.00    -0.208 NA
ATOM      5  C   UNL     1       0.212   6.987   3.734  0.00  0.00    +0.171 A 
ATOM      6  N   UNL     1       0.159   7.742   2.656  0.00  0.00    -0.302 N 
ATOM      7  C   UNL     1      -0.207   7.229   1.471  0.00  0.00    +0.258 A 
ATOM      8  O   UNL     1      -0.250   7.942   0.479  0.00  0.00    -0.267 OA
ATOM      9  N   UNL     1      -0.801   3.755   2.437  0.00  0.00    -0.302 N 
ATOM     10  C   UNL     1      -0.805   3.091   1.241  0.00  0.00    +0.017 C 
ATOM     11  C   UNL     1      -0.868   3.771   0.076  0.00  0.00    +0.024 C 
ATOM     12  C   UNL     1      -0.855   3.097  -1.157  0.00  0.00    +0.162 C 
ATOM     13  O   UNL     1      -0.920   3.738  -2.187  0.00  0.00    -0.292 OA
ATOM     14  C   UNL     1      -0.762   1.597  -1.227  0.00  0.00    +0.080 C 
ATOM     15  C   UNL     1      -0.013   1.086   0.008  0.00  0.00    +0.014 C 
ATOM     16  C   UNL     1      -0.737   1.583   1.261  0.00  0.00    +0.051 C 
ATOM     17  H   UNL     1      -1.055   3.208   3.357  0.00  0.00    +0.153 HD
ATOM     18  H   UNL     1       0.417   8.809   2.718  0.00  0.00    +0.171 HD
ENDROOT
BRANCH   1  21
ATOM     19  C   UNL     1      -3.981   6.815  -1.609  0.00  0.00    +0.162 A 
ATOM     20  C   UNL     1      -2.672   6.447  -1.340  0.00  0.00    +0.054 A 
ATOM     21  C   UNL     1      -2.385   5.679  -0.228  0.00  0.00    -0.032 A 
ATOM     22  C   UNL     1      -3.400   5.284   0.624  0.00  0.00    +0.008 A 
ATOM     23  C   UNL     1      -4.707   5.651   0.364  0.00  0.00    +0.049 A 
ATOM     24  C   UNL     1      -5.002   6.418  -0.752  0.00  0.00    +0.158 A 
BRANCH  24  25
ATOM     25  O   UNL     1      -6.287   6.781  -1.008  0.00  0.00    -0.503 OA
ATOM     26  H   UNL     1      -7.094   6.466  -0.330  0.00  0.00    +0.292 HD
ENDBRANCH  24  25
BRANCH  19  27
ATOM     27  O   UNL     1      -4.266   7.567  -2.706  0.00  0.00    -0.489 OA
BRANCH  27  29
ATOM     28  C   UNL     1      -3.679   8.774  -4.715  0.00  0.00    +0.048 C 
ATOM     29  C   UNL     1      -3.167   7.938  -3.541  0.00  0.00    +0.226 C 
ENDBRANCH  27  29
ENDBRANCH  19  27
ENDBRANCH   1  21
BRANCH   5  30
ATOM     30  S   UNL     1       0.699   7.704   5.269  0.00  0.00    -0.083 S 
BRANCH  30  31
ATOM     31  C   UNL     1       0.980   9.412   4.743  0.00  0.00    +0.112 C 
BRANCH  31  32
ATOM     32  C   UNL     1       1.417  10.237   5.926  0.00  0.00    -0.037 A 
ATOM     33  C   UNL     1       0.475  10.881   6.705  0.00  0.00    +0.005 A 
ATOM     34  C   UNL     1       0.875  11.634   7.794  0.00  0.00    +0.003 A 
ATOM     35  C   UNL     1       2.219  11.749   8.097  0.00  0.00    -0.050 A 
ATOM     36  C   UNL     1       3.162  11.109   7.315  0.00  0.00    +0.003 A 
ATOM     37  C   UNL     1       2.761  10.353   6.229  0.00  0.00    +0.005 A 
ATOM     38  C   UNL     1       2.656  12.573   9.280  0.00  0.00    +0.044 C 
ENDBRANCH  31  32
ENDBRANCH  30  31
ENDBRANCH   5  30
TORSDOF 7
