REMARK  Name = ZINC23245169
REMARK  7 active torsions:
REMARK  status: ('A' for Active; 'I' for Inactive)
REMARK    1  A    between atoms: C_4  and  C_7
REMARK    2  A    between atoms: C_10  and  S_13
REMARK    3  A    between atoms: S_13  and  N_16
REMARK    4  A    between atoms: N_19  and  C_22
REMARK    5  A    between atoms: C_22  and  C_23
REMARK    6  A    between atoms: C_23  and  N_24
REMARK    7  A    between atoms: C_29  and  C_31
REMARK                            x       y       z     vdW  Elec       q    Type
REMARK                         _______ _______ _______ _____ _____    ______ ____
ROOT
ATOM      1  N   UNL     1       0.385   4.093  -0.824  0.00  0.00    -0.180 NA
ATOM      2  C   UNL     1       1.287   3.529   0.191  0.00  0.00    +0.091 C 
ATOM      3  C   UNL     1       1.346   2.010   0.000  0.00  0.00    -0.061 C 
ATOM      4  N   UNL     1      -0.018   1.465   0.010  0.00  0.00    +0.383 N 
ATOM      5  C   UNL     1      -0.809   1.987  -1.113  0.00  0.00    -0.061 C 
ATOM      6  C   UNL     1      -0.956   3.505  -0.967  0.00  0.00    +0.091 C 
ATOM      7  H   UNL     1      -0.502   1.793   0.942  0.00  0.00    -0.082 HD
ENDROOT
BRANCH   1   8
ATOM      8  S   UNL     1       0.865   5.357  -1.780  0.00  0.00    +0.061 S 
ATOM      9  O   UNL     1      -0.320   6.011  -2.214  0.00  0.00    -0.153 OA
ATOM     10  O   UNL     1       1.893   6.035  -1.071  0.00  0.00    -0.153 OA
BRANCH   8  14
ATOM     11  C   UNL     1       2.793   3.584  -5.476  0.00  0.00    -0.018 A 
ATOM     12  C   UNL     1       1.425   3.845  -5.459  0.00  0.00    +0.010 A 
ATOM     13  C   UNL     1       0.842   4.386  -4.330  0.00  0.00    +0.029 A 
ATOM     14  C   UNL     1       1.615   4.667  -3.218  0.00  0.00    +0.106 A 
ATOM     15  C   UNL     1       2.974   4.414  -3.231  0.00  0.00    +0.029 A 
ATOM     16  C   UNL     1       3.566   3.869  -4.353  0.00  0.00    +0.010 A 
BRANCH  11  20
ATOM     17  C   UNL     1       4.603   1.920  -8.946  0.00  0.00    +0.000 A 
ATOM     18  C   UNL     1       5.375   2.202  -7.834  0.00  0.00    +0.001 A 
ATOM     19  C   UNL     1       4.793   2.742  -6.705  0.00  0.00    +0.008 A 
ATOM     20  C   UNL     1       3.425   3.004  -6.687  0.00  0.00    -0.018 A 
ATOM     21  C   UNL     1       2.651   2.713  -7.809  0.00  0.00    +0.008 A 
ATOM     22  C   UNL     1       3.244   2.178  -8.934  0.00  0.00    +0.001 A 
ENDBRANCH  11  20
ENDBRANCH   8  14
ENDBRANCH   1   8
BRANCH   4  23
ATOM     23  C   UNL     1       0.002  -0.004   0.002  0.00  0.00    -0.055 C 
BRANCH  23  24
ATOM     24  C   UNL     1      -1.409  -0.535   0.263  0.00  0.00    +0.129 C 
BRANCH  24  25
ATOM     25  N   UNL     1      -1.389  -2.000   0.255  0.00  0.00    -0.231 N 
ATOM     26  C   UNL     1      -1.159  -2.658   1.407  0.00  0.00    +0.267 A 
ATOM     27  O   UNL     1      -0.971  -2.039   2.442  0.00  0.00    -0.266 OA
ATOM     28  C   UNL     1      -1.143  -4.070   1.410  0.00  0.00    +0.074 A 
ATOM     29  C   UNL     1      -1.355  -4.713   0.226  0.00  0.00    +0.035 A 
ATOM     30  C   UNL     1      -1.581  -3.931  -0.930  0.00  0.00    +0.092 A 
ATOM     31  N   UNL     1      -1.586  -2.621  -0.851  0.00  0.00    -0.168 NA
BRANCH  30  32
ATOM     32  C   UNL     1      -1.815  -4.593  -2.237  0.00  0.00    +0.002 A 
ATOM     33  C   UNL     1      -1.805  -5.984  -2.327  0.00  0.00    +0.013 A 
ATOM     34  C   UNL     1      -2.026  -6.595  -3.544  0.00  0.00    +0.039 A 
ATOM     35  C   UNL     1      -2.249  -5.829  -4.676  0.00  0.00    +0.123 A 
ATOM     36  C   UNL     1      -2.255  -4.446  -4.592  0.00  0.00    +0.039 A 
ATOM     37  C   UNL     1      -2.039  -3.826  -3.379  0.00  0.00    +0.013 A 
ATOM     38  F   UNL     1      -2.461  -6.432  -5.867  0.00  0.00    -0.205 F 
ENDBRANCH  30  32
ENDBRANCH  24  25
ENDBRANCH  23  24
ENDBRANCH   4  23
TORSDOF 7
