REMARK  Name = ZINC05243406
REMARK  5 active torsions:
REMARK  status: ('A' for Active; 'I' for Inactive)
REMARK    1  A    between atoms: C_3  and  C_8
REMARK    2  A    between atoms: C_5  and  O_7
REMARK    3  A    between atoms: C_14  and  C_23
REMARK    4  A    between atoms: C_14  and  O_27
REMARK    5  A    between atoms: C_16  and  C_18
REMARK                            x       y       z     vdW  Elec       q    Type
REMARK                         _______ _______ _______ _____ _____    ______ ____
ROOT
ATOM      1  C   UNL     1       1.242  -2.167  -0.022  0.00  0.00    +0.080 A 
ATOM      2  C   UNL     1       2.433  -2.838  -0.036  0.00  0.00    +0.077 A 
ATOM      3  S   UNL     1       1.859  -4.532  -0.041  0.00  0.00    -0.058 S 
ATOM      4  C   UNL     1       0.108  -4.175  -0.023  0.00  0.00    +0.184 A 
ATOM      5  N   UNL     1       0.109  -2.853  -0.010  0.00  0.00    -0.223 NA
ATOM      6  N   UNL     1      -0.965  -5.050  -0.019  0.00  0.00    -0.160 N 
ATOM      7  C   UNL     1      -0.871  -6.518  -0.029  0.00  0.00    +0.256 C 
ATOM      8  C   UNL     1      -2.342  -6.976  -0.017  0.00  0.00    +0.127 C 
ATOM      9  C   UNL     1      -3.127  -5.684  -0.001  0.00  0.00    +0.106 C 
ATOM     10  N   UNL     1      -2.309  -4.684   0.002  0.00  0.00    -0.176 NA
ENDROOT
BRANCH   1  13
ATOM     11  C   UNL     1      -0.017   1.376   0.010  0.00  0.00    +0.004 A 
ATOM     12  C   UNL     1       0.002  -0.004   0.002  0.00  0.00    +0.010 A 
ATOM     13  C   UNL     1       1.219  -0.684  -0.013  0.00  0.00    +0.004 A 
ATOM     14  C   UNL     1       2.413   0.033  -0.021  0.00  0.00    +0.055 A 
ATOM     15  C   UNL     1       2.385   1.418  -0.013  0.00  0.00    +0.117 A 
ATOM     16  C   UNL     1       1.169   2.087   0.002  0.00  0.00    +0.045 A 
BRANCH  15  17
ATOM     17  O   UNL     1       3.548   2.121  -0.021  0.00  0.00    -0.507 OA
ATOM     18  H   UNL     1       3.875   2.329  -0.906  0.00  0.00    +0.292 HD
ENDBRANCH  15  17
ENDBRANCH   1  13
BRANCH   9  19
ATOM     19  C   UNL     1      -4.589  -5.581   0.014  0.00  0.00    +0.150 A 
ATOM     20  C   UNL     1      -5.312  -4.423   0.028  0.00  0.00    +0.051 A 
ATOM     21  C   UNL     1      -6.670  -4.794   0.040  0.00  0.00    +0.042 A 
ATOM     22  C   UNL     1      -6.713  -6.141   0.033  0.00  0.00    +0.196 A 
ATOM     23  O   UNL     1      -5.456  -6.614   0.011  0.00  0.00    -0.462 OA
ENDBRANCH   9  19
BRANCH   7  24
ATOM     24  C   UNL     1      -0.141  -7.019   1.220  0.00  0.00    +0.438 C 
ATOM     25  F   UNL     1      -0.824  -6.589   2.363  0.00  0.00    -0.166 F 
ATOM     26  F   UNL     1      -0.094  -8.417   1.203  0.00  0.00    -0.166 F 
ATOM     27  F   UNL     1       1.161  -6.509   1.235  0.00  0.00    -0.166 F 
ENDBRANCH   7  24
BRANCH   7  28
ATOM     28  O   UNL     1      -0.209  -6.971  -1.211  0.00  0.00    -0.363 OA
ATOM     29  H   UNL     1       0.700  -6.655  -1.299  0.00  0.00    +0.212 HD
ENDBRANCH   7  28
TORSDOF 5
