REMARK  Name = ZINC36269424
REMARK  9 active torsions:
REMARK  status: ('A' for Active; 'I' for Inactive)
REMARK    1  A    between atoms: C_1  and  C_2
REMARK    2  A    between atoms: C_2  and  C_4
REMARK    3  A    between atoms: C_2  and  N_14
REMARK    4  A    between atoms: C_4  and  C_5
REMARK    5  A    between atoms: C_8  and  O_13
REMARK    6  A    between atoms: C_9  and  O_11
REMARK    7  A    between atoms: O_11  and  C_12
REMARK    8  A    between atoms: N_14  and  C_15
REMARK    9  A    between atoms: C_27  and  N_30
REMARK                            x       y       z     vdW  Elec       q    Type
REMARK                         _______ _______ _______ _____ _____    ______ ____
ROOT
ATOM      1  C   UNL     1       2.162  -0.532   0.959  0.00  0.00    +0.101 C 
ATOM      2  C   UNL     1       2.537  -1.857   0.286  0.00  0.00    +0.025 C 
ATOM      3  C   UNL     1       4.061  -2.008   0.272  0.00  0.00    +0.007 C 
ATOM      4  C   UNL     1       4.561  -2.249   1.702  0.00  0.00    +0.037 C 
ATOM      5  C   UNL     1       3.955  -1.204   2.604  0.00  0.00    -0.018 A 
ATOM      6  C   UNL     1       2.891  -0.435   2.279  0.00  0.00    +0.037 A 
ATOM      7  N   UNL     1       2.594   0.415   3.312  0.00  0.00    -0.356 N 
ATOM      8  H   UNL     1       1.871   1.061   3.313  0.00  0.00    +0.166 HD
ATOM      9  C   UNL     1       3.469   0.215   4.341  0.00  0.00    +0.047 A 
ATOM     10  C   UNL     1       4.364  -0.821   3.940  0.00  0.00    +0.005 A 
ATOM     11  C   UNL     1       5.388  -1.262   4.782  0.00  0.00    +0.043 A 
ATOM     12  C   UNL     1       5.484  -0.659   6.012  0.00  0.00    +0.127 A 
ATOM     13  C   UNL     1       4.613   0.341   6.411  0.00  0.00    +0.035 A 
ATOM     14  C   UNL     1       3.590   0.813   5.593  0.00  0.00    +0.028 A 
ENDROOT
BRANCH  12  15
ATOM     15  N   UNL     1       6.552  -1.092   6.941  0.00  0.00    +0.056 N 
ATOM     16  O   UNL     1       7.322  -1.963   6.613  0.00  0.00    -0.126 OA
ATOM     17  O   UNL     1       6.654  -0.574   8.029  0.00  0.00    -0.126 OA
ENDBRANCH  12  15
BRANCH   1  18
ATOM     18  N   UNL     1       0.713  -0.491   1.192  0.00  0.00    -0.305 NA
ATOM     19  H   UNL     1       0.492   0.072   2.000  0.00  0.00    +0.123 HD
BRANCH  18  21
ATOM     20  C   UNL     1      -0.019   1.526   0.010  0.00  0.00    +0.024 C 
ATOM     21  C   UNL     1       0.002  -0.004   0.002  0.00  0.00    +0.055 C 
BRANCH  21  22
ATOM     22  C   UNL     1      -1.433  -0.534   0.013  0.00  0.00    +0.053 C 
BRANCH  22  23
ATOM     23  C   UNL     1      -1.416  -2.035  -0.119  0.00  0.00    -0.042 A 
ATOM     24  C   UNL     1      -1.450  -2.617  -1.373  0.00  0.00    +0.007 A 
ATOM     25  C   UNL     1      -1.434  -3.994  -1.499  0.00  0.00    +0.049 A 
ATOM     26  C   UNL     1      -1.384  -4.793  -0.368  0.00  0.00    +0.158 A 
ATOM     27  C   UNL     1      -1.349  -4.207   0.893  0.00  0.00    +0.162 A 
ATOM     28  C   UNL     1      -1.360  -2.826   1.013  0.00  0.00    +0.053 A 
BRANCH  27  29
ATOM     29  O   UNL     1      -1.300  -4.987   2.006  0.00  0.00    -0.491 OA
ATOM     30  C   UNL     1      -1.267  -4.316   3.268  0.00  0.00    +0.277 C 
ENDBRANCH  27  29
BRANCH  26  31
ATOM     31  O   UNL     1      -1.369  -6.147  -0.491  0.00  0.00    -0.503 OA
ATOM     32  H   UNL     1      -0.481  -6.526  -0.556  0.00  0.00    +0.292 HD
ENDBRANCH  26  31
ENDBRANCH  22  23
ENDBRANCH  21  22
ENDBRANCH  18  21
ENDBRANCH   1  18
TORSDOF 7
