REMARK  Name = ZINC46993688
REMARK  6 active torsions:
REMARK  status: ('A' for Active; 'I' for Inactive)
REMARK    1  A    between atoms: C_1  and  C_2
REMARK    2  A    between atoms: C_2  and  C_3
REMARK    3  A    between atoms: N_15  and  C_16
REMARK    4  A    between atoms: C_16  and  C_17
REMARK    5  A    between atoms: C_17  and  C_18
REMARK    6  A    between atoms: N_21  and  C_23
REMARK                            x       y       z     vdW  Elec       q    Type
REMARK                         _______ _______ _______ _____ _____    ______ ____
ROOT
ATOM      1  C   UNL     1       0.721  -0.501  -1.260  0.00  0.00    +0.108 C 
ATOM      2  C   UNL     1       0.835  -2.025  -1.228  0.00  0.00    -0.017 A 
ATOM      3  C   UNL     1       1.721  -2.707  -0.395  0.00  0.00    +0.013 A 
ATOM      4  C   UNL     1       1.765  -4.058  -0.417  0.00  0.00    +0.046 A 
ATOM      5  S   UNL     1       0.528  -4.447  -1.646  0.00  0.00    -0.101 S 
ATOM      6  C   UNL     1       0.050  -2.785  -2.038  0.00  0.00    -0.004 A 
ATOM      7  C   UNL     1      -0.970  -2.321  -3.027  0.00  0.00    +0.062 C 
ATOM      8  C   UNL     1      -1.313  -0.853  -2.729  0.00  0.00    +0.115 C 
ATOM      9  N   UNL     1      -0.061  -0.133  -2.448  0.00  0.00    -0.278 N 
ATOM     10  C   UNL     1       0.363   0.848  -3.268  0.00  0.00    +0.303 C 
ATOM     11  O   UNL     1      -0.239   1.082  -4.298  0.00  0.00    -0.253 OA
ATOM     12  N   UNL     1       1.455   1.571  -2.947  0.00  0.00    -0.299 N 
ATOM     13  H   UNL     1       1.977   1.338  -2.163  0.00  0.00    +0.150 HD
ENDROOT
BRANCH   1  15
ATOM     14  C   UNL     1      -0.007   1.521   0.013  0.00  0.00    +0.006 C 
ATOM     15  C   UNL     1       0.010  -0.009   0.002  0.00  0.00    +0.024 C 
ENDBRANCH   1  15
BRANCH  12  16
ATOM     16  C   UNL     1       1.853   2.707  -3.781  0.00  0.00    +0.110 C 
BRANCH  16  17
ATOM     17  C   UNL     1       3.114   3.350  -3.199  0.00  0.00    +0.057 C 
BRANCH  17  18
ATOM     18  C   UNL     1       3.523   4.519  -4.057  0.00  0.00    -0.008 A 
ATOM     19  C   UNL     1       4.383   4.470  -5.160  0.00  0.00    +0.138 A 
ATOM     20  N   UNL     1       4.495   5.680  -5.645  0.00  0.00    -0.180 NA
ATOM     21  N   UNL     1       3.710   6.538  -4.865  0.00  0.00    -0.274 N 
ATOM     22  C   UNL     1       3.120   5.801  -3.901  0.00  0.00    +0.111 A 
ATOM     23  C   UNL     1       3.553   7.981  -5.064  0.00  0.00    +0.172 C 
ENDBRANCH  17  18
ENDBRANCH  16  17
ENDBRANCH  12  16
TORSDOF 4
