REMARK  Name = ZINC15773569
REMARK  5 active torsions:
REMARK  status: ('A' for Active; 'I' for Inactive)
REMARK    1  A    between atoms: C_1  and  C_2
REMARK    2  A    between atoms: N_9  and  C_10
REMARK    3  A    between atoms: C_15  and  C_16
REMARK    4  A    between atoms: N_18  and  N_19
REMARK    5  A    between atoms: C_23  and  C_30
REMARK                            x       y       z     vdW  Elec       q    Type
REMARK                         _______ _______ _______ _____ _____    ______ ____
ROOT
ATOM      1  C   UNL     1       0.093  -1.684   4.120  0.00  0.00    +0.077 A 
ATOM      2  C   UNL     1       0.043  -0.533   3.325  0.00  0.00    +0.028 A 
ATOM      3  C   UNL     1       0.079   0.712   3.915  0.00  0.00    +0.002 A 
ATOM      4  C   UNL     1       0.165   0.836   5.293  0.00  0.00    +0.001 A 
ATOM      5  C   UNL     1       0.216  -0.286   6.096  0.00  0.00    +0.015 A 
ATOM      6  C   UNL     1       0.176  -1.556   5.524  0.00  0.00    +0.064 A 
ENDROOT
BRANCH   1  15
ATOM      7  C   UNL     1       4.409   0.540   2.473  0.00  0.00    +0.044 C 
ATOM      8  C   UNL     1       3.819  -0.774   2.029  0.00  0.00    -0.050 A 
ATOM      9  C   UNL     1       4.435  -1.505   1.027  0.00  0.00    +0.005 A 
ATOM     10  C   UNL     1       3.907  -2.711   0.609  0.00  0.00    +0.024 A 
ATOM     11  C   UNL     1       2.747  -3.205   1.193  0.00  0.00    +0.043 A 
ATOM     12  C   UNL     1       2.126  -2.462   2.207  0.00  0.00    +0.027 A 
ATOM     13  C   UNL     1       2.669  -1.250   2.625  0.00  0.00    +0.015 A 
ATOM     14  C   UNL     1       0.935  -3.232   2.623  0.00  0.00    +0.135 C 
ATOM     15  N   UNL     1       0.058  -2.914   3.545  0.00  0.00    -0.241 NA
ATOM     16  C   UNL     1       0.948  -4.447   1.766  0.00  0.00    +0.267 C 
ATOM     17  O   UNL     1       0.133  -5.349   1.788  0.00  0.00    -0.268 OA
ATOM     18  N   UNL     1       2.021  -4.369   0.961  0.00  0.00    -0.280 N 
ATOM     19  H   UNL     1       2.260  -5.040   0.303  0.00  0.00    +0.155 HD
ENDBRANCH   1  15
BRANCH   6  20
ATOM     20  C   UNL     1       0.224  -2.758   6.378  0.00  0.00    +0.265 C 
ATOM     21  O   UNL     1       0.194  -3.863   5.874  0.00  0.00    -0.268 OA
ATOM     22  N   UNL     1       0.303  -2.630   7.718  0.00  0.00    -0.202 N 
ATOM     23  H   UNL     1       0.327  -1.748   8.120  0.00  0.00    +0.178 HD
BRANCH  22  24
ATOM     24  N   UNL     1       0.349  -3.771   8.529  0.00  0.00    -0.174 NA
ATOM     25  C   UNL     1       0.425  -3.647   9.832  0.00  0.00    +0.153 C 
ATOM     26  C   UNL     1       0.489  -4.731  10.840  0.00  0.00    +0.028 A 
ATOM     27  C   UNL     1       0.488  -6.118  10.747  0.00  0.00    +0.015 A 
ATOM     28  C   UNL     1       0.559  -6.881  11.895  0.00  0.00    -0.050 A 
ATOM     29  C   UNL     1       0.630  -6.266  13.134  0.00  0.00    +0.005 A 
ATOM     30  C   UNL     1       0.630  -4.889  13.236  0.00  0.00    +0.024 A 
ATOM     31  C   UNL     1       0.561  -4.104  12.090  0.00  0.00    +0.043 A 
ATOM     32  N   UNL     1       0.545  -2.725  11.915  0.00  0.00    -0.280 N 
ATOM     33  C   UNL     1       0.473  -2.396  10.615  0.00  0.00    +0.269 C 
ATOM     34  O   UNL     1       0.448  -1.266  10.162  0.00  0.00    -0.268 OA
ATOM     35  C   UNL     1       0.559  -8.385  11.801  0.00  0.00    +0.044 C 
ATOM     36  H   UNL     1       0.586  -2.082  12.640  0.00  0.00    +0.155 HD
ENDBRANCH  22  24
ENDBRANCH   6  20
TORSDOF 3
