REMARK  Name = ZINC14071361
REMARK  10 active torsions:
REMARK  status: ('A' for Active; 'I' for Inactive)
REMARK    1  A    between atoms: C_1  and  C_2
REMARK    2  A    between atoms: C_2  and  N_3
REMARK    3  A    between atoms: N_3  and  C_4
REMARK    4  A    between atoms: N_3  and  S_10
REMARK    5  A    between atoms: S_10  and  C_13
REMARK    6  A    between atoms: C_17  and  C_19
REMARK    7  A    between atoms: N_21  and  C_22
REMARK    8  A    between atoms: C_22  and  C_23
REMARK    9  A    between atoms: C_23  and  C_25
REMARK   10  A    between atoms: C_23  and  N_65
REMARK                            x       y       z     vdW  Elec       q    Type
REMARK                         _______ _______ _______ _____ _____    ______ ____
ROOT
ATOM      1  C   UNL     1      -1.151   4.451  -1.725  0.00  0.00    +0.109 A 
ATOM      2  C   UNL     1       0.028   3.728  -1.679  0.00  0.00    +0.029 A 
ATOM      3  C   UNL     1      -0.003   2.347  -1.608  0.00  0.00    +0.003 A 
ATOM      4  C   UNL     1      -1.211   1.681  -1.583  0.00  0.00    +0.013 A 
ATOM      5  C   UNL     1      -2.404   2.404  -1.635  0.00  0.00    +0.039 A 
ATOM      6  C   UNL     1      -2.365   3.798  -1.701  0.00  0.00    +0.041 A 
ENDROOT
BRANCH   5   7
ATOM      7  C   UNL     1      -3.702   1.697  -1.614  0.00  0.00    +0.244 C 
ATOM      8  O   UNL     1      -4.739   2.329  -1.660  0.00  0.00    -0.270 OA
ATOM      9  N   UNL     1      -3.736   0.351  -1.545  0.00  0.00    -0.312 N 
ATOM     10  H   UNL     1      -2.908  -0.153  -1.508  0.00  0.00    +0.149 HD
BRANCH   9  11
ATOM     11  C   UNL     1      -5.022  -0.349  -1.524  0.00  0.00    +0.097 C 
BRANCH  11  12
ATOM     12  C   UNL     1      -4.780  -1.858  -1.443  0.00  0.00    +0.016 C 
BRANCH  12  18
ATOM     13  C   UNL     1      -4.499  -1.935  -3.847  0.00  0.00    -0.078 C 
ATOM     14  C   UNL     1      -3.500  -2.248  -4.963  0.00  0.00    -0.019 C 
ATOM     15  C   UNL     1      -3.141  -3.736  -4.917  0.00  0.00    -0.004 C 
ATOM     16  C   UNL     1      -2.569  -4.072  -3.537  0.00  0.00    -0.019 C 
ATOM     17  C   UNL     1      -3.594  -3.706  -2.462  0.00  0.00    -0.078 C 
ATOM     18  N   UNL     1      -3.879  -2.257  -2.544  0.00  0.00    +0.387 N 
ATOM     19  H   UNL     1      -2.997  -1.739  -2.457  0.00  0.00    -0.081 HD
ENDBRANCH  12  18
BRANCH  12  20
ATOM     20  C   UNL     1      -6.097  -2.584  -1.546  0.00  0.00    +0.093 A 
ATOM     21  C   UNL     1      -6.728  -3.214  -0.539  0.00  0.00    +0.043 A 
ATOM     22  C   UNL     1      -7.920  -3.753  -1.077  0.00  0.00    +0.041 A 
ATOM     23  C   UNL     1      -7.945  -3.419  -2.379  0.00  0.00    +0.195 A 
ATOM     24  O   UNL     1      -6.842  -2.706  -2.657  0.00  0.00    -0.469 OA
ENDBRANCH  12  20
ENDBRANCH  11  12
ENDBRANCH   9  11
ENDBRANCH   5   7
BRANCH   1  25
ATOM     25  S   UNL     1      -1.100   6.210  -1.816  0.00  0.00    +0.075 S 
ATOM     26  O   UNL     1      -2.337   6.679  -1.298  0.00  0.00    -0.150 OA
ATOM     27  O   UNL     1       0.152   6.609  -1.276  0.00  0.00    -0.150 OA
BRANCH  25  28
ATOM     28  N   UNL     1      -1.074   6.617  -3.421  0.00  0.00    -0.203 N 
BRANCH  28  29
ATOM     29  C   UNL     1       0.144   6.861  -4.060  0.00  0.00    +0.051 A 
ATOM     30  C   UNL     1       0.562   6.038  -5.098  0.00  0.00    +0.025 A 
ATOM     31  C   UNL     1       1.764   6.284  -5.731  0.00  0.00    +0.002 A 
ATOM     32  C   UNL     1       2.557   7.343  -5.325  0.00  0.00    +0.000 A 
ATOM     33  C   UNL     1       2.146   8.161  -4.289  0.00  0.00    +0.002 A 
ATOM     34  C   UNL     1       0.942   7.923  -3.655  0.00  0.00    +0.025 A 
ENDBRANCH  28  29
BRANCH  28  36
ATOM     35  C   UNL     1      -2.795   8.179  -4.184  0.00  0.00    +0.026 C 
ATOM     36  C   UNL     1      -2.329   6.722  -4.170  0.00  0.00    +0.128 C 
ENDBRANCH  28  36
ENDBRANCH  25  28
ENDBRANCH   1  25
TORSDOF 9
