REMARK  Name = ZINC11547332
REMARK  6 active torsions:
REMARK  status: ('A' for Active; 'I' for Inactive)
REMARK    1  A    between atoms: C_9  and  C_10
REMARK    2  A    between atoms: C_10  and  C_11
REMARK    3  A    between atoms: C_11  and  N_12
REMARK    4  A    between atoms: C_13  and  C_15
REMARK    5  A    between atoms: C_18  and  S_21
REMARK    6  A    between atoms: S_21  and  C_22
REMARK                            x       y       z     vdW  Elec       q    Type
REMARK                         _______ _______ _______ _____ _____    ______ ____
ROOT
ATOM      1  N   UNL     1       2.424  -2.815  -0.036  0.00  0.00    -0.311 N 
ATOM      2  C   UNL     1       1.246  -2.160  -0.021  0.00  0.00    +0.244 C 
ATOM      3  O   UNL     1       0.203  -2.784  -0.014  0.00  0.00    -0.270 OA
ATOM      4  H   UNL     1       3.256  -2.317  -0.041  0.00  0.00    +0.149 HD
ENDROOT
BRANCH   2   5
ATOM      5  C   UNL     1       1.223  -0.685  -0.013  0.00  0.00    +0.037 A 
ATOM      6  C   UNL     1       0.002  -0.004   0.002  0.00  0.00    +0.014 A 
ATOM      7  C   UNL     1      -0.017   1.367   0.010  0.00  0.00    +0.016 A 
ATOM      8  C   UNL     1       1.179   2.081   0.002  0.00  0.00    +0.016 A 
ATOM      9  C   UNL     1       2.397   1.405  -0.013  0.00  0.00    +0.016 A 
ATOM     10  C   UNL     1       2.422   0.034  -0.021  0.00  0.00    +0.014 A 
BRANCH   8  11
ATOM     11  S   UNL     1       1.152   3.843   0.011  0.00  0.00    -0.016 S 
BRANCH  11  12
ATOM     12  C   UNL     1       2.905   4.309  -0.003  0.00  0.00    +0.448 C 
ATOM     13  F   UNL     1       3.514   3.798  -1.154  0.00  0.00    -0.160 F 
ATOM     14  F   UNL     1       3.016   5.704   0.003  0.00  0.00    -0.160 F 
ATOM     15  F   UNL     1       3.535   3.786   1.131  0.00  0.00    -0.160 F 
ENDBRANCH  11  12
ENDBRANCH   8  11
ENDBRANCH   2   5
BRANCH   1  16
ATOM     16  C   UNL     1       2.447  -4.280  -0.043  0.00  0.00    +0.112 C 
BRANCH  16  17
ATOM     17  C   UNL     1       3.897  -4.767  -0.060  0.00  0.00    +0.095 C 
BRANCH  17  26
ATOM     18  C   UNL     1       3.996  -9.207   2.777  0.00  0.00    +0.005 A 
ATOM     19  C   UNL     1       3.979  -7.881   3.242  0.00  0.00    +0.018 A 
ATOM     20  C   UNL     1       3.954  -6.852   2.369  0.00  0.00    +0.094 A 
ATOM     21  N   UNL     1       3.950  -7.084   1.025  0.00  0.00    -0.286 N 
ATOM     22  C   UNL     1       3.961  -8.369   0.541  0.00  0.00    +0.161 A 
ATOM     23  C   UNL     1       3.987  -9.453   1.439  0.00  0.00    +0.048 A 
ATOM     24  N   UNL     1       3.947  -8.281  -0.779  0.00  0.00    -0.129 NA
ATOM     25  N   UNL     1       3.924  -7.042  -1.127  0.00  0.00    -0.134 NA
ATOM     26  C   UNL     1       3.921  -6.274  -0.068  0.00  0.00    +0.139 A 
ENDBRANCH  17  26
ENDBRANCH  16  17
ENDBRANCH   1  16
TORSDOF 6
