REMARK  Name = ZINC24788720
REMARK  12 active torsions:
REMARK  status: ('A' for Active; 'I' for Inactive)
REMARK    1  A    between atoms: C_1  and  C_2
REMARK    2  A    between atoms: C_2  and  C_3
REMARK    3  A    between atoms: C_3  and  C_4
REMARK    4  A    between atoms: C_4  and  S_5
REMARK    5  A    between atoms: S_5  and  C_6
REMARK    6  A    between atoms: C_9  and  S_11
REMARK    7  A    between atoms: S_11  and  C_12
REMARK    8  A    between atoms: C_12  and  C_13
REMARK    9  A    between atoms: N_18  and  S_21
REMARK   10  A    between atoms: S_21  and  C_24
REMARK   11  A    between atoms: C_25  and  C_30
REMARK   12  A    between atoms: C_28  and  C_29
REMARK                            x       y       z     vdW  Elec       q    Type
REMARK                         _______ _______ _______ _____ _____    ______ ____
ROOT
ATOM      1  C   UNL     1       0.002  -0.004   0.002  0.00  0.00    +0.226 C 
ATOM      2  O   UNL     1       1.060  -0.596  -0.011  0.00  0.00    -0.275 OA
ATOM      3  N   UNL     1      -1.156  -0.694   0.009  0.00  0.00    -0.298 N 
ATOM      4  C   UNL     1      -2.446   0.010   0.032  0.00  0.00    +0.125 C 
ATOM      5  C   UNL     1      -3.285  -0.476  -1.162  0.00  0.00    +0.128 C 
ATOM      6  N   UNL     1      -3.280  -1.946  -1.170  0.00  0.00    -0.173 NA
ATOM      7  C   UNL     1      -1.990  -2.650  -1.187  0.00  0.00    +0.128 C 
ATOM      8  C   UNL     1      -1.151  -2.163   0.001  0.00  0.00    +0.125 C 
ENDROOT
BRANCH   6   9
ATOM      9  S   UNL     1      -4.703  -2.793  -1.160  0.00  0.00    +0.066 S 
ATOM     10  O   UNL     1      -5.695  -1.928  -1.696  0.00  0.00    -0.153 OA
ATOM     11  O   UNL     1      -4.420  -4.068  -1.720  0.00  0.00    -0.153 OA
BRANCH   9  12
ATOM     12  C   UNL     1      -5.133  -3.068   0.526  0.00  0.00    +0.170 A 
ATOM     13  C   UNL     1      -5.916  -2.247   1.370  0.00  0.00    +0.107 A 
ATOM     14  N   UNL     1      -5.967  -2.848   2.524  0.00  0.00    -0.081 NA
ATOM     15  O   UNL     1      -5.349  -3.887   2.512  0.00  0.00    -0.358 OA
ATOM     16  C   UNL     1      -4.796  -4.118   1.313  0.00  0.00    +0.161 A 
ATOM     17  C   UNL     1      -3.962  -5.310   0.918  0.00  0.00    +0.091 C 
ATOM     18  C   UNL     1      -6.564  -0.936   1.006  0.00  0.00    +0.071 C 
ENDBRANCH   9  12
ENDBRANCH   6   9
BRANCH   1  19
ATOM     19  C   UNL     1      -0.018   1.503   0.010  0.00  0.00    +0.172 C 
BRANCH  19  20
ATOM     20  S   UNL     1       1.683   2.131  -0.003  0.00  0.00    -0.088 S 
BRANCH  20  24
ATOM     21  C   UNL     1       1.643   6.566   0.022  0.00  0.00    +0.159 A 
ATOM     22  N   UNL     1       0.464   5.976   0.030  0.00  0.00    -0.134 NA
ATOM     23  N   UNL     1       0.386   4.602   0.024  0.00  0.00    -0.134 NA
ATOM     24  C   UNL     1       1.492   3.882   0.009  0.00  0.00    +0.160 A 
ATOM     25  S   UNL     1       2.742   5.158   0.011  0.00  0.00    -0.033 S 
BRANCH  21  26
ATOM     26  S   UNL     1       2.032   8.285   0.029  0.00  0.00    -0.097 S 
BRANCH  26  27
ATOM     27  C   UNL     1       0.411   9.101   0.049  0.00  0.00    +0.076 C 
BRANCH  27  28
ATOM     28  C   UNL     1       0.605  10.618   0.056  0.00  0.00    +0.011 C 
BRANCH  28  30
ATOM     29  C   UNL     1      -0.569  12.824   0.080  0.00  0.00    +0.004 C 
ATOM     30  C   UNL     1      -0.762  11.306   0.073  0.00  0.00    -0.003 C 
ENDBRANCH  28  30
ENDBRANCH  27  28
ENDBRANCH  26  27
ENDBRANCH  21  26
ENDBRANCH  20  24
ENDBRANCH  19  20
ENDBRANCH   1  19
TORSDOF 9
