REMARK  Name = ZINC10137125
REMARK  8 active torsions:
REMARK  status: ('A' for Active; 'I' for Inactive)
REMARK    1  A    between atoms: C_1  and  C_2
REMARK    2  A    between atoms: C_7  and  C_9
REMARK    3  A    between atoms: C_7  and  C_23
REMARK    4  A    between atoms: C_7  and  N_51
REMARK    5  A    between atoms: C_9  and  N_10
REMARK    6  A    between atoms: C_11  and  C_13
REMARK    7  A    between atoms: C_16  and  N_22
REMARK    8  A    between atoms: C_17  and  N_19
REMARK                            x       y       z     vdW  Elec       q    Type
REMARK                         _______ _______ _______ _____ _____    ______ ____
ROOT
ATOM      1  N   UNL     1      -3.749   3.028   0.708  0.00  0.00    -0.313 N 
ATOM      2  C   UNL     1      -2.587   3.647   0.998  0.00  0.00    +0.244 C 
ATOM      3  O   UNL     1      -2.511   4.859   0.933  0.00  0.00    -0.270 OA
ATOM      4  H   UNL     1      -3.810   2.062   0.760  0.00  0.00    +0.149 HD
ENDROOT
BRANCH   2   5
ATOM      5  C   UNL     1      -1.409   2.854   1.395  0.00  0.00    +0.039 A 
ATOM      6  C   UNL     1      -1.493   1.460   1.464  0.00  0.00    +0.015 A 
ATOM      7  C   UNL     1      -0.393   0.723   1.839  0.00  0.00    +0.026 A 
ATOM      8  C   UNL     1       0.806   1.364   2.139  0.00  0.00    +0.055 A 
ATOM      9  C   UNL     1       0.895   2.751   2.065  0.00  0.00    +0.147 A 
ATOM     10  C   UNL     1      -0.203   3.494   1.696  0.00  0.00    +0.047 A 
BRANCH   9  11
ATOM     11  N   UNL     1       2.172   3.428   2.385  0.00  0.00    +0.058 N 
ATOM     12  O   UNL     1       2.222   4.644   2.429  0.00  0.00    -0.126 OA
ATOM     13  O   UNL     1       3.173   2.769   2.603  0.00  0.00    -0.126 OA
ENDBRANCH   9  11
BRANCH   8  14
ATOM     14  N   UNL     1       1.917   0.616   2.513  0.00  0.00    -0.356 N 
ATOM     15  H   UNL     1       1.997  -0.308   2.232  0.00  0.00    +0.142 HD
ATOM     16  H   UNL     1       2.613   1.020   3.055  0.00  0.00    +0.142 HD
ENDBRANCH   8  14
ENDBRANCH   2   5
BRANCH   1  17
ATOM     17  C   UNL     1      -4.920   3.816   0.314  0.00  0.00    +0.094 C 
BRANCH  17  18
ATOM     18  C   UNL     1      -6.098   2.878   0.042  0.00  0.00    -0.013 C 
BRANCH  18  25
ATOM     19  C   UNL     1      -7.798   0.100   4.739  0.00  0.00    +0.007 C 
ATOM     20  C   UNL     1      -7.723   1.073   3.560  0.00  0.00    -0.018 C 
ATOM     21  C   UNL     1      -7.708   0.285   2.247  0.00  0.00    -0.015 C 
ATOM     22  C   UNL     1      -7.572   1.260   1.075  0.00  0.00    -0.078 C 
ATOM     23  C   UNL     1      -6.343   2.832   2.450  0.00  0.00    -0.078 C 
ATOM     24  C   UNL     1      -6.442   1.904   3.663  0.00  0.00    -0.015 C 
ATOM     25  N   UNL     1      -6.308   2.012   1.220  0.00  0.00    +0.386 N 
ATOM     26  H   UNL     1      -5.530   1.345   1.287  0.00  0.00    -0.081 HD
ENDBRANCH  18  25
BRANCH  18  27
ATOM     27  C   UNL     1      -7.333   3.692  -0.243  0.00  0.00    -0.022 A 
ATOM     28  C   UNL     1      -7.973   3.888  -1.422  0.00  0.00    +0.009 A 
ATOM     29  C   UNL     1      -9.103   4.684  -1.447  0.00  0.00    +0.008 A 
ATOM     30  C   UNL     1      -9.538   5.245  -0.293  0.00  0.00    +0.045 A 
ATOM     31  S   UNL     1      -8.338   4.644   0.885  0.00  0.00    -0.103 S 
ENDBRANCH  18  27
ENDBRANCH  17  18
ENDBRANCH   1  17
TORSDOF 7
