REMARK  Name = ZINC04971754
REMARK  3 active torsions:
REMARK  status: ('A' for Active; 'I' for Inactive)
REMARK    1  A    between atoms: C_1  and  C_2
REMARK    2  A    between atoms: C_8  and  N_10
REMARK    3  A    between atoms: C_11  and  C_13
REMARK                            x       y       z     vdW  Elec       q    Type
REMARK                         _______ _______ _______ _____ _____    ______ ____
ROOT
ATOM      1  C   UNL     1      -5.963   0.896   5.412  0.00  0.00    +0.080 A 
ATOM      2  C   UNL     1      -5.578   1.199   6.713  0.00  0.00    +0.018 A 
ATOM      3  C   UNL     1      -4.253   1.563   6.964  0.00  0.00    +0.019 A 
ATOM      4  C   UNL     1      -3.345   1.624   5.966  0.00  0.00    +0.096 A 
ATOM      5  N   UNL     1      -3.671   1.335   4.673  0.00  0.00    -0.267 N 
ATOM      6  C   UNL     1      -4.954   0.970   4.352  0.00  0.00    +0.154 A 
ATOM      7  N   UNL     1      -5.289   0.686   3.103  0.00  0.00    -0.221 NA
ATOM      8  C   UNL     1      -4.395   0.746   2.130  0.00  0.00    +0.116 A 
ATOM      9  C   UNL     1      -3.056   1.112   2.368  0.00  0.00    +0.076 A 
ATOM     10  C   UNL     1      -2.720   1.413   3.721  0.00  0.00    +0.267 A 
ATOM     11  O   UNL     1      -1.582   1.739   4.014  0.00  0.00    -0.267 OA
ATOM     12  C   UNL     1      -2.183   1.133   1.191  0.00  0.00    -0.023 A 
ATOM     13  C   UNL     1      -2.741   0.804   0.009  0.00  0.00    -0.004 A 
ATOM     14  S   UNL     1      -4.438   0.451   0.381  0.00  0.00    -0.073 S 
ATOM     15  C   UNL     1      -2.067   0.751  -1.329  0.00  0.00    +0.043 C 
ATOM     16  C   UNL     1      -0.723   1.486  -1.224  0.00  0.00    +0.005 C 
ATOM     17  C   UNL     1       0.009   0.997   0.029  0.00  0.00    +0.005 C 
ATOM     18  C   UNL     1      -0.708   1.508   1.280  0.00  0.00    +0.037 C 
ENDROOT
BRANCH   1  20
ATOM     19  N   UNL     1      -7.735   0.334   3.826  0.00  0.00    -0.308 N 
ATOM     20  C   UNL     1      -7.350   0.509   5.106  0.00  0.00    +0.248 C 
ATOM     21  O   UNL     1      -8.149   0.346   6.008  0.00  0.00    -0.270 OA
ATOM     22  H   UNL     1      -7.081   0.392   3.111  0.00  0.00    +0.149 HD
BRANCH  19  29
ATOM     23  C   UNL     1      -9.176   2.008   1.952  0.00  0.00    +0.009 C 
ATOM     24  C   UNL     1      -9.442   0.507   2.083  0.00  0.00    +0.006 C 
ATOM     25  C   UNL     1      -8.543  -0.257   1.108  0.00  0.00    +0.005 C 
ATOM     26  C   UNL     1      -8.809  -1.758   1.239  0.00  0.00    +0.000 C 
ATOM     27  C   UNL     1      -8.507  -2.207   2.670  0.00  0.00    +0.002 C 
ATOM     28  C   UNL     1      -9.405  -1.443   3.645  0.00  0.00    +0.022 C 
ATOM     29  C   UNL     1      -9.139   0.058   3.514  0.00  0.00    +0.076 C 
ENDBRANCH  19  29
ENDBRANCH   1  20
TORSDOF 2
