REMARK  Name = ZINC14475688
REMARK  5 active torsions:
REMARK  status: ('A' for Active; 'I' for Inactive)
REMARK    1  A    between atoms: C_1  and  C_2
REMARK    2  A    between atoms: C_4  and  C_28
REMARK    3  A    between atoms: C_15  and  C_18
REMARK    4  A    between atoms: C_20  and  N_25
REMARK    5  A    between atoms: C_23  and  O_24
REMARK                            x       y       z     vdW  Elec       q    Type
REMARK                         _______ _______ _______ _____ _____    ______ ____
ROOT
ATOM      1  C   UNL     1       6.210   3.353  -1.509  0.00  0.00    +0.044 C 
ATOM      2  C   UNL     1       5.444   2.064  -1.360  0.00  0.00    -0.050 A 
ATOM      3  C   UNL     1       5.990   0.875  -1.810  0.00  0.00    +0.008 A 
ATOM      4  C   UNL     1       5.289  -0.303  -1.682  0.00  0.00    -0.029 A 
ATOM      5  C   UNL     1       4.020  -0.320  -1.098  0.00  0.00    +0.034 A 
ATOM      6  C   UNL     1       3.487   0.886  -0.635  0.00  0.00    -0.019 A 
ATOM      7  C   UNL     1       4.193   2.062  -0.774  0.00  0.00    +0.009 A 
ATOM      8  C   UNL     1       2.163   0.847   0.023  0.00  0.00    +0.049 C 
ATOM      9  C   UNL     1       1.224   1.996   0.001  0.00  0.00    -0.023 C 
ATOM     10  C   UNL     1      -0.019   1.527   0.010  0.00  0.00    -0.030 C 
ATOM     11  C   UNL     1       0.002  -0.004   0.002  0.00  0.00    +0.033 C 
ATOM     12  C   UNL     1       1.348  -0.286  -0.675  0.00  0.00    +0.029 C 
ATOM     13  C   UNL     1       2.076  -1.563  -0.307  0.00  0.00    +0.108 C 
ATOM     14  N   UNL     1       3.364  -1.546  -1.019  0.00  0.00    -0.336 N 
ATOM     15  C   UNL     1       5.897  -1.589  -2.179  0.00  0.00    +0.045 C 
ATOM     16  H   UNL     1       3.762  -2.473  -1.457  0.00  0.00    +0.147 HD
ENDROOT
BRANCH  13  17
ATOM     17  C   UNL     1       2.310  -1.610   1.181  0.00  0.00    +0.017 A 
ATOM     18  C   UNL     1       3.510  -1.170   1.706  0.00  0.00    +0.041 A 
ATOM     19  C   UNL     1       3.726  -1.214   3.071  0.00  0.00    +0.127 A 
ATOM     20  C   UNL     1       2.742  -1.696   3.914  0.00  0.00    +0.036 A 
ATOM     21  C   UNL     1       1.540  -2.137   3.394  0.00  0.00    +0.048 A 
ATOM     22  C   UNL     1       1.319  -2.090   2.025  0.00  0.00    +0.122 A 
BRANCH  19  23
ATOM     23  N   UNL     1       5.012  -0.742   3.631  0.00  0.00    +0.056 N 
ATOM     24  O   UNL     1       5.880  -0.316   2.889  0.00  0.00    -0.126 OA
ATOM     25  O   UNL     1       5.203  -0.780   4.833  0.00  0.00    -0.126 OA
ENDBRANCH  19  23
BRANCH  22  26
ATOM     26  O   UNL     1       0.136  -2.517   1.511  0.00  0.00    -0.506 OA
ATOM     27  H   UNL     1      -0.649  -2.898   2.181  0.00  0.00    +0.292 HD
ENDBRANCH  22  26
ENDBRANCH  13  17
TORSDOF 3
