REMARK  Name = ZINC63511241
REMARK  7 active torsions:
REMARK  status: ('A' for Active; 'I' for Inactive)
REMARK    1  A    between atoms: C_1  and  C_2
REMARK    2  A    between atoms: C_5  and  N_9
REMARK    3  A    between atoms: C_10  and  C_12
REMARK    4  A    between atoms: C_12  and  N_13
REMARK    5  A    between atoms: N_13  and  C_14
REMARK    6  A    between atoms: C_14  and  C_19
REMARK    7  A    between atoms: C_21  and  C_24
REMARK                            x       y       z     vdW  Elec       q    Type
REMARK                         _______ _______ _______ _____ _____    ______ ____
ROOT
ATOM      1  N   UNL     1      -0.234  -6.827  -2.574  0.00  0.00    +0.393 N 
ATOM      2  H   UNL     1      -1.058  -6.438  -3.008  0.00  0.00    -0.084 HD
ATOM      3  H   UNL     1       0.585  -6.540  -3.089  0.00  0.00    -0.084 HD
ENDROOT
BRANCH   1   4
ATOM      4  C   UNL     1      -0.326  -8.293  -2.574  0.00  0.00    -0.003 C 
ATOM      5  C   UNL     1      -1.612  -8.742  -1.851  0.00  0.00    -0.005 C 
ATOM      6  C   UNL     1      -2.638  -8.947  -2.992  0.00  0.00    -0.001 C 
ATOM      7  C   UNL     1      -1.775  -9.561  -4.122  0.00  0.00    -0.001 C 
ATOM      8  C   UNL     1      -0.429  -8.813  -4.019  0.00  0.00    -0.005 C 
BRANCH   4   9
ATOM      9  C   UNL     1       0.883  -8.886  -1.897  0.00  0.00    +0.161 A 
ATOM     10  N   UNL     1       1.256  -8.658  -0.633  0.00  0.00    -0.198 NA
ATOM     11  C   UNL     1       2.344  -9.323  -0.361  0.00  0.00    +0.224 A 
ATOM     12  O   UNL     1       2.704 -10.005  -1.456  0.00  0.00    -0.338 OA
ATOM     13  N   UNL     1       1.731  -9.708  -2.446  0.00  0.00    -0.063 NA
ATOM     14  C   UNL     1       3.071  -9.324   0.959  0.00  0.00    +0.112 C 
ENDBRANCH   4   9
ENDBRANCH   1   4
BRANCH   1  15
ATOM     15  C   UNL     1      -0.136  -6.343  -1.190  0.00  0.00    +0.017 C 
BRANCH  15  17
ATOM     16  N   UNL     1       0.057  -4.171  -0.023  0.00  0.00    -0.286 N 
ATOM     17  C   UNL     1      -0.042  -4.839  -1.189  0.00  0.00    +0.200 C 
ATOM     18  O   UNL     1      -0.055  -4.230  -2.238  0.00  0.00    -0.278 OA
ATOM     19  H   UNL     1       0.149  -4.660   0.810  0.00  0.00    +0.155 HD
BRANCH  16  24
ATOM     20  C   UNL     1      -0.063   1.502   0.016  0.00  0.00    +0.044 C 
ATOM     21  C   UNL     1      -0.031  -0.005   0.006  0.00  0.00    -0.049 A 
ATOM     22  C   UNL     1      -0.622  -0.701  -1.033  0.00  0.00    +0.005 A 
ATOM     23  C   UNL     1      -0.594  -2.081  -1.045  0.00  0.00    +0.024 A 
ATOM     24  C   UNL     1       0.028  -2.771  -0.013  0.00  0.00    +0.047 A 
ATOM     25  C   UNL     1       0.621  -2.070   1.029  0.00  0.00    +0.039 A 
ATOM     26  C   UNL     1       0.595  -0.688   1.032  0.00  0.00    +0.020 A 
ATOM     27 BR   UNL     1       1.470  -3.004   2.437  0.00  0.00    -0.048 Br
ENDBRANCH  16  24
ENDBRANCH  15  17
ENDBRANCH   1  15
TORSDOF 5
