REMARK  Name = ZINC49201328
REMARK  6 active torsions:
REMARK  status: ('A' for Active; 'I' for Inactive)
REMARK    1  A    between atoms: C_4  and  C_7
REMARK    2  A    between atoms: C_10  and  C_19
REMARK    3  A    between atoms: N_12  and  C_13
REMARK    4  A    between atoms: C_21  and  C_22
REMARK    5  A    between atoms: C_21  and  C_24
REMARK    6  A    between atoms: C_24  and  C_26
REMARK                            x       y       z     vdW  Elec       q    Type
REMARK                         _______ _______ _______ _____ _____    ______ ____
ROOT
ATOM      1  C   UNL     1       3.673  -0.664  -0.100  0.00  0.00    +0.134 C 
ATOM      2  C   UNL     1       3.941  -1.212  -1.516  0.00  0.00    +0.090 C 
ATOM      3  C   UNL     1       4.088  -2.702  -1.310  0.00  0.00    +0.109 C 
ATOM      4  N   UNL     1       3.940  -2.980  -0.050  0.00  0.00    -0.180 NA
ATOM      5  N   UNL     1       3.695  -1.863   0.752  0.00  0.00    -0.216 N 
ENDROOT
BRANCH   1   9
ATOM      6  C   UNL     1      -0.150   1.233   0.073  0.00  0.00    +0.000 A 
ATOM      7  C   UNL     1       0.998   1.998  -0.013  0.00  0.00    +0.000 A 
ATOM      8  C   UNL     1       2.235   1.385  -0.069  0.00  0.00    +0.005 A 
ATOM      9  C   UNL     1       2.324   0.005  -0.038  0.00  0.00    -0.025 A 
ATOM     10  C   UNL     1       1.176  -0.760   0.049  0.00  0.00    +0.005 A 
ATOM     11  C   UNL     1      -0.061  -0.146   0.104  0.00  0.00    +0.000 A 
ENDBRANCH   1   9
BRANCH   5  12
ATOM     12  C   UNL     1       3.501  -1.880   2.133  0.00  0.00    +0.052 A 
ATOM     13  C   UNL     1       3.257  -0.694   2.817  0.00  0.00    +0.025 A 
ATOM     14  C   UNL     1       3.066  -0.715   4.184  0.00  0.00    +0.002 A 
ATOM     15  C   UNL     1       3.115  -1.913   4.873  0.00  0.00    +0.000 A 
ATOM     16  C   UNL     1       3.358  -3.094   4.197  0.00  0.00    +0.002 A 
ATOM     17  C   UNL     1       3.545  -3.082   2.829  0.00  0.00    +0.025 A 
ENDBRANCH   5  12
BRANCH   3  18
ATOM     18  C   UNL     1       4.346  -3.644  -2.327  0.00  0.00    +0.223 C 
ATOM     19  O   UNL     1       3.322  -4.166  -3.039  0.00  0.00    -0.284 OA
ATOM     20  C   UNL     1       5.659  -4.038  -2.600  0.00  0.00    +0.150 C 
BRANCH  20  21
ATOM     21  C   UNL     1       5.932  -4.903  -3.708  0.00  0.00    +0.107 C 
ATOM     22  N   UNL     1       6.149  -5.589  -4.587  0.00  0.00    -0.191 NA
ENDBRANCH  20  21
BRANCH  20  23
ATOM     23  C   UNL     1       6.756  -3.566  -1.751  0.00  0.00    +0.242 C 
ATOM     24  O   UNL     1       6.515  -2.914  -0.750  0.00  0.00    -0.282 OA
BRANCH  23  25
ATOM     25  C   UNL     1       8.145  -3.878  -2.107  0.00  0.00    +0.176 A 
ATOM     26  C   UNL     1       9.257  -3.506  -1.405  0.00  0.00    +0.053 A 
ATOM     27  C   UNL     1      10.364  -4.015  -2.102  0.00  0.00    +0.042 A 
ATOM     28  C   UNL     1       9.886  -4.667  -3.185  0.00  0.00    +0.196 A 
ATOM     29  O   UNL     1       8.548  -4.587  -3.182  0.00  0.00    -0.460 OA
ENDBRANCH  23  25
ENDBRANCH  20  23
ENDBRANCH   3  18
TORSDOF 6
