REMARK  Name = ZINC36899652
REMARK  3 active torsions:
REMARK  status: ('A' for Active; 'I' for Inactive)
REMARK    1  A    between atoms: C_1  and  C_2
REMARK    2  A    between atoms: N_10  and  C_11
REMARK    3  A    between atoms: C_14  and  C_18
REMARK                            x       y       z     vdW  Elec       q    Type
REMARK                         _______ _______ _______ _____ _____    ______ ____
ROOT
ATOM      1  C   UNL     1      -0.018   1.503   0.010  0.00  0.00    +0.044 C 
ATOM      2  C   UNL     1       0.002  -0.004   0.002  0.00  0.00    -0.048 A 
ATOM      3  C   UNL     1       0.006  -0.686  -1.206  0.00  0.00    +0.005 A 
ATOM      4  C   UNL     1       0.024  -2.065  -1.230  0.00  0.00    +0.028 A 
ATOM      5  C   UNL     1       0.040  -2.776  -0.040  0.00  0.00    +0.073 A 
ATOM      6  C   UNL     1       0.037  -2.091   1.187  0.00  0.00    +0.066 A 
ATOM      7  C   UNL     1       0.023  -0.694   1.194  0.00  0.00    +0.031 A 
ATOM      8  N   UNL     1       0.055  -3.029   2.170  0.00  0.00    -0.327 N 
ATOM      9  C   UNL     1       0.069  -4.225   1.638  0.00  0.00    +0.176 A 
ATOM     10  N   UNL     1       0.060  -4.127   0.274  0.00  0.00    -0.281 N 
ATOM     11  N   UNL     1       0.090  -5.408   2.347  0.00  0.00    -0.330 N 
ATOM     12  H   UNL     1       0.095  -5.392   3.317  0.00  0.00    +0.145 HD
ATOM     13  H   UNL     1       0.099  -6.256   1.876  0.00  0.00    +0.145 HD
ATOM     14  H   UNL     1       0.058  -2.841   3.122  0.00  0.00    +0.169 HD
ENDROOT
BRANCH  10  15
ATOM     15  C   UNL     1       0.070  -5.192  -0.637  0.00  0.00    +0.064 A 
ATOM     16  C   UNL     1       1.276  -5.707  -1.092  0.00  0.00    +0.027 A 
ATOM     17  C   UNL     1       1.283  -6.757  -1.990  0.00  0.00    +0.005 A 
ATOM     18  C   UNL     1       0.089  -7.294  -2.437  0.00  0.00    -0.049 A 
ATOM     19  C   UNL     1      -1.114  -6.783  -1.986  0.00  0.00    +0.020 A 
ATOM     20  C   UNL     1      -1.127  -5.737  -1.083  0.00  0.00    +0.042 A 
ATOM     21 BR   UNL     1      -2.773  -5.044  -0.462  0.00  0.00    -0.048 Br
ATOM     22  C   UNL     1       0.100  -8.439  -3.417  0.00  0.00    +0.044 C 
ENDBRANCH  10  15
TORSDOF 1
