REMARK  Name = ZINC41576042
REMARK  4 active torsions:
REMARK  status: ('A' for Active; 'I' for Inactive)
REMARK    1  A    between atoms: C_1  and  S_2
REMARK    2  A    between atoms: S_2  and  N_5
REMARK    3  A    between atoms: N_5  and  C_6
REMARK    4  A    between atoms: C_13  and  C_15
REMARK                            x       y       z     vdW  Elec       q    Type
REMARK                         _______ _______ _______ _____ _____    ______ ____
ROOT
ATOM      1  C   UNL     1       2.210  -0.058  -1.558  0.00  0.00    +0.093 C 
ATOM      2  C   UNL     1       3.083  -1.248  -1.151  0.00  0.00    +0.023 C 
ATOM      3  C   UNL     1       4.560  -0.874  -1.299  0.00  0.00    +0.021 C 
ATOM      4  C   UNL     1       4.852  -0.538  -2.765  0.00  0.00    +0.108 C 
ATOM      5  N   UNL     1       3.918   0.506  -3.207  0.00  0.00    -0.299 N 
ATOM      6  C   UNL     1       2.476   0.287  -3.026  0.00  0.00    +0.128 C 
ATOM      7  C   UNL     1       4.374   1.643  -3.767  0.00  0.00    +0.228 C 
ATOM      8  O   UNL     1       3.592   2.456  -4.213  0.00  0.00    -0.275 OA
ENDROOT
BRANCH   7   9
ATOM      9  C   UNL     1       5.856   1.906  -3.840  0.00  0.00    +0.142 C 
ATOM     10  C   UNL     1       6.112   3.375  -3.638  0.00  0.00    +0.011 A 
ATOM     11  C   UNL     1       6.067   3.901  -2.359  0.00  0.00    +0.008 A 
ATOM     12  C   UNL     1       6.300   5.248  -2.153  0.00  0.00    +0.001 A 
ATOM     13  C   UNL     1       6.578   6.074  -3.226  0.00  0.00    +0.004 A 
ATOM     14  C   UNL     1       6.624   5.554  -4.504  0.00  0.00    +0.046 A 
ATOM     15  C   UNL     1       6.391   4.200  -4.715  0.00  0.00    +0.133 A 
ATOM     16  O   UNL     1       6.442   3.708  -5.976  0.00  0.00    -0.455 OA
ATOM     17  C   UNL     1       6.641   2.384  -6.179  0.00  0.00    +0.133 A 
ATOM     18  C   UNL     1       6.375   1.461  -5.180  0.00  0.00    +0.011 A 
ATOM     19  C   UNL     1       6.587   0.113  -5.413  0.00  0.00    +0.008 A 
ATOM     20  C   UNL     1       7.063  -0.315  -6.637  0.00  0.00    +0.001 A 
ATOM     21  C   UNL     1       7.330   0.604  -7.636  0.00  0.00    +0.004 A 
ATOM     22  C   UNL     1       7.120   1.950  -7.410  0.00  0.00    +0.046 A 
ENDBRANCH   7   9
BRANCH   1  23
ATOM     23  N   UNL     1       0.798  -0.406  -1.385  0.00  0.00    -0.190 NA
ATOM     24  H   UNL     1       0.325  -0.876  -2.089  0.00  0.00    +0.148 HD
BRANCH  23  26
ATOM     25  C   UNL     1      -0.013   1.816   0.022  0.00  0.00    +0.214 C 
ATOM     26  S   UNL     1       0.009   0.002   0.013  0.00  0.00    +0.027 S 
ATOM     27  O   UNL     1       0.844  -0.483   1.055  0.00  0.00    -0.158 OA
ATOM     28  O   UNL     1      -1.309  -0.503  -0.154  0.00  0.00    -0.158 OA
ENDBRANCH  23  26
ENDBRANCH   1  23
TORSDOF 3
