REMARK  Name = ZINC33712871
REMARK  8 active torsions:
REMARK  status: ('A' for Active; 'I' for Inactive)
REMARK    1  A    between atoms: C_1  and  C_2
REMARK    2  A    between atoms: C_5  and  C_8
REMARK    3  A    between atoms: C_8  and  C_9
REMARK    4  A    between atoms: C_10  and  C_34
REMARK    5  A    between atoms: C_12  and  C_33
REMARK    6  A    between atoms: C_14  and  N_15
REMARK    7  A    between atoms: N_19  and  S_22
REMARK    8  A    between atoms: S_22  and  C_25
REMARK                            x       y       z     vdW  Elec       q    Type
REMARK                         _______ _______ _______ _____ _____    ______ ____
ROOT
ATOM      1  N   UNL     1      -0.280  -0.032   0.567  0.00  0.00    -0.314 N 
ATOM      2  C   UNL     1      -0.386   0.195   2.007  0.00  0.00    +0.108 C 
ATOM      3  C   UNL     1       0.964  -0.043   2.647  0.00  0.00    +0.036 C 
ATOM      4  C   UNL     1       1.740   1.283   2.725  0.00  0.00    +0.111 C 
ATOM      5  N   UNL     1       1.552   2.087   1.501  0.00  0.00    -0.175 NA
ATOM      6  C   UNL     1       1.560   1.502   0.176  0.00  0.00    +0.128 C 
ATOM      7  C   UNL     1       0.125   1.075  -0.215  0.00  0.00    +0.123 C 
ENDROOT
BRANCH   1  13
ATOM      8  C   UNL     1      -1.472  -1.936  -0.321  0.00  0.00    +0.016 A 
ATOM      9  C   UNL     1      -2.657  -2.452  -0.809  0.00  0.00    +0.021 A 
ATOM     10  N   UNL     1      -3.716  -1.661  -0.903  0.00  0.00    -0.347 N 
ATOM     11  C   UNL     1      -3.655  -0.397  -0.534  0.00  0.00    +0.106 A 
ATOM     12  N   UNL     1      -2.548   0.135  -0.058  0.00  0.00    -0.219 NA
ATOM     13  C   UNL     1      -1.443  -0.595   0.066  0.00  0.00    +0.128 A 
ATOM     14  C   UNL     1      -4.886   0.463  -0.660  0.00  0.00    +0.086 C 
ATOM     15  C   UNL     1      -2.742  -3.894  -1.236  0.00  0.00    +0.064 C 
ATOM     16  H   UNL     1      -4.665  -2.057  -1.295  0.00  0.00    +0.167 HD
BRANCH   8  17
ATOM     17  C   UNL     1      -0.243  -2.801  -0.204  0.00  0.00    +0.075 C 
BRANCH  17  22
ATOM     18  C   UNL     1       2.658  -2.715  -5.201  0.00  0.00    +0.044 C 
ATOM     19  C   UNL     1       1.901  -2.737  -3.898  0.00  0.00    -0.050 A 
ATOM     20  C   UNL     1       2.151  -1.776  -2.937  0.00  0.00    +0.003 A 
ATOM     21  C   UNL     1       1.457  -1.796  -1.742  0.00  0.00    +0.004 A 
ATOM     22  C   UNL     1       0.513  -2.778  -1.507  0.00  0.00    -0.043 A 
ATOM     23  C   UNL     1       0.267  -3.743  -2.466  0.00  0.00    +0.004 A 
ATOM     24  C   UNL     1       0.958  -3.720  -3.663  0.00  0.00    +0.003 A 
ENDBRANCH  17  22
ENDBRANCH   8  17
ENDBRANCH   1  13
BRANCH   5  25
ATOM     25  S   UNL     1       1.322   3.720   1.649  0.00  0.00    +0.062 S 
ATOM     26  O   UNL     1       0.635   4.141   0.478  0.00  0.00    -0.153 OA
ATOM     27  O   UNL     1       0.807   3.941   2.955  0.00  0.00    -0.153 OA
BRANCH  25  28
ATOM     28  C   UNL     1       2.912   4.477   1.600  0.00  0.00    +0.125 A 
ATOM     29  C   UNL     1       3.248   5.311   0.550  0.00  0.00    +0.050 A 
ATOM     30  C   UNL     1       4.495   5.908   0.514  0.00  0.00    +0.043 A 
ATOM     31  C   UNL     1       5.410   5.663   1.523  0.00  0.00    +0.021 A 
ATOM     32  C   UNL     1       5.076   4.825   2.569  0.00  0.00    +0.023 A 
ATOM     33  C   UNL     1       3.826   4.231   2.608  0.00  0.00    +0.067 A 
ATOM     34 CL   UNL     1       3.407   3.178   3.923  0.00  0.00    -0.082 Cl
ATOM     35 CL   UNL     1       4.915   6.961  -0.801  0.00  0.00    -0.083 Cl
ENDBRANCH  25  28
ENDBRANCH   5  25
TORSDOF 5
