REMARK  Name = ZINC39666198
REMARK  11 active torsions:
REMARK  status: ('A' for Active; 'I' for Inactive)
REMARK    1  A    between atoms: C_1  and  C_2
REMARK    2  A    between atoms: C_5  and  O_8
REMARK    3  A    between atoms: O_8  and  C_9
REMARK    4  A    between atoms: C_9  and  C_11
REMARK    5  A    between atoms: C_9  and  C_12
REMARK    6  A    between atoms: C_12  and  N_13
REMARK    7  A    between atoms: C_14  and  C_16
REMARK    8  A    between atoms: C_27  and  C_29
REMARK    9  A    between atoms: C_30  and  C_40
REMARK   10  A    between atoms: C_33  and  C_34
REMARK   11  A    between atoms: C_36  and  C_39
REMARK                            x       y       z     vdW  Elec       q    Type
REMARK                         _______ _______ _______ _____ _____    ______ ____
ROOT
ATOM      1  C   UNL     1       4.756  -6.780  -0.060  0.00  0.00    +0.100 C 
ATOM      2  C   UNL     1       5.589  -6.113   1.058  0.00  0.00    +0.121 C 
ATOM      3  N   UNL     1       6.218  -7.243   1.781  0.00  0.00    -0.296 N 
ATOM      4  C   UNL     1       6.595  -8.200   0.714  0.00  0.00    +0.115 C 
ATOM      5  C   UNL     1       5.422  -8.149  -0.285  0.00  0.00    -0.004 C 
ATOM      6  C   UNL     1       4.432  -9.272   0.007  0.00  0.00    -0.010 C 
ATOM      7  C   UNL     1       5.099 -10.621  -0.278  0.00  0.00    -0.082 C 
ATOM      8  N   UNL     1       5.526 -10.670  -1.682  0.00  0.00    +0.379 N 
ATOM      9  C   UNL     1       6.546  -9.645  -1.931  0.00  0.00    -0.082 C 
ATOM     10  C   UNL     1       5.941  -8.255  -1.715  0.00  0.00    -0.010 C 
ATOM     11  C   UNL     1       6.406  -7.371   3.110  0.00  0.00    +0.252 C 
ATOM     12  O   UNL     1       6.943  -8.367   3.555  0.00  0.00    -0.270 OA
ATOM     13  H   UNL     1       5.909 -11.581  -1.883  0.00  0.00    -0.086 HD
ATOM     14  H   UNL     1       4.730 -10.503  -2.280  0.00  0.00    -0.086 HD
ENDROOT
BRANCH  11  15
ATOM     15  C   UNL     1       5.960  -6.305   4.022  0.00  0.00    +0.108 A 
ATOM     16  C   UNL     1       4.690  -6.207   4.643  0.00  0.00    +0.093 A 
ATOM     17  N   UNL     1       4.677  -5.131   5.373  0.00  0.00    -0.082 NA
ATOM     18  O   UNL     1       5.931  -4.487   5.260  0.00  0.00    -0.352 OA
ATOM     19  C   UNL     1       6.707  -5.213   4.440  0.00  0.00    +0.201 A 
ATOM     20  C   UNL     1       3.550  -7.180   4.484  0.00  0.00    +0.070 C 
BRANCH  19  21
ATOM     21  C   UNL     1       8.100  -4.905   4.051  0.00  0.00    +0.152 A 
ATOM     22  C   UNL     1       8.862  -3.791   4.484  0.00  0.00    +0.079 A 
ATOM     23  C   UNL     1      10.075  -3.868   3.910  0.00  0.00    +0.135 A 
ATOM     24  O   UNL     1      10.110  -4.968   3.143  0.00  0.00    -0.359 OA
ATOM     25  N   UNL     1       8.855  -5.617   3.246  0.00  0.00    -0.075 NA
ATOM     26  C   UNL     1      11.203  -2.885   4.095  0.00  0.00    +0.089 C 
ENDBRANCH  19  21
ENDBRANCH  11  15
BRANCH   1  28
ATOM     27  N   UNL     1       2.343  -7.054  -0.530  0.00  0.00    -0.312 N 
ATOM     28  C   UNL     1       3.328  -6.959   0.386  0.00  0.00    +0.218 C 
ATOM     29  O   UNL     1       3.064  -7.016   1.568  0.00  0.00    -0.275 OA
ATOM     30  H   UNL     1       2.554  -7.008  -1.475  0.00  0.00    +0.149 HD
BRANCH  27  31
ATOM     31  C   UNL     1       0.955  -7.227  -0.096  0.00  0.00    +0.148 C 
BRANCH  31  32
ATOM     32  C   UNL     1       0.044  -7.306  -1.323  0.00  0.00    +0.187 C 
ATOM     33  C   UNL     1      -1.417  -7.362  -0.871  0.00  0.00    +0.053 C 
BRANCH  32  34
ATOM     34  O   UNL     1       0.355  -8.482  -2.073  0.00  0.00    -0.488 OA
BRANCH  34  39
ATOM     35  C   UNL     1      -0.882  -8.416  -7.567  0.00  0.00    +0.044 C 
ATOM     36  C   UNL     1      -0.551  -8.434  -6.097  0.00  0.00    -0.050 A 
ATOM     37  C   UNL     1      -0.925  -7.373  -5.292  0.00  0.00    +0.007 A 
ATOM     38  C   UNL     1      -0.623  -7.387  -3.945  0.00  0.00    +0.046 A 
ATOM     39  C   UNL     1       0.056  -8.467  -3.398  0.00  0.00    +0.121 A 
ATOM     40  C   UNL     1       0.430  -9.530  -4.207  0.00  0.00    +0.046 A 
ATOM     41  C   UNL     1       0.120  -9.514  -5.554  0.00  0.00    +0.007 A 
ENDBRANCH  34  39
ENDBRANCH  32  34
ENDBRANCH  31  32
ENDBRANCH  27  31
ENDBRANCH   1  28
TORSDOF 7
