REMARK  Name = ZINC30224060
REMARK  8 active torsions:
REMARK  status: ('A' for Active; 'I' for Inactive)
REMARK    1  A    between atoms: C_1  and  C_2
REMARK    2  A    between atoms: C_2  and  C_3
REMARK    3  A    between atoms: N_12  and  C_13
REMARK    4  A    between atoms: C_13  and  C_14
REMARK    5  A    between atoms: C_14  and  C_15
REMARK    6  A    between atoms: N_17  and  C_18
REMARK    7  A    between atoms: C_21  and  S_24
REMARK    8  A    between atoms: S_24  and  N_27
REMARK                            x       y       z     vdW  Elec       q    Type
REMARK                         _______ _______ _______ _____ _____    ______ ____
ROOT
ATOM      1  C   UNL     1       3.842   3.370  -0.730  0.00  0.00    +0.215 C 
ATOM      2  O   UNL     1       2.836   4.044  -0.804  0.00  0.00    -0.276 OA
ATOM      3  N   UNL     1       5.041   3.964  -0.569  0.00  0.00    -0.286 N 
ATOM      4  H   UNL     1       5.836   3.425  -0.441  0.00  0.00    +0.155 HD
ENDROOT
BRANCH   3   5
ATOM      5  C   UNL     1       5.138   5.360  -0.587  0.00  0.00    +0.033 A 
ATOM      6  C   UNL     1       6.252   5.973  -1.145  0.00  0.00    +0.025 A 
ATOM      7  C   UNL     1       6.344   7.351  -1.161  0.00  0.00    +0.030 A 
ATOM      8  C   UNL     1       5.329   8.120  -0.622  0.00  0.00    +0.105 A 
ATOM      9  C   UNL     1       4.219   7.513  -0.066  0.00  0.00    +0.030 A 
ATOM     10  C   UNL     1       4.117   6.135  -0.052  0.00  0.00    +0.025 A 
BRANCH   8  11
ATOM     11  S   UNL     1       5.451   9.878  -0.645  0.00  0.00    +0.056 S 
ATOM     12  O   UNL     1       4.626  10.356   0.409  0.00  0.00    -0.153 OA
ATOM     13  O   UNL     1       6.835  10.188  -0.729  0.00  0.00    -0.153 OA
BRANCH  11  14
ATOM     14  N   UNL     1       4.763  10.399  -2.058  0.00  0.00    -0.204 NA
ATOM     15  H   UNL     1       4.392   9.755  -2.683  0.00  0.00    +0.144 HD
ATOM     16  H   UNL     1       4.730  11.346  -2.261  0.00  0.00    +0.144 HD
ENDBRANCH  11  14
ENDBRANCH   8  11
ENDBRANCH   3   5
BRANCH   1  17
ATOM     17  C   UNL     1       3.751   1.868  -0.817  0.00  0.00    +0.077 C 
BRANCH  17  18
ATOM     18  C   UNL     1       2.289   1.455  -0.997  0.00  0.00    -0.069 C 
BRANCH  18  27
ATOM     19  C   UNL     1       0.787  -0.406  -1.100  0.00  0.00    -0.037 C 
ATOM     20  C   UNL     1       0.703  -1.917  -1.292  0.00  0.00    -0.051 A 
ATOM     21  C   UNL     1      -0.417  -2.682  -0.978  0.00  0.00    +0.010 A 
ATOM     22  C   UNL     1      -0.402  -4.021  -1.179  0.00  0.00    +0.045 A 
ATOM     23  S   UNL     1       1.238  -4.275  -1.842  0.00  0.00    -0.101 S 
ATOM     24  C   UNL     1       1.775  -2.589  -1.801  0.00  0.00    -0.010 A 
ATOM     25  C   UNL     1       3.079  -1.993  -2.217  0.00  0.00    +0.024 C 
ATOM     26  C   UNL     1       2.888  -0.468  -2.296  0.00  0.00    -0.073 C 
ATOM     27  N   UNL     1       2.200  -0.009  -1.082  0.00  0.00    +0.385 N 
ATOM     28  H   UNL     1       2.649  -0.415  -0.274  0.00  0.00    -0.081 HD
BRANCH  19  30
ATOM     29  C   UNL     1       0.879  -0.684   1.381  0.00  0.00    +0.002 C 
ATOM     30  C   UNL     1       0.128  -0.020   0.225  0.00  0.00    -0.014 C 
ENDBRANCH  19  30
ENDBRANCH  18  27
ENDBRANCH  17  18
ENDBRANCH   1  17
TORSDOF 7
