REMARK  Name = ZINC67189108
REMARK  8 active torsions:
REMARK  status: ('A' for Active; 'I' for Inactive)
REMARK    1  A    between atoms: C_1  and  C_2
REMARK    2  A    between atoms: C_2  and  C_4
REMARK    3  A    between atoms: C_2  and  N_17
REMARK    4  A    between atoms: C_7  and  N_10
REMARK    5  A    between atoms: N_13  and  C_14
REMARK    6  A    between atoms: N_17  and  C_18
REMARK    7  A    between atoms: C_18  and  C_19
REMARK    8  A    between atoms: C_22  and  C_24
REMARK                            x       y       z     vdW  Elec       q    Type
REMARK                         _______ _______ _______ _____ _____    ______ ____
ROOT
ATOM      1  C   UNL     1      -0.191   1.534  -0.099  0.00  0.00    -0.009 C 
ATOM      2  C   UNL     1       0.012   0.021  -0.002  0.00  0.00    -0.044 C 
ENDROOT
BRANCH   2   3
ATOM      3  C   UNL     1       0.715  -0.472  -1.241  0.00  0.00    -0.062 A 
ATOM      4  C   UNL     1       2.086  -0.335  -1.357  0.00  0.00    +0.004 A 
ATOM      5  C   UNL     1       2.733  -0.785  -2.491  0.00  0.00    +0.023 A 
ATOM      6  C   UNL     1       2.005  -1.376  -3.515  0.00  0.00    +0.035 A 
ATOM      7  C   UNL     1       0.628  -1.513  -3.396  0.00  0.00    +0.023 A 
ATOM      8  C   UNL     1      -0.012  -1.065  -2.257  0.00  0.00    +0.004 A 
BRANCH   6   9
ATOM      9  N   UNL     1       2.658  -1.833  -4.666  0.00  0.00    -0.269 N 
ATOM     10  C   UNL     1       3.907  -2.331  -4.579  0.00  0.00    +0.304 C 
ATOM     11  O   UNL     1       4.431  -2.473  -3.491  0.00  0.00    -0.253 OA
ATOM     12  N   UNL     1       4.576  -2.671  -5.699  0.00  0.00    -0.296 N 
ATOM     13  H   UNL     1       2.211  -1.792  -5.526  0.00  0.00    +0.156 HD
ATOM     14  H   UNL     1       4.158  -2.558  -6.567  0.00  0.00    +0.151 HD
BRANCH  12  15
ATOM     15  C   UNL     1       5.934  -3.212  -5.604  0.00  0.00    +0.075 C 
ATOM     16  C   UNL     1       6.976  -2.683  -6.593  0.00  0.00    +0.024 C 
ATOM     17  C   UNL     1       6.422  -4.101  -6.751  0.00  0.00    +0.024 C 
ENDBRANCH  12  15
ENDBRANCH   6   9
ENDBRANCH   2   3
BRANCH   2  18
ATOM     18  N   UNL     1       0.828  -0.289   1.180  0.00  0.00    +0.387 N 
ATOM     19  H   UNL     1       1.031  -1.277   1.198  0.00  0.00    -0.085 HD
ATOM     20  H   UNL     1       1.691   0.231   1.138  0.00  0.00    -0.085 HD
BRANCH  18  21
ATOM     21  C   UNL     1       0.091   0.082   2.395  0.00  0.00    -0.025 C 
BRANCH  21  22
ATOM     22  C   UNL     1       0.927  -0.236   3.607  0.00  0.00    +0.032 A 
ATOM     23  C   UNL     1       1.696   0.729   4.175  0.00  0.00    +0.068 A 
ATOM     24  S   UNL     1       2.435  -0.186   5.522  0.00  0.00    -0.075 S 
ATOM     25  C   UNL     1       1.641  -1.752   5.183  0.00  0.00    +0.109 A 
ATOM     26  N   UNL     1       0.910  -1.446   4.119  0.00  0.00    -0.246 NA
BRANCH  25  27
ATOM     27  C   UNL     1       1.763  -3.040   5.898  0.00  0.00    +0.014 A 
ATOM     28  C   UNL     1       2.586  -3.160   7.016  0.00  0.00    +0.018 A 
ATOM     29  C   UNL     1       2.671  -4.354   7.643  0.00  0.00    +0.046 A 
ATOM     30  S   UNL     1       1.577  -5.374   6.668  0.00  0.00    -0.104 S 
ATOM     31  C   UNL     1       1.066  -4.143   5.481  0.00  0.00    +0.055 A 
ENDBRANCH  25  27
ENDBRANCH  21  22
ENDBRANCH  18  21
ENDBRANCH   2  18
TORSDOF 7
