REMARK  Name = ZINC57723748
REMARK  10 active torsions:
REMARK  status: ('A' for Active; 'I' for Inactive)
REMARK    1  A    between atoms: C_1  and  C_2
REMARK    2  A    between atoms: C_2  and  C_3
REMARK    3  A    between atoms: C_3  and  N_4
REMARK    4  A    between atoms: N_4  and  C_5
REMARK    5  A    between atoms: C_5  and  C_6
REMARK    6  A    between atoms: C_6  and  C_7
REMARK    7  A    between atoms: C_8  and  C_10
REMARK    8  A    between atoms: C_10  and  C_12
REMARK    9  A    between atoms: C_10  and  C_20
REMARK   10  A    between atoms: C_12  and  C_13
REMARK                            x       y       z     vdW  Elec       q    Type
REMARK                         _______ _______ _______ _____ _____    ______ ____
ROOT
ATOM      1  C   UNL     1      -2.083  -4.269  -1.111  0.00  0.00    +0.181 C 
ENDROOT
BRANCH   1   3
ATOM      2  N   UNL     1      -0.746  -2.319  -0.381  0.00  0.00    -0.300 N 
ATOM      3  C   UNL     1      -1.688  -2.818  -1.207  0.00  0.00    +0.233 C 
ATOM      4  O   UNL     1      -2.218  -2.098  -2.026  0.00  0.00    -0.274 OA
BRANCH   2   5
ATOM      5  C   UNL     1      -0.436  -0.888  -0.403  0.00  0.00    +0.107 C 
BRANCH   5   7
ATOM      6  C   UNL     1       1.001   0.873  -1.440  0.00  0.00    +0.005 C 
ATOM      7  C   UNL     1       0.677  -0.622  -1.418  0.00  0.00    +0.016 C 
ENDBRANCH   5   7
ENDBRANCH   2   5
BRANCH   2   8
ATOM      8  C   UNL     1      -0.031  -3.210   0.537  0.00  0.00    +0.107 C 
BRANCH   8   9
ATOM      9  C   UNL     1      -0.834  -3.357   1.831  0.00  0.00    +0.016 C 
ATOM     10  C   UNL     1      -0.062  -4.243   2.812  0.00  0.00    +0.005 C 
ENDBRANCH   8   9
ENDBRANCH   2   8
ENDBRANCH   1   3
BRANCH   1  11
ATOM     11  C   UNL     1      -3.285  -4.396  -0.272  0.00  0.00    +0.076 C 
ATOM     12  N   UNL     1      -4.214  -4.494   0.376  0.00  0.00    -0.196 NA
ENDBRANCH   1  11
BRANCH   1  13
ATOM     13  C   UNL     1      -2.378  -4.811  -2.510  0.00  0.00    +0.063 C 
BRANCH  13  14
ATOM     14  C   UNL     1      -2.652  -6.290  -2.429  0.00  0.00    -0.046 A 
ATOM     15  C   UNL     1      -1.612  -7.194  -2.544  0.00  0.00    +0.005 A 
ATOM     16  C   UNL     1      -1.864  -8.551  -2.469  0.00  0.00    +0.020 A 
ATOM     17  C   UNL     1      -3.157  -9.005  -2.279  0.00  0.00    +0.041 A 
ATOM     18  C   UNL     1      -4.197  -8.100  -2.163  0.00  0.00    +0.020 A 
ATOM     19  C   UNL     1      -3.944  -6.743  -2.233  0.00  0.00    +0.005 A 
ATOM     20 CL   UNL     1      -3.474 -10.709  -2.185  0.00  0.00    -0.084 Cl
ENDBRANCH  13  14
ENDBRANCH   1  13
TORSDOF 8
