REMARK  Name = ZINC19172049
REMARK  9 active torsions:
REMARK  status: ('A' for Active; 'I' for Inactive)
REMARK    1  A    between atoms: C_1  and  C_2
REMARK    2  A    between atoms: C_2  and  N_3
REMARK    3  A    between atoms: C_7  and  C_9
REMARK    4  A    between atoms: C_9  and  O_10
REMARK    5  A    between atoms: O_10  and  C_11
REMARK    6  A    between atoms: C_11  and  C_13
REMARK    7  A    between atoms: C_13  and  C_14
REMARK    8  A    between atoms: N_16  and  C_26
REMARK    9  A    between atoms: C_18  and  C_19
REMARK                            x       y       z     vdW  Elec       q    Type
REMARK                         _______ _______ _______ _____ _____    ______ ____
ROOT
ATOM      1  C   UNL     1      -7.173  -8.163   0.027  0.00  0.00    +0.009 A 
ATOM      2  C   UNL     1      -7.895  -8.490   1.120  0.00  0.00    +0.119 A 
ATOM      3  N   UNL     1      -9.142  -8.836   0.708  0.00  0.00    -0.239 N 
ATOM      4  N   UNL     1      -9.186  -8.718  -0.687  0.00  0.00    -0.166 NA
ATOM      5  C   UNL     1      -8.005  -8.308  -1.101  0.00  0.00    +0.097 A 
ENDROOT
BRANCH   5   6
ATOM      6  C   UNL     1      -7.617  -8.047  -2.509  0.00  0.00    +0.002 A 
ATOM      7  C   UNL     1      -6.726  -7.020  -2.810  0.00  0.00    +0.011 A 
ATOM      8  C   UNL     1      -6.368  -6.782  -4.121  0.00  0.00    +0.020 A 
ATOM      9  C   UNL     1      -6.893  -7.562  -5.137  0.00  0.00    +0.041 A 
ATOM     10  C   UNL     1      -7.779  -8.584  -4.843  0.00  0.00    +0.020 A 
ATOM     11  C   UNL     1      -8.139  -8.834  -3.535  0.00  0.00    +0.011 A 
ATOM     12 CL   UNL     1      -6.439  -7.257  -6.785  0.00  0.00    -0.084 Cl
ENDBRANCH   5   6
BRANCH   3  13
ATOM     13  C   UNL     1     -10.200  -9.242   1.533  0.00  0.00    +0.065 A 
ATOM     14  C   UNL     1     -10.021  -9.312   2.908  0.00  0.00    +0.028 A 
ATOM     15  C   UNL     1     -11.066  -9.712   3.719  0.00  0.00    +0.002 A 
ATOM     16  C   UNL     1     -12.287 -10.043   3.162  0.00  0.00    +0.000 A 
ATOM     17  C   UNL     1     -12.468  -9.974   1.793  0.00  0.00    +0.002 A 
ATOM     18  C   UNL     1     -11.429  -9.570   0.978  0.00  0.00    +0.028 A 
ENDBRANCH   3  13
BRANCH   1  19
ATOM     19  C   UNL     1      -5.734  -7.716   0.015  0.00  0.00    +0.159 C 
BRANCH  19  20
ATOM     20  C   UNL     1      -5.675  -6.210   0.023  0.00  0.00    +0.312 C 
ATOM     21  O   UNL     1      -6.697  -5.566   0.036  0.00  0.00    -0.250 OA
BRANCH  20  22
ATOM     22  O   UNL     1      -4.488  -5.585   0.015  0.00  0.00    -0.455 OA
BRANCH  22  23
ATOM     23  C   UNL     1      -4.507  -4.156   0.023  0.00  0.00    +0.328 C 
BRANCH  23  28
ATOM     24  N   UNL     1      -1.372  -0.511   0.012  0.00  0.00    -0.299 N 
ATOM     25  C   UNL     1      -1.601  -1.839   0.007  0.00  0.00    +0.306 C 
ATOM     26  O   UNL     1      -0.666  -2.617  -0.006  0.00  0.00    -0.252 OA
ATOM     27  N   UNL     1      -2.865  -2.306   0.017  0.00  0.00    -0.237 N 
ATOM     28  C   UNL     1      -3.093  -3.634   0.012  0.00  0.00    +0.258 C 
ATOM     29  O   UNL     1      -2.161  -4.409  -0.001  0.00  0.00    -0.272 OA
ATOM     30  H   UNL     1      -2.118   0.109   0.023  0.00  0.00    +0.150 HD
ATOM     31  H   UNL     1      -3.611  -1.686   0.028  0.00  0.00    +0.159 HD
BRANCH  24  33
ATOM     32  C   UNL     1      -0.019   1.526   0.010  0.00  0.00    +0.024 C 
ATOM     33  C   UNL     1       0.002  -0.004   0.002  0.00  0.00    +0.102 C 
ENDBRANCH  24  33
ENDBRANCH  23  28
ENDBRANCH  22  23
ENDBRANCH  20  22
ENDBRANCH  19  20
ENDBRANCH   1  19
TORSDOF 8
