REMARK  Name = ZINC09685444
REMARK  6 active torsions:
REMARK  status: ('A' for Active; 'I' for Inactive)
REMARK    1  A    between atoms: C_1  and  C_2
REMARK    2  A    between atoms: C_7  and  S_8
REMARK    3  A    between atoms: S_8  and  N_11
REMARK    4  A    between atoms: C_14  and  C_17
REMARK    5  A    between atoms: C_25  and  C_27
REMARK    6  A    between atoms: C_25  and  C_28
REMARK                            x       y       z     vdW  Elec       q    Type
REMARK                         _______ _______ _______ _____ _____    ______ ____
ROOT
ATOM      1  C   UNL     1      -0.980  -0.269  -0.495  0.00  0.00    +0.046 C 
ATOM      2  C   UNL     1       0.440   0.219  -0.357  0.00  0.00    -0.023 A 
ATOM      3  C   UNL     1       0.691   1.567  -0.225  0.00  0.00    +0.016 A 
ATOM      4  C   UNL     1       2.002   2.019  -0.098  0.00  0.00    +0.011 A 
ATOM      5  C   UNL     1       3.065   1.096  -0.104  0.00  0.00    +0.049 A 
ATOM      6  C   UNL     1       2.789  -0.260  -0.238  0.00  0.00    +0.055 A 
ATOM      7  C   UNL     1       1.486  -0.691  -0.364  0.00  0.00    +0.110 A 
ATOM      8  N   UNL     1       4.244   1.806   0.036  0.00  0.00    -0.357 N 
ATOM      9  H   UNL     1       5.128   1.408   0.065  0.00  0.00    +0.166 HD
ATOM     10  C   UNL     1       3.997   3.119   0.124  0.00  0.00    +0.028 A 
ATOM     11  C   UNL     1       2.628   3.334   0.055  0.00  0.00    +0.046 A 
ATOM     12  C   UNL     1       2.052   4.625   0.131  0.00  0.00    +0.166 C 
ATOM     13  O   UNL     1       0.853   4.785   0.035  0.00  0.00    -0.292 OA
ATOM     14  C   UNL     1       2.986   5.798   0.335  0.00  0.00    +0.086 C 
ATOM     15  C   UNL     1       4.333   5.517  -0.330  0.00  0.00    -0.023 C 
ATOM     16  C   UNL     1       4.977   4.260   0.269  0.00  0.00    +0.060 C 
ATOM     17  C   UNL     1       4.122   5.310  -1.831  0.00  0.00    +0.011 C 
ATOM     18  C   UNL     1       5.263   6.712  -0.112  0.00  0.00    +0.011 C 
ENDROOT
BRANCH   7  19
ATOM     19  S   UNL     1       1.147  -2.411  -0.533  0.00  0.00    +0.061 S 
ATOM     20  O   UNL     1       2.404  -3.072  -0.565  0.00  0.00    -0.153 OA
ATOM     21  O   UNL     1       0.146  -2.724   0.425  0.00  0.00    -0.153 OA
BRANCH  19  22
ATOM     22  N   UNL     1       0.460  -2.630  -2.024  0.00  0.00    -0.177 NA
ATOM     23  C   UNL     1      -1.000  -2.696  -2.173  0.00  0.00    +0.110 C 
ATOM     24  C   UNL     1      -1.368  -3.978  -2.917  0.00  0.00    +0.020 C 
ATOM     25  C   UNL     1      -0.597  -4.038  -4.238  0.00  0.00    -0.012 C 
ATOM     26  C   UNL     1       0.906  -4.056  -3.954  0.00  0.00    +0.020 C 
ATOM     27  C   UNL     1       1.299  -2.768  -3.222  0.00  0.00    +0.110 C 
ATOM     28  C   UNL     1      -0.988  -5.306  -4.999  0.00  0.00    +0.007 C 
ENDBRANCH  19  22
ENDBRANCH   7  19
TORSDOF 2
