REMARK  Name = ZINC32913026
REMARK  5 active torsions:
REMARK  status: ('A' for Active; 'I' for Inactive)
REMARK    1  A    between atoms: C_4  and  C_7
REMARK    2  A    between atoms: C_12  and  N_13
REMARK    3  A    between atoms: C_14  and  C_16
REMARK    4  A    between atoms: N_24  and  C_25
REMARK    5  A    between atoms: C_25  and  C_26
REMARK                            x       y       z     vdW  Elec       q    Type
REMARK                         _______ _______ _______ _____ _____    ______ ____
ROOT
ATOM      1  N   UNL     1       2.780  -2.152  -1.901  0.00  0.00    -0.285 N 
ATOM      2  C   UNL     1       3.608  -2.804  -2.740  0.00  0.00    +0.220 C 
ATOM      3  O   UNL     1       3.635  -4.017  -2.744  0.00  0.00    -0.275 OA
ATOM      4  H   UNL     1       2.700  -1.056  -1.949  0.00  0.00    +0.155 HD
ENDROOT
BRANCH   2   5
ATOM      5  C   UNL     1       4.501  -2.027  -3.673  0.00  0.00    +0.078 C 
ATOM      6  C   UNL     1       3.642  -1.162  -4.598  0.00  0.00    +0.032 C 
ATOM      7  C   UNL     1       4.553  -0.348  -5.521  0.00  0.00    +0.110 C 
ATOM      8  N   UNL     1       5.458  -1.268  -6.224  0.00  0.00    -0.286 N 
ATOM      9  C   UNL     1       6.264  -2.208  -5.433  0.00  0.00    +0.110 C 
ATOM     10  C   UNL     1       5.333  -3.001  -4.511  0.00  0.00    +0.032 C 
ATOM     11  C   UNL     1       5.546  -1.251  -7.569  0.00  0.00    +0.303 C 
ATOM     12  O   UNL     1       6.223  -2.080  -8.145  0.00  0.00    -0.253 OA
ATOM     13  N   UNL     1       4.883  -0.315  -8.276  0.00  0.00    -0.292 N 
ATOM     14  H   UNL     1       4.205   0.384  -7.763  0.00  0.00    +0.151 HD
BRANCH  13  15
ATOM     15  C   UNL     1       5.064  -0.227  -9.727  0.00  0.00    +0.180 C 
BRANCH  15  16
ATOM     16  C   UNL     1       4.217   0.894 -10.272  0.00  0.00    +0.122 A 
ATOM     17  C   UNL     1       4.603   2.175 -10.412  0.00  0.00    +0.046 A 
ATOM     18  C   UNL     1       3.503   2.877 -10.957  0.00  0.00    +0.041 A 
ATOM     19  C   UNL     1       2.511   1.982 -11.118  0.00  0.00    +0.195 A 
ATOM     20  O   UNL     1       2.951   0.782 -10.707  0.00  0.00    -0.466 OA
ENDBRANCH  15  16
ENDBRANCH  13  15
ENDBRANCH   2   5
BRANCH   1  26
ATOM     21  C   UNL     1       1.764  -2.322   0.293  0.00  0.00    +0.003 A 
ATOM     22  C   UNL     1       1.003  -3.042   1.212  0.00  0.00    +0.010 A 
ATOM     23  C   UNL     1       0.514  -4.288   0.876  0.00  0.00    +0.001 A 
ATOM     24  C   UNL     1       0.776  -4.827  -0.372  0.00  0.00    +0.002 A 
ATOM     25  C   UNL     1       1.529  -4.123  -1.291  0.00  0.00    +0.024 A 
ATOM     26  C   UNL     1       2.023  -2.867  -0.970  0.00  0.00    +0.041 A 
BRANCH  21  30
ATOM     27  C   UNL     1       3.277   1.517   1.314  0.00  0.00    +0.000 A 
ATOM     28  C   UNL     1       1.939   1.228   1.515  0.00  0.00    +0.001 A 
ATOM     29  C   UNL     1       1.442  -0.016   1.185  0.00  0.00    +0.008 A 
ATOM     30  C   UNL     1       2.291  -0.983   0.649  0.00  0.00    -0.016 A 
ATOM     31  C   UNL     1       3.638  -0.686   0.449  0.00  0.00    +0.008 A 
ATOM     32  C   UNL     1       4.124   0.562   0.782  0.00  0.00    +0.001 A 
ENDBRANCH  21  30
ENDBRANCH   1  26
TORSDOF 5
