REMARK  Name = ZINC52008862
REMARK  4 active torsions:
REMARK  status: ('A' for Active; 'I' for Inactive)
REMARK    1  A    between atoms: C_2  and  S_7
REMARK    2  A    between atoms: S_7  and  N_10
REMARK    3  A    between atoms: N_10  and  C_11
REMARK    4  A    between atoms: C_17  and  O_19
REMARK                            x       y       z     vdW  Elec       q    Type
REMARK                         _______ _______ _______ _____ _____    ______ ____
ROOT
ATOM      1  N   UNL     1       1.665   4.141   1.590  0.00  0.00    -0.184 NA
ATOM      2  H   UNL     1       1.024   4.769   1.957  0.00  0.00    +0.148 HD
ENDROOT
BRANCH   1   3
ATOM      3  C   UNL     1       2.737   3.610   2.435  0.00  0.00    +0.105 C 
ATOM      4  C   UNL     1       2.220   2.399   3.214  0.00  0.00    +0.023 C 
ATOM      5  C   UNL     1       1.040   2.823   4.092  0.00  0.00    +0.002 C 
ATOM      6  C   UNL     1       1.498   3.904   5.074  0.00  0.00    +0.003 C 
ATOM      7  C   UNL     1       2.016   5.114   4.295  0.00  0.00    +0.033 C 
ATOM      8  C   UNL     1       3.195   4.691   3.417  0.00  0.00    +0.133 C 
BRANCH   8   9
ATOM      9  O   UNL     1       3.678   5.822   2.690  0.00  0.00    -0.390 OA
ATOM     10  H   UNL     1       3.986   6.547   3.250  0.00  0.00    +0.210 HD
ENDBRANCH   8   9
ENDBRANCH   1   3
BRANCH   1  11
ATOM     11  S   UNL     1       1.549   3.670   0.006  0.00  0.00    +0.067 S 
ATOM     12  O   UNL     1       2.846   3.813  -0.556  0.00  0.00    -0.152 OA
ATOM     13  O   UNL     1       0.410   4.328  -0.530  0.00  0.00    -0.152 OA
BRANCH  11  15
ATOM     14  C   UNL     1      -0.016   1.315   0.009  0.00  0.00    +0.149 A 
ATOM     15  C   UNL     1       1.185   1.946   0.001  0.00  0.00    +0.163 A 
ATOM     16  S   UNL     1       2.294   0.547  -0.017  0.00  0.00    -0.036 S 
ATOM     17  C   UNL     1       1.131  -0.670  -0.012  0.00  0.00    +0.169 A 
ATOM     18  N   UNL     1       0.002  -0.004   0.002  0.00  0.00    -0.234 NA
ATOM     19 CL   UNL     1       1.369  -2.389  -0.024  0.00  0.00    -0.054 Cl
ENDBRANCH  11  15
ENDBRANCH   1  11
TORSDOF 4
