REMARK  Name = ZINC37367916
REMARK  2 active torsions:
REMARK  status: ('A' for Active; 'I' for Inactive)
REMARK    1  A    between atoms: C_8  and  C_11
REMARK    2  A    between atoms: C_11  and  C_13
REMARK                            x       y       z     vdW  Elec       q    Type
REMARK                         _______ _______ _______ _____ _____    ______ ____
ROOT
ATOM      1  C   UNL     1       3.176  -2.260  -1.954  0.00  0.00    +0.206 C 
ATOM      2  O   UNL     1       3.462  -1.288  -2.624  0.00  0.00    -0.288 OA
ENDROOT
BRANCH   1   3
ATOM      3  C   UNL     1       2.974  -3.516  -2.579  0.00  0.00    +0.046 A 
ATOM      4  C   UNL     1       2.641  -4.703  -1.962  0.00  0.00    +0.095 A 
ATOM      5  N   UNL     1       2.537  -5.678  -2.885  0.00  0.00    -0.360 N 
ATOM      6  H   UNL     1       2.311  -6.601  -2.688  0.00  0.00    +0.165 HD
ATOM      7  C   UNL     1       2.794  -5.185  -4.148  0.00  0.00    +0.049 A 
ATOM      8  C   UNL     1       3.072  -3.815  -4.021  0.00  0.00    +0.010 A 
ATOM      9  C   UNL     1       3.365  -3.053  -5.148  0.00  0.00    +0.012 A 
ATOM     10  C   UNL     1       3.377  -3.649  -6.391  0.00  0.00    +0.021 A 
ATOM     11  C   UNL     1       3.098  -5.003  -6.520  0.00  0.00    +0.043 A 
ATOM     12  C   UNL     1       2.814  -5.770  -5.410  0.00  0.00    +0.046 A 
ATOM     13 CL   UNL     1       3.116  -5.739  -8.092  0.00  0.00    -0.083 Cl
ENDBRANCH   1   3
BRANCH   1  21
ATOM     14  C   UNL     1      -0.017   1.379   0.010  0.00  0.00    +0.000 A 
ATOM     15  C   UNL     1       1.174   2.082   0.002  0.00  0.00    +0.004 A 
ATOM     16  C   UNL     1       2.379   1.411  -0.009  0.00  0.00    +0.046 A 
ATOM     17  C   UNL     1       2.407   0.019  -0.014  0.00  0.00    +0.125 A 
ATOM     18  C   UNL     1       1.204  -0.676  -0.014  0.00  0.00    -0.002 A 
ATOM     19  C   UNL     1       0.002  -0.004   0.002  0.00  0.00    +0.007 A 
ATOM     20  C   UNL     1       1.545  -2.154  -0.045  0.00  0.00    +0.091 C 
ATOM     21  C   UNL     1       3.035  -2.130  -0.460  0.00  0.00    +0.248 C 
ATOM     22  O   UNL     1       3.469  -0.834  -0.014  0.00  0.00    -0.480 OA
ENDBRANCH   1  21
TORSDOF 2
