REMARK  Name = ZINC01500224
REMARK  3 active torsions:
REMARK  status: ('A' for Active; 'I' for Inactive)
REMARK    1  A    between atoms: C_6  and  N_7
REMARK    2  A    between atoms: N_10  and  C_13
REMARK    3  A    between atoms: C_13  and  C_14
REMARK                            x       y       z     vdW  Elec       q    Type
REMARK                         _______ _______ _______ _____ _____    ______ ____
ROOT
ATOM      1  N   UNL     1       1.234  -2.083  -0.021  0.00  0.00    -0.254 N 
ATOM      2  C   UNL     1       2.438  -2.917  -0.147  0.00  0.00    +0.134 C 
ATOM      3  C   UNL     1       1.895  -4.359  -0.093  0.00  0.00    +0.129 C 
ATOM      4  N   UNL     1       0.442  -4.183   0.048  0.00  0.00    -0.279 N 
ATOM      5  C   UNL     1       0.158  -2.874   0.081  0.00  0.00    +0.309 C 
ATOM      6  O   UNL     1      -0.974  -2.444   0.192  0.00  0.00    -0.252 OA
ENDROOT
BRANCH   1  12
ATOM      7  C   UNL     1       2.406   0.029  -0.005  0.00  0.00    +0.027 A 
ATOM      8  C   UNL     1       2.388   1.411   0.003  0.00  0.00    +0.051 A 
ATOM      9  C   UNL     1       1.181   2.091   0.002  0.00  0.00    +0.166 A 
ATOM     10  C   UNL     1      -0.017   1.380  -0.006  0.00  0.00    +0.168 A 
ATOM     11  C   UNL     1       0.002  -0.004  -0.014  0.00  0.00    +0.073 A 
ATOM     12  C   UNL     1       1.214  -0.681  -0.013  0.00  0.00    +0.041 A 
ATOM     13  O   UNL     1      -1.052   2.270  -0.011  0.00  0.00    -0.453 OA
ATOM     14  C   UNL     1      -0.482   3.523   0.416  0.00  0.00    +0.466 C 
ATOM     15  O   UNL     1       0.896   3.427   0.008  0.00  0.00    -0.453 OA
ENDBRANCH   1  12
BRANCH   4  16
ATOM     16  C   UNL     1      -0.539  -5.267   0.139  0.00  0.00    +0.147 C 
BRANCH  16  17
ATOM     17  C   UNL     1      -1.013  -5.633  -1.244  0.00  0.00    +0.005 A 
ATOM     18  C   UNL     1      -0.565  -6.795  -1.843  0.00  0.00    +0.011 A 
ATOM     19  C   UNL     1      -0.999  -7.132  -3.111  0.00  0.00    +0.039 A 
ATOM     20  C   UNL     1      -1.885  -6.306  -3.783  0.00  0.00    +0.126 A 
ATOM     21  C   UNL     1      -2.334  -5.142  -3.184  0.00  0.00    +0.077 A 
ATOM     22  C   UNL     1      -1.902  -4.808  -1.911  0.00  0.00    +0.131 A 
ATOM     23  F   UNL     1      -2.344  -3.675  -1.324  0.00  0.00    -0.205 F 
ATOM     24  F   UNL     1      -2.309  -6.636  -5.022  0.00  0.00    -0.205 F 
ENDBRANCH  16  17
ENDBRANCH   4  16
TORSDOF 3
