REMARK  Name = ZINC12498103
REMARK  8 active torsions:
REMARK  status: ('A' for Active; 'I' for Inactive)
REMARK    1  A    between atoms: C_1  and  C_2
REMARK    2  A    between atoms: C_2  and  C_4
REMARK    3  A    between atoms: C_2  and  N_15
REMARK    4  A    between atoms: C_4  and  C_6
REMARK    5  A    between atoms: C_4  and  N_69
REMARK    6  A    between atoms: C_16  and  C_18
REMARK    7  A    between atoms: C_20  and  C_28
REMARK    8  A    between atoms: C_31  and  C_34
REMARK                            x       y       z     vdW  Elec       q    Type
REMARK                         _______ _______ _______ _____ _____    ______ ____
ROOT
ATOM      1  C   UNL     1      -2.728  -0.158  -6.752  0.00  0.00    +0.048 A 
ATOM      2  C   UNL     1      -1.690  -0.967  -7.193  0.00  0.00    +0.042 A 
ATOM      3  C   UNL     1      -1.831  -1.673  -8.398  0.00  0.00    +0.072 A 
ATOM      4  N   UNL     1      -2.916  -1.588  -9.140  0.00  0.00    -0.247 NA
ATOM      5  C   UNL     1      -3.958  -0.831  -8.795  0.00  0.00    +0.072 A 
ATOM      6  C   UNL     1      -3.922  -0.081  -7.592  0.00  0.00    +0.013 A 
ATOM      7  C   UNL     1      -5.018   0.712  -7.234  0.00  0.00    +0.011 A 
ATOM      8  C   UNL     1      -6.112   0.756  -8.046  0.00  0.00    +0.001 A 
ATOM      9  C   UNL     1      -6.153   0.021  -9.229  0.00  0.00    +0.002 A 
ATOM     10  C   UNL     1      -5.105  -0.760  -9.608  0.00  0.00    +0.028 A 
ENDROOT
BRANCH   3  11
ATOM     11  C   UNL     1      -0.718  -2.538  -8.855  0.00  0.00    +0.000 A 
ATOM     12  C   UNL     1       0.444  -2.641  -8.090  0.00  0.00    +0.010 A 
ATOM     13  C   UNL     1       1.477  -3.449  -8.513  0.00  0.00    +0.009 A 
ATOM     14  C   UNL     1       1.364  -4.156  -9.710  0.00  0.00    -0.018 A 
ATOM     15  C   UNL     1       0.204  -4.049 -10.477  0.00  0.00    +0.009 A 
ATOM     16  C   UNL     1      -0.831  -3.246 -10.052  0.00  0.00    +0.010 A 
BRANCH  14  17
ATOM     17  C   UNL     1       2.478  -5.021 -10.167  0.00  0.00    -0.018 A 
ATOM     18  C   UNL     1       2.366  -5.734 -11.360  0.00  0.00    +0.008 A 
ATOM     19  C   UNL     1       3.408  -6.534 -11.784  0.00  0.00    +0.001 A 
ATOM     20  C   UNL     1       4.558  -6.637 -11.021  0.00  0.00    +0.000 A 
ATOM     21  C   UNL     1       4.672  -5.937  -9.834  0.00  0.00    +0.001 A 
ATOM     22  C   UNL     1       3.639  -5.130  -9.403  0.00  0.00    +0.008 A 
ENDBRANCH  14  17
ENDBRANCH   3  11
BRANCH   1  24
ATOM     23  N   UNL     1      -1.476   0.590  -4.784  0.00  0.00    -0.310 N 
ATOM     24  C   UNL     1      -2.627   0.599  -5.486  0.00  0.00    +0.245 C 
ATOM     25  O   UNL     1      -3.582   1.230  -5.077  0.00  0.00    -0.270 OA
ATOM     26  H   UNL     1      -0.714   0.087  -5.110  0.00  0.00    +0.149 HD
BRANCH  23  28
ATOM     27  C   UNL     1      -1.009   2.794  -3.833  0.00  0.00    +0.026 C 
ATOM     28  C   UNL     1      -1.376   1.340  -3.530  0.00  0.00    +0.061 C 
BRANCH  28  29
ATOM     29  C   UNL     1      -0.295   0.715  -2.646  0.00  0.00    -0.010 C 
BRANCH  29  34
ATOM     30  C   UNL     1       0.457   2.684  -1.427  0.00  0.00    -0.078 C 
ATOM     31  C   UNL     1       0.861   3.000   0.029  0.00  0.00    -0.020 C 
ATOM     32  C   UNL     1       0.883   1.629   0.742  0.00  0.00    -0.020 C 
ATOM     33  C   UNL     1       0.490   0.605  -0.344  0.00  0.00    -0.078 C 
ATOM     34  N   UNL     1      -0.251   1.410  -1.321  0.00  0.00    +0.386 N 
ATOM     35  H   UNL     1      -1.210   1.569  -0.991  0.00  0.00    -0.081 HD
ENDBRANCH  29  34
BRANCH  29  36
ATOM     36  C   UNL     1      -0.595  -0.748  -2.445  0.00  0.00    -0.022 A 
ATOM     37  C   UNL     1       0.002  -1.827  -3.008  0.00  0.00    +0.009 A 
ATOM     38  C   UNL     1      -0.443  -3.091  -2.672  0.00  0.00    +0.008 A 
ATOM     39  C   UNL     1      -1.464  -3.215  -1.789  0.00  0.00    +0.045 A 
ATOM     40  S   UNL     1      -1.824  -1.511  -1.398  0.00  0.00    -0.103 S 
ENDBRANCH  29  36
ENDBRANCH  28  29
ENDBRANCH  23  28
ENDBRANCH   1  24
TORSDOF 7
