REMARK  Name = ZINC21864297
REMARK  9 active torsions:
REMARK  status: ('A' for Active; 'I' for Inactive)
REMARK    1  A    between atoms: C_1  and  C_2
REMARK    2  A    between atoms: C_2  and  C_3
REMARK    3  A    between atoms: C_2  and  C_4
REMARK    4  A    between atoms: C_4  and  C_5
REMARK    5  A    between atoms: C_5  and  N_6
REMARK    6  A    between atoms: C_12  and  C_27
REMARK    7  A    between atoms: C_15  and  C_16
REMARK    8  A    between atoms: C_15  and  C_17
REMARK    9  A    between atoms: N_19  and  C_20
REMARK                            x       y       z     vdW  Elec       q    Type
REMARK                         _______ _______ _______ _____ _____    ______ ____
ROOT
ATOM      1  N   UNL     1       4.146   1.170   5.763  0.00  0.00    -0.281 N 
ATOM      2  C   UNL     1       4.698   1.122   6.998  0.00  0.00    +0.264 C 
ATOM      3  O   UNL     1       4.997   0.066   7.526  0.00  0.00    -0.268 OA
ATOM      4  C   UNL     1       4.916   2.409   7.665  0.00  0.00    +0.105 A 
ATOM      5  C   UNL     1       5.605   2.718   8.806  0.00  0.00    +0.033 A 
ATOM      6  C   UNL     1       5.517   4.099   8.983  0.00  0.00    +0.032 A 
ATOM      7  C   UNL     1       4.765   4.613   7.938  0.00  0.00    +0.085 A 
ATOM      8  N   UNL     1       4.391   3.584   7.139  0.00  0.00    -0.331 N 
ATOM      9  C   UNL     1       3.576   3.584   5.920  0.00  0.00    +0.157 C 
ATOM     10  C   UNL     1       4.010   2.421   5.027  0.00  0.00    +0.128 C 
ATOM     11  C   UNL     1       5.356   2.765   4.387  0.00  0.00    +0.043 C 
ENDROOT
BRANCH   7  12
ATOM     12  C   UNL     1       4.431   6.029   7.731  0.00  0.00    +0.151 A 
ATOM     13  C   UNL     1       4.879   7.076   8.482  0.00  0.00    +0.051 A 
ATOM     14  C   UNL     1       4.314   8.241   7.931  0.00  0.00    +0.042 A 
ATOM     15  C   UNL     1       3.550   7.856   6.888  0.00  0.00    +0.196 A 
ATOM     16  O   UNL     1       3.622   6.520   6.771  0.00  0.00    -0.461 OA
ENDBRANCH   7  12
BRANCH  10  17
ATOM     17  C   UNL     1       2.986   2.237   3.937  0.00  0.00    +0.238 C 
ATOM     18  O   UNL     1       3.239   2.583   2.802  0.00  0.00    -0.273 OA
ATOM     19  N   UNL     1       1.789   1.687   4.222  0.00  0.00    -0.311 N 
ATOM     20  H   UNL     1       1.590   1.296   5.231  0.00  0.00    +0.149 HD
BRANCH  19  21
ATOM     21  C   UNL     1       0.753   1.609   3.189  0.00  0.00    +0.073 C 
ATOM     22  C   UNL     1       0.946   0.360   2.373  0.00  0.00    +0.022 C 
ATOM     23  C   UNL     1       0.549   0.552   0.897  0.00  0.00    +0.002 C 
ATOM     24  C   UNL     1      -0.748   1.367   0.729  0.00  0.00    +0.000 C 
ATOM     25  C   UNL     1      -1.805   0.980   1.728  0.00  0.00    +0.000 C 
ATOM     26  C   UNL     1      -1.705   1.929   2.939  0.00  0.00    +0.002 C 
ATOM     27  C   UNL     1      -0.638   1.552   3.853  0.00  0.00    +0.022 C 
ENDBRANCH  19  21
ENDBRANCH  10  17
BRANCH   1  28
ATOM     28  C   UNL     1       3.670  -0.072   5.147  0.00  0.00    +0.109 C 
BRANCH  28  29
ATOM     29  C   UNL     1       4.838  -0.777   4.454  0.00  0.00    +0.022 C 
BRANCH  29  31
ATOM     30  C   UNL     1       5.479  -2.716   3.014  0.00  0.00    +0.007 C 
ATOM     31  C   UNL     1       4.341  -2.074   3.812  0.00  0.00    -0.016 C 
ATOM     32  C   UNL     1       3.877  -3.039   4.904  0.00  0.00    +0.007 C 
ENDBRANCH  29  31
ENDBRANCH  28  29
ENDBRANCH   1  28
TORSDOF 6
