REMARK  Name = ZINC05839630
REMARK  24 active torsions:
REMARK  status: ('A' for Active; 'I' for Inactive)
REMARK    1  A    between atoms: C_1  and  C_2
REMARK    2  A    between atoms: C_2  and  C_3
REMARK    3  A    between atoms: C_3  and  C_4
REMARK    4  A    between atoms: C_4  and  S_5
REMARK    5  A    between atoms: S_5  and  C_6
REMARK    6  A    between atoms: C_6  and  S_30
REMARK    7  A    between atoms: C_7  and  C_8
REMARK    8  A    between atoms: C_8  and  C_10
REMARK    9  A    between atoms: C_14  and  C_16
REMARK   10  A    between atoms: C_16  and  C_18
REMARK   11  A    between atoms: C_19  and  S_20
REMARK   12  A    between atoms: C_19  and  S_25
REMARK   13  A    between atoms: S_20  and  C_21
REMARK   14  A    between atoms: C_21  and  C_22
REMARK   15  A    between atoms: C_22  and  C_23
REMARK   16  A    between atoms: C_23  and  C_24
REMARK   17  A    between atoms: S_25  and  C_26
REMARK   18  A    between atoms: C_26  and  C_27
REMARK   19  A    between atoms: C_27  and  C_28
REMARK   20  A    between atoms: C_28  and  C_29
REMARK   21  A    between atoms: S_30  and  C_31
REMARK   22  A    between atoms: C_31  and  C_32
REMARK   23  A    between atoms: C_32  and  C_33
REMARK   24  A    between atoms: C_33  and  C_34
REMARK                            x       y       z     vdW  Elec       q    Type
REMARK                         _______ _______ _______ _____ _____    ______ ____
ROOT
ATOM      1  C   UNL     1      -1.712   3.445   0.043  0.00  0.00    +0.111 A 
ATOM      2  C   UNL     1      -0.345   3.250  -0.162  0.00  0.00    +0.032 A 
ATOM      3  C   UNL     1       0.469   4.347  -0.389  0.00  0.00    +0.004 A 
ATOM      4  C   UNL     1      -0.106   5.608  -0.398  0.00  0.00    +0.032 A 
ATOM      5  C   UNL     1      -1.478   5.734  -0.179  0.00  0.00    +0.111 A 
ATOM      6  N   UNL     1      -2.229   4.664   0.035  0.00  0.00    -0.240 NA
ENDROOT
BRANCH   1   7
ATOM      7  C   UNL     1      -2.593   2.275   0.280  0.00  0.00    +0.206 C 
ATOM      8  O   UNL     1      -2.122   1.150   0.295  0.00  0.00    -0.286 OA
BRANCH   7  10
ATOM      9  C   UNL     1      -4.783   1.371   0.708  0.00  0.00    +0.044 C 
ATOM     10  C   UNL     1      -3.961   2.462   0.487  0.00  0.00    +0.074 C 
BRANCH   9  11
ATOM     11  S   UNL     1      -6.510   1.608   0.969  0.00  0.00    -0.118 S 
BRANCH  11  12
ATOM     12  C   UNL     1      -7.000  -0.085   1.381  0.00  0.00    +0.075 C 
BRANCH  12  13
ATOM     13  C   UNL     1      -8.477  -0.106   1.780  0.00  0.00    +0.011 C 
BRANCH  13  14
ATOM     14  C   UNL     1      -8.891  -1.537   2.129  0.00  0.00    -0.003 C 
ATOM     15  C   UNL     1     -10.368  -1.557   2.529  0.00  0.00    +0.004 C 
ENDBRANCH  13  14
ENDBRANCH  12  13
ENDBRANCH  11  12
ENDBRANCH   9  11
BRANCH   9  16
ATOM     16  S   UNL     1      -4.104  -0.254   0.729  0.00  0.00    -0.118 S 
BRANCH  16  17
ATOM     17  C   UNL     1      -4.804  -0.908  -0.807  0.00  0.00    +0.075 C 
BRANCH  17  18
ATOM     18  C   UNL     1      -4.447  -2.389  -0.941  0.00  0.00    +0.011 C 
BRANCH  18  20
ATOM     19  C   UNL     1      -4.681  -4.423  -2.373  0.00  0.00    +0.004 C 
ATOM     20  C   UNL     1      -5.039  -2.941  -2.239  0.00  0.00    -0.003 C 
ENDBRANCH  18  20
ENDBRANCH  17  18
ENDBRANCH  16  17
ENDBRANCH   9  16
ENDBRANCH   7  10
ENDBRANCH   1   7
BRANCH   5  21
ATOM     21  C   UNL     1      -2.103   7.079  -0.186  0.00  0.00    +0.206 C 
ATOM     22  O   UNL     1      -1.417   8.069  -0.383  0.00  0.00    -0.286 OA
BRANCH  21  23
ATOM     23  C   UNL     1      -3.475   7.213   0.031  0.00  0.00    +0.074 C 
ATOM     24  C   UNL     1      -4.058   8.468   0.025  0.00  0.00    +0.044 C 
BRANCH  24  25
ATOM     25  S   UNL     1      -5.790   8.637   0.299  0.00  0.00    -0.118 S 
BRANCH  25  26
ATOM     26  C   UNL     1      -5.987  10.409  -0.012  0.00  0.00    +0.075 C 
BRANCH  26  27
ATOM     27  C   UNL     1      -7.432  10.820   0.274  0.00  0.00    +0.011 C 
BRANCH  27  28
ATOM     28  C   UNL     1      -7.598  12.318   0.011  0.00  0.00    -0.003 C 
ATOM     29  C   UNL     1      -9.044  12.729   0.297  0.00  0.00    +0.004 C 
ENDBRANCH  27  28
ENDBRANCH  26  27
ENDBRANCH  25  26
ENDBRANCH  24  25
BRANCH  24  30
ATOM     30  S   UNL     1      -3.067   9.898  -0.259  0.00  0.00    -0.118 S 
BRANCH  30  31
ATOM     31  C   UNL     1      -3.022  10.585   1.415  0.00  0.00    +0.075 C 
BRANCH  31  32
ATOM     32  C   UNL     1      -2.308  11.939   1.391  0.00  0.00    +0.011 C 
BRANCH  32  33
ATOM     33  C   UNL     1      -2.269  12.520   2.805  0.00  0.00    -0.003 C 
ATOM     34  C   UNL     1      -1.556  13.873   2.781  0.00  0.00    +0.004 C 
ENDBRANCH  32  33
ENDBRANCH  31  32
ENDBRANCH  30  31
ENDBRANCH  24  30
ENDBRANCH  21  23
ENDBRANCH   5  21
TORSDOF 20
