REMARK  Name = ZINC07426883
REMARK  5 active torsions:
REMARK  status: ('A' for Active; 'I' for Inactive)
REMARK    1  A    between atoms: C_1  and  C_2
REMARK    2  A    between atoms: C_2  and  N_3
REMARK    3  A    between atoms: N_3  and  C_4
REMARK    4  A    between atoms: C_10  and  C_12
REMARK    5  A    between atoms: C_12  and  N_13
REMARK                            x       y       z     vdW  Elec       q    Type
REMARK                         _______ _______ _______ _____ _____    ______ ____
ROOT
ATOM      1  N   UNL     1      -1.988   2.962  -5.796  0.00  0.00    -0.215 N 
ATOM      2  C   UNL     1      -3.097   2.281  -6.142  0.00  0.00    +0.247 C 
ATOM      3  O   UNL     1      -4.177   2.313  -5.591  0.00  0.00    -0.273 OA
ATOM      4  C   UNL     1      -2.717   1.464  -7.365  0.00  0.00    +0.113 C 
ATOM      5  C   UNL     1      -3.523   2.006  -8.567  0.00  0.00    +0.035 C 
ATOM      6  C   UNL     1      -2.789   1.665  -9.834  0.00  0.00    +0.003 C 
ATOM      7  C   UNL     1      -3.277   0.347 -10.468  0.00  0.00    +0.000 C 
ATOM      8  C   UNL     1      -3.521  -0.762  -9.427  0.00  0.00    +0.000 C 
ATOM      9  C   UNL     1      -2.447  -0.803  -8.373  0.00  0.00    +0.003 C 
ATOM     10  C   UNL     1      -2.916   0.034  -7.168  0.00  0.00    +0.035 C 
ATOM     11  N   UNL     1      -1.298   1.815  -7.578  0.00  0.00    -0.285 N 
ATOM     12  C   UNL     1      -0.969   2.697  -6.620  0.00  0.00    +0.310 C 
ATOM     13  O   UNL     1       0.134   3.196  -6.511  0.00  0.00    -0.252 OA
ATOM     14  H   UNL     1      -0.717   1.477  -8.278  0.00  0.00    +0.151 HD
ENDROOT
BRANCH   1  15
ATOM     15  C   UNL     1      -1.911   3.884  -4.660  0.00  0.00    +0.214 C 
BRANCH  15  17
ATOM     16  N   UNL     1      -1.350   3.776  -2.253  0.00  0.00    -0.274 N 
ATOM     17  C   UNL     1      -1.489   3.128  -3.427  0.00  0.00    +0.237 C 
ATOM     18  O   UNL     1      -1.274   1.936  -3.490  0.00  0.00    -0.274 OA
BRANCH  16  19
ATOM     19  C   UNL     1      -0.857   3.102  -1.140  0.00  0.00    +0.010 C 
ATOM     20  C   UNL     1      -1.643   2.967  -0.108  0.00  0.00    -0.008 C 
ATOM     21  C   UNL     1      -1.246   2.274   1.163  0.00  0.00    +0.029 C 
ATOM     22  C   UNL     1      -0.004   1.411   0.931  0.00  0.00    +0.004 C 
ATOM     23  C   UNL     1       1.051   2.259   0.211  0.00  0.00    +0.006 C 
ATOM     24  C   UNL     1       0.547   2.574  -1.199  0.00  0.00    +0.051 C 
ENDBRANCH  16  19
BRANCH  16  26
ATOM     25  C   UNL     1      -0.486   6.059  -2.414  0.00  0.00    +0.025 C 
ATOM     26  C   UNL     1      -1.718   5.190  -2.150  0.00  0.00    +0.110 C 
ENDBRANCH  16  26
ENDBRANCH  15  17
ENDBRANCH   1  15
TORSDOF 4
