REMARK  Name = ZINC38605582
REMARK  8 active torsions:
REMARK  status: ('A' for Active; 'I' for Inactive)
REMARK    1  A    between atoms: C_1  and  C_2
REMARK    2  A    between atoms: C_2  and  C_4
REMARK    3  A    between atoms: C_2  and  N_22
REMARK    4  A    between atoms: N_6  and  C_7
REMARK    5  A    between atoms: C_15  and  C_17
REMARK    6  A    between atoms: C_17  and  O_19
REMARK    7  A    between atoms: O_19  and  C_20
REMARK    8  A    between atoms: N_25  and  C_28
REMARK                            x       y       z     vdW  Elec       q    Type
REMARK                         _______ _______ _______ _____ _____    ______ ____
ROOT
ATOM      1  C   UNL     1      -0.035   1.353   1.421  0.00  0.00    +0.234 C 
ATOM      2  O   UNL     1       0.562   1.638   0.406  0.00  0.00    -0.274 OA
ATOM      3  N   UNL     1      -0.316   2.309   2.329  0.00  0.00    -0.285 N 
ATOM      4  H   UNL     1      -0.757   2.074   3.160  0.00  0.00    +0.155 HD
ENDROOT
BRANCH   3   5
ATOM      5  C   UNL     1       0.021   3.606   2.079  0.00  0.00    +0.053 C 
ATOM      6  C   UNL     1      -0.304   4.715   2.841  0.00  0.00    +0.019 A 
ATOM      7  C   UNL     1      -1.039   4.866   4.042  0.00  0.00    +0.026 A 
ATOM      8  C   UNL     1      -1.204   6.102   4.577  0.00  0.00    +0.019 A 
ATOM      9  C   UNL     1      -0.665   7.241   3.970  0.00  0.00    +0.017 A 
ATOM     10  C   UNL     1       0.048   7.170   2.821  0.00  0.00    +0.027 A 
ATOM     11  C   UNL     1       0.265   5.913   2.200  0.00  0.00    +0.045 A 
ATOM     12  N   UNL     1       0.910   5.583   1.100  0.00  0.00    -0.367 N 
ATOM     13  C   UNL     1       0.833   4.130   0.916  0.00  0.00    +0.234 C 
ATOM     14 BR   UNL     1      -2.188   6.289   6.181  0.00  0.00    -0.050 Br
ATOM     15  H   UNL     1       1.367   6.201   0.509  0.00  0.00    +0.161 HD
BRANCH  13  16
ATOM     16  C   UNL     1       2.213   3.527   0.932  0.00  0.00    +0.335 C 
ATOM     17  O   UNL     1       3.020   3.887   1.756  0.00  0.00    -0.248 OA
BRANCH  16  18
ATOM     18  O   UNL     1       2.547   2.589   0.032  0.00  0.00    -0.466 OA
ATOM     19  C   UNL     1       3.873   2.061   0.106  0.00  0.00    +0.280 C 
ENDBRANCH  16  18
ENDBRANCH  13  16
ENDBRANCH   3   5
BRANCH   1  21
ATOM     20  C   UNL     1      -1.983  -0.179   1.508  0.00  0.00    +0.034 C 
ATOM     21  C   UNL     1      -0.465  -0.070   1.668  0.00  0.00    +0.140 C 
BRANCH  21  22
ATOM     22  N   UNL     1       0.194  -0.956   0.699  0.00  0.00    -0.295 NA
ATOM     23  C   UNL     1       0.152  -2.354   1.150  0.00  0.00    +0.066 C 
ATOM     24  C   UNL     1       0.900  -3.234   0.146  0.00  0.00    -0.063 C 
ATOM     25  N   UNL     1       0.273  -3.109  -1.177  0.00  0.00    +0.383 N 
ATOM     26  C   UNL     1       0.345  -1.712  -1.624  0.00  0.00    -0.063 C 
ATOM     27  C   UNL     1      -0.408  -0.819  -0.635  0.00  0.00    +0.066 C 
ATOM     28  H   UNL     1      -0.693  -3.394  -1.119  0.00  0.00    -0.081 HD
BRANCH  25  29
ATOM     29  C   UNL     1       0.980  -3.967  -2.136  0.00  0.00    -0.068 C 
ATOM     30  C   UNL     1       0.327  -3.837  -3.514  0.00  0.00    -0.015 C 
ATOM     31  C   UNL     1       1.063  -4.731  -4.514  0.00  0.00    -0.002 C 
ATOM     32  C   UNL     1       0.987  -6.187  -4.048  0.00  0.00    -0.000 C 
ATOM     33  C   UNL     1       1.640  -6.317  -2.671  0.00  0.00    -0.002 C 
ATOM     34  C   UNL     1       0.903  -5.423  -1.671  0.00  0.00    -0.015 C 
ENDBRANCH  25  29
ENDBRANCH  21  22
ENDBRANCH   1  21
TORSDOF 6
