REMARK  Name = ZINC65700009
REMARK  7 active torsions:
REMARK  status: ('A' for Active; 'I' for Inactive)
REMARK    1  A    between atoms: C_1  and  C_2
REMARK    2  A    between atoms: C_4  and  C_21
REMARK    3  A    between atoms: C_7  and  N_8
REMARK    4  A    between atoms: C_9  and  C_11
REMARK    5  A    between atoms: N_13  and  C_14
REMARK    6  A    between atoms: C_17  and  C_20
REMARK    7  A    between atoms: N_23  and  C_24
REMARK                            x       y       z     vdW  Elec       q    Type
REMARK                         _______ _______ _______ _____ _____    ______ ____
ROOT
ATOM      1  C   UNL     1      -0.013   1.493   0.004  0.00  0.00    +0.045 C 
ATOM      2  C   UNL     1       0.013  -0.013   0.002  0.00  0.00    -0.029 A 
ATOM      3  C   UNL     1       0.024  -0.699  -1.192  0.00  0.00    +0.018 A 
ATOM      4  C   UNL     1       0.049  -2.096  -1.193  0.00  0.00    +0.037 A 
ATOM      5  C   UNL     1       0.062  -2.793   0.018  0.00  0.00    +0.015 A 
ATOM      6  C   UNL     1       0.050  -2.102   1.208  0.00  0.00    +0.024 A 
ATOM      7  C   UNL     1       0.031  -0.710   1.206  0.00  0.00    +0.037 A 
ENDROOT
BRANCH   7   8
ATOM      8  N   UNL     1       0.025  -0.013   2.412  0.00  0.00    -0.278 N 
ATOM      9  C   UNL     1      -0.632  -0.515   3.477  0.00  0.00    +0.303 C 
ATOM     10  O   UNL     1      -1.149  -1.611   3.410  0.00  0.00    -0.265 OA
ATOM     11  H   UNL     1       0.493   0.833   2.486  0.00  0.00    +0.155 HD
BRANCH   9  12
ATOM     12  C   UNL     1      -0.725   0.278   4.739  0.00  0.00    +0.300 C 
ATOM     13  O   UNL     1      -0.209   1.375   4.806  0.00  0.00    -0.265 OA
ATOM     14  N   UNL     1      -1.382  -0.223   5.803  0.00  0.00    -0.305 N 
ATOM     15  H   UNL     1      -1.795  -1.100   5.750  0.00  0.00    +0.149 HD
BRANCH  14  16
ATOM     16  C   UNL     1      -1.473   0.555   7.041  0.00  0.00    +0.073 C 
ATOM     17  C   UNL     1      -2.657   1.520   6.951  0.00  0.00    +0.022 C 
ATOM     18  C   UNL     1      -3.949   0.726   6.752  0.00  0.00    +0.005 C 
ATOM     19  C   UNL     1      -4.153  -0.222   7.936  0.00  0.00    -0.014 C 
ATOM     20  C   UNL     1      -2.969  -1.187   8.026  0.00  0.00    +0.005 C 
ATOM     21  C   UNL     1      -1.677  -0.392   8.226  0.00  0.00    +0.022 C 
ATOM     22  C   UNL     1      -5.445  -1.016   7.737  0.00  0.00    +0.007 C 
ENDBRANCH  14  16
ENDBRANCH   9  12
ENDBRANCH   7   8
BRANCH   4  23
ATOM     23  C   UNL     1       0.061  -2.834  -2.471  0.00  0.00    +0.244 C 
ATOM     24  O   UNL     1       0.049  -2.227  -3.525  0.00  0.00    -0.270 OA
ATOM     25  N   UNL     1       0.084  -4.182  -2.471  0.00  0.00    -0.308 N 
ATOM     26  H   UNL     1       0.093  -4.667  -1.631  0.00  0.00    +0.149 HD
BRANCH  25  27
ATOM     27  C   UNL     1       0.096  -4.915  -3.740  0.00  0.00    +0.073 C 
ATOM     28  C   UNL     1      -1.349  -5.157  -4.223  0.00  0.00    +0.022 C 
ATOM     29  C   UNL     1      -1.305  -6.570  -4.857  0.00  0.00    +0.002 C 
ATOM     30  C   UNL     1      -0.349  -7.339  -3.911  0.00  0.00    +0.002 C 
ATOM     31  C   UNL     1       0.732  -6.302  -3.541  0.00  0.00    +0.022 C 
ENDBRANCH  25  27
ENDBRANCH   4  23
TORSDOF 5
