REMARK  Name = ZINC02127490
REMARK  6 active torsions:
REMARK  status: ('A' for Active; 'I' for Inactive)
REMARK    1  A    between atoms: C_1  and  C_2
REMARK    2  A    between atoms: C_7  and  C_8
REMARK    3  A    between atoms: C_17  and  C_19
REMARK    4  A    between atoms: C_19  and  C_20
REMARK    5  A    between atoms: N_25  and  C_28
REMARK    6  A    between atoms: C_28  and  C_29
REMARK                            x       y       z     vdW  Elec       q    Type
REMARK                         _______ _______ _______ _____ _____    ______ ____
ROOT
ATOM      1  C   UNL     1      -6.102  -1.957  -1.429  0.00  0.00    +0.044 C 
ATOM      2  C   UNL     1      -4.630  -1.645  -1.342  0.00  0.00    -0.046 A 
ATOM      3  C   UNL     1      -3.821  -2.377  -0.493  0.00  0.00    +0.004 A 
ATOM      4  C   UNL     1      -2.469  -2.091  -0.414  0.00  0.00    +0.005 A 
ATOM      5  C   UNL     1      -1.933  -1.081  -1.179  0.00  0.00    -0.027 A 
ATOM      6  C   UNL     1      -2.738  -0.337  -2.037  0.00  0.00    +0.039 A 
ATOM      7  C   UNL     1      -4.097  -0.631  -2.111  0.00  0.00    -0.026 A 
ATOM      8  C   UNL     1      -4.988   0.160  -3.033  0.00  0.00    +0.046 C 
ATOM      9  N   UNL     1      -1.975   0.625  -2.702  0.00  0.00    -0.286 N 
ATOM     10  C   UNL     1      -0.677   0.583  -2.343  0.00  0.00    +0.211 C 
ATOM     11  O   UNL     1       0.212   1.297  -2.754  0.00  0.00    -0.277 OA
ATOM     12  C   UNL     1      -0.546  -0.524  -1.332  0.00  0.00    +0.050 C 
ATOM     13  C   UNL     1       0.002  -0.004   0.002  0.00  0.00    +0.088 C 
ATOM     14  C   UNL     1       1.519  -0.342  -0.021  0.00  0.00    +0.073 C 
ATOM     15  C   UNL     1       1.750  -1.029  -1.384  0.00  0.00    -0.049 C 
ATOM     16  C   UNL     1       2.179   1.019  -0.016  0.00  0.00    +0.224 C 
ATOM     17  O   UNL     1       3.374   1.217  -0.026  0.00  0.00    -0.275 OA
ATOM     18  N   UNL     1       1.237   1.969   0.001  0.00  0.00    -0.237 N 
ATOM     19  C   UNL     1      -0.018   1.508   0.010  0.00  0.00    +0.225 C 
ATOM     20  O   UNL     1      -1.017   2.195   0.019  0.00  0.00    -0.275 OA
ATOM     21  H   UNL     1      -2.337   1.252  -3.348  0.00  0.00    +0.155 HD
ATOM     22  N   UNL     1       0.428  -1.544  -1.749  0.00  0.00    +0.394 N 
ATOM     23  H   UNL     1       0.373  -1.693  -2.763  0.00  0.00    -0.083 HD
ATOM     24  H   UNL     1       0.245  -2.429  -1.262  0.00  0.00    -0.083 HD
ENDROOT
BRANCH  15  25
ATOM     25  C   UNL     1       2.772  -2.159  -1.244  0.00  0.00    +0.080 C 
BRANCH  25  26
ATOM     26  C   UNL     1       3.075  -2.734  -2.603  0.00  0.00    +0.209 C 
ATOM     27  O   UNL     1       2.526  -2.285  -3.587  0.00  0.00    -0.276 OA
ATOM     28  N   UNL     1       3.954  -3.748  -2.726  0.00  0.00    -0.329 N 
ATOM     29  H   UNL     1       4.393  -4.107  -1.939  0.00  0.00    +0.145 HD
ATOM     30  H   UNL     1       4.149  -4.118  -3.601  0.00  0.00    +0.145 HD
ENDBRANCH  25  26
ENDBRANCH  15  25
BRANCH  18  31
ATOM     31  C   UNL     1       1.556   3.399   0.008  0.00  0.00    +0.151 C 
BRANCH  31  32
ATOM     32  C   UNL     1       1.679   3.880   1.431  0.00  0.00    -0.030 A 
ATOM     33  C   UNL     1       0.569   4.365   2.095  0.00  0.00    +0.005 A 
ATOM     34  C   UNL     1       0.681   4.801   3.402  0.00  0.00    +0.000 A 
ATOM     35  C   UNL     1       1.906   4.761   4.041  0.00  0.00    +0.000 A 
ATOM     36  C   UNL     1       3.018   4.281   3.375  0.00  0.00    +0.000 A 
ATOM     37  C   UNL     1       2.905   3.840   2.070  0.00  0.00    +0.005 A 
ENDBRANCH  31  32
ENDBRANCH  18  31
TORSDOF 4
