REMARK  Name = ZINC22381187
REMARK  12 active torsions:
REMARK  status: ('A' for Active; 'I' for Inactive)
REMARK    1  A    between atoms: C_1  and  N_2
REMARK    2  A    between atoms: N_2  and  C_3
REMARK    3  A    between atoms: N_2  and  C_4
REMARK    4  A    between atoms: C_4  and  C_6
REMARK    5  A    between atoms: C_4  and  C_30
REMARK    6  A    between atoms: C_6  and  N_7
REMARK    7  A    between atoms: C_8  and  C_10
REMARK    8  A    between atoms: C_14  and  S_16
REMARK    9  A    between atoms: S_16  and  N_19
REMARK   10  A    between atoms: N_19  and  C_20
REMARK   11  A    between atoms: N_19  and  C_23
REMARK   12  A    between atoms: C_20  and  C_21
REMARK                            x       y       z     vdW  Elec       q    Type
REMARK                         _______ _______ _______ _____ _____    ______ ____
ROOT
ATOM      1  C   UNL     1      -3.441   0.140   5.181  0.00  0.00    +0.039 A 
ATOM      2  C   UNL     1      -3.573  -1.004   4.391  0.00  0.00    +0.013 A 
ATOM      3  C   UNL     1      -2.470  -1.791   4.133  0.00  0.00    +0.003 A 
ATOM      4  C   UNL     1      -1.235  -1.450   4.654  0.00  0.00    +0.029 A 
ATOM      5  C   UNL     1      -1.097  -0.318   5.438  0.00  0.00    +0.109 A 
ATOM      6  C   UNL     1      -2.193   0.475   5.708  0.00  0.00    +0.041 A 
ENDROOT
BRANCH   1   8
ATOM      7  N   UNL     1      -5.823   0.658   4.956  0.00  0.00    -0.312 N 
ATOM      8  C   UNL     1      -4.619   0.988   5.462  0.00  0.00    +0.244 C 
ATOM      9  O   UNL     1      -4.500   1.983   6.149  0.00  0.00    -0.270 OA
ATOM     10  H   UNL     1      -5.930  -0.243   4.333  0.00  0.00    +0.149 HD
BRANCH   7  11
ATOM     11  C   UNL     1      -6.990   1.499   5.234  0.00  0.00    +0.097 C 
BRANCH  11  12
ATOM     12  C   UNL     1      -8.196   0.973   4.452  0.00  0.00    +0.016 C 
BRANCH  12  13
ATOM     13  C   UNL     1      -9.425   1.753   4.841  0.00  0.00    +0.093 A 
ATOM     14  C   UNL     1     -10.072   2.640   4.063  0.00  0.00    +0.043 A 
ATOM     15  C   UNL     1     -11.163   3.129   4.819  0.00  0.00    +0.041 A 
ATOM     16  C   UNL     1     -11.112   2.518   6.016  0.00  0.00    +0.195 A 
ATOM     17  O   UNL     1     -10.057   1.685   6.024  0.00  0.00    -0.469 OA
ENDBRANCH  12  13
BRANCH  12  19
ATOM     18  C   UNL     1      -8.644  -0.643   6.199  0.00  0.00    -0.096 C 
ATOM     19  N   UNL     1      -8.399  -0.448   4.764  0.00  0.00    +0.384 N 
ATOM     20  C   UNL     1      -9.494  -1.011   3.962  0.00  0.00    -0.096 C 
ATOM     21  H   UNL     1      -7.477  -0.987   4.502  0.00  0.00    -0.082 HD
ENDBRANCH  12  19
ENDBRANCH  11  12
ENDBRANCH   7  11
ENDBRANCH   1   8
BRANCH   5  22
ATOM     22  S   UNL     1       0.480   0.108   6.098  0.00  0.00    +0.075 S 
ATOM     23  O   UNL     1       1.234  -1.095   6.154  0.00  0.00    -0.150 OA
ATOM     24  O   UNL     1       0.237   0.910   7.245  0.00  0.00    -0.150 OA
BRANCH  22  25
ATOM     25  N   UNL     1       1.228   1.083   4.988  0.00  0.00    -0.198 N 
BRANCH  25  26
ATOM     26  C   UNL     1       2.028   0.521   3.990  0.00  0.00    +0.070 A 
ATOM     27  C   UNL     1       3.402   0.426   4.170  0.00  0.00    +0.026 A 
ATOM     28  C   UNL     1       4.189  -0.136   3.184  0.00  0.00    +0.002 A 
ATOM     29  C   UNL     1       3.613  -0.593   2.013  0.00  0.00    +0.002 A 
ATOM     30  C   UNL     1       2.246  -0.495   1.827  0.00  0.00    +0.022 A 
ATOM     31  C   UNL     1       1.452   0.060   2.812  0.00  0.00    +0.064 A 
ATOM     32 CL   UNL     1      -0.264   0.183   2.578  0.00  0.00    -0.082 Cl
ENDBRANCH  25  26
BRANCH  25  33
ATOM     33  C   UNL     1       1.051   2.536   5.053  0.00  0.00    +0.158 C 
BRANCH  33  34
ATOM     34  C   UNL     1       2.192   3.147   5.824  0.00  0.00    -0.014 C 
ATOM     35  C   UNL     1       2.913   4.098   5.284  0.00  0.00    +0.005 C 
ENDBRANCH  33  34
ENDBRANCH  25  33
ENDBRANCH  22  25
ENDBRANCH   5  22
TORSDOF 10
