REMARK  Name = ZINC41005570
REMARK  13 active torsions:
REMARK  status: ('A' for Active; 'I' for Inactive)
REMARK    1  A    between atoms: C_1  and  C_2
REMARK    2  A    between atoms: C_2  and  O_3
REMARK    3  A    between atoms: O_3  and  C_4
REMARK    4  A    between atoms: C_4  and  C_6
REMARK    5  A    between atoms: C_7  and  C_22
REMARK    6  A    between atoms: C_10  and  N_11
REMARK    7  A    between atoms: C_12  and  C_14
REMARK    8  A    between atoms: C_16  and  C_21
REMARK    9  A    between atoms: C_18  and  C_20
REMARK   10  A    between atoms: C_25  and  O_30
REMARK   11  A    between atoms: C_26  and  O_28
REMARK   12  A    between atoms: O_28  and  C_29
REMARK   13  A    between atoms: O_30  and  C_31
REMARK                            x       y       z     vdW  Elec       q    Type
REMARK                         _______ _______ _______ _____ _____    ______ ____
ROOT
ATOM      1  C   UNL     1       1.448  -2.344  -2.515  0.00  0.00    +0.095 A 
ATOM      2  C   UNL     1       2.873  -2.621  -2.522  0.00  0.00    +0.005 A 
ATOM      3  C   UNL     1       3.364  -3.124  -3.684  0.00  0.00    +0.056 A 
ATOM      4  S   UNL     1       1.927  -3.214  -4.730  0.00  0.00    -0.080 S 
ATOM      5  C   UNL     1       0.756  -2.626  -3.683  0.00  0.00    +0.087 A 
ENDROOT
BRANCH   2   6
ATOM      6  C   UNL     1       3.734  -2.373  -1.341  0.00  0.00    -0.013 A 
ATOM      7  C   UNL     1       3.686  -1.142  -0.688  0.00  0.00    +0.012 A 
ATOM      8  C   UNL     1       4.488  -0.911   0.411  0.00  0.00    +0.050 A 
ATOM      9  C   UNL     1       5.344  -1.901   0.868  0.00  0.00    +0.162 A 
ATOM     10  C   UNL     1       5.397  -3.133   0.220  0.00  0.00    +0.162 A 
ATOM     11  C   UNL     1       4.590  -3.371  -0.878  0.00  0.00    +0.058 A 
BRANCH  10  12
ATOM     12  O   UNL     1       6.237  -4.103   0.670  0.00  0.00    -0.491 OA
ATOM     13  C   UNL     1       6.240  -5.341  -0.042  0.00  0.00    +0.277 C 
ENDBRANCH  10  12
BRANCH   9  14
ATOM     14  O   UNL     1       6.133  -1.670   1.952  0.00  0.00    -0.491 OA
ATOM     15  C   UNL     1       6.028  -0.385   2.568  0.00  0.00    +0.277 C 
ENDBRANCH   9  14
ENDBRANCH   2   6
BRANCH   5  16
ATOM     16  N   UNL     1      -0.596  -2.458  -3.930  0.00  0.00    -0.274 N 
ATOM     17  C   UNL     1      -1.107  -2.787  -5.133  0.00  0.00    +0.267 C 
ATOM     18  O   UNL     1      -0.381  -3.230  -6.001  0.00  0.00    -0.268 OA
ATOM     19  H   UNL     1      -1.175  -2.103  -3.238  0.00  0.00    +0.156 HD
BRANCH  17  20
ATOM     20  C   UNL     1      -2.553  -2.607  -5.398  0.00  0.00    +0.126 A 
ATOM     21  C   UNL     1      -3.076  -2.954  -6.642  0.00  0.00    +0.036 A 
ATOM     22  C   UNL     1      -4.431  -2.780  -6.874  0.00  0.00    -0.047 A 
ATOM     23  C   UNL     1      -5.216  -2.265  -5.854  0.00  0.00    +0.026 A 
ATOM     24  C   UNL     1      -4.629  -1.942  -4.641  0.00  0.00    +0.039 A 
ATOM     25  N   UNL     1      -3.340  -2.121  -4.446  0.00  0.00    -0.247 NA
ATOM     26  C   UNL     1      -5.478  -1.382  -3.530  0.00  0.00    +0.065 C 
ATOM     27  C   UNL     1      -5.037  -3.143  -8.205  0.00  0.00    +0.044 C 
ENDBRANCH  17  20
ENDBRANCH   5  16
BRANCH   1  28
ATOM     28  C   UNL     1       0.776  -1.800  -1.335  0.00  0.00    +0.342 C 
ATOM     29  O   UNL     1       0.312  -2.552  -0.499  0.00  0.00    -0.245 OA
BRANCH  28  30
ATOM     30  O   UNL     1       0.671  -0.465  -1.174  0.00  0.00    -0.461 OA
BRANCH  30  32
ATOM     31  C   UNL     1      -0.019   1.526   0.010  0.00  0.00    +0.048 C 
ATOM     32  C   UNL     1       0.002  -0.004   0.002  0.00  0.00    +0.229 C 
ENDBRANCH  30  32
ENDBRANCH  28  30
ENDBRANCH   1  28
TORSDOF 8
