REMARK  Name = ZINC42867970
REMARK  3 active torsions:
REMARK  status: ('A' for Active; 'I' for Inactive)
REMARK    1  A    between atoms: C_6  and  C_7
REMARK    2  A    between atoms: N_17  and  C_18
REMARK    3  A    between atoms: C_18  and  C_19
REMARK                            x       y       z     vdW  Elec       q    Type
REMARK                         _______ _______ _______ _____ _____    ______ ____
ROOT
ATOM      1  C   UNL     1      -1.277  -0.780   0.029  0.00  0.00    +0.108 C 
ATOM      2  C   UNL     1      -1.656  -1.128  -1.431  0.00  0.00    +0.027 C 
ATOM      3  C   UNL     1      -3.028  -1.656  -1.491  0.00  0.00    +0.002 C 
ATOM      4  C   UNL     1      -3.233  -2.960  -0.727  0.00  0.00    +0.002 C 
ATOM      5  C   UNL     1      -3.514  -2.652   0.723  0.00  0.00    +0.019 C 
ATOM      6  C   UNL     1      -2.202  -2.645   1.527  0.00  0.00    +0.110 C 
ATOM      7  N   UNL     1      -1.100  -1.999   0.787  0.00  0.00    -0.279 N 
ATOM      8  C   UNL     1       0.122  -2.568   0.819  0.00  0.00    +0.303 C 
ATOM      9  O   UNL     1       1.063  -2.019   0.280  0.00  0.00    -0.253 OA
ATOM     10  N   UNL     1       0.300  -3.747   1.448  0.00  0.00    -0.297 N 
ATOM     11  H   UNL     1      -0.463  -4.221   1.814  0.00  0.00    +0.150 HD
ENDROOT
BRANCH   1  17
ATOM     12  C   UNL     1       0.713   0.232  -1.132  0.00  0.00    +0.025 A 
ATOM     13  C   UNL     1       1.887   0.960  -1.084  0.00  0.00    +0.111 A 
ATOM     14  N   UNL     1       2.337   1.438   0.060  0.00  0.00    -0.263 NA
ATOM     15  C   UNL     1       1.692   1.246   1.194  0.00  0.00    +0.111 A 
ATOM     16  C   UNL     1       0.511   0.528   1.223  0.00  0.00    +0.025 A 
ATOM     17  C   UNL     1       0.008   0.008   0.040  0.00  0.00    -0.024 A 
ENDBRANCH   1  17
BRANCH  10  18
ATOM     18  C   UNL     1       1.645  -4.311   1.580  0.00  0.00    +0.137 C 
BRANCH  18  19
ATOM     19  C   UNL     1       1.569  -5.643   2.329  0.00  0.00    +0.135 C 
ATOM     20  C   UNL     1       2.992  -6.186   2.579  0.00  0.00    +0.035 C 
ATOM     21  C   UNL     1       2.810  -7.709   2.341  0.00  0.00    +0.031 C 
ATOM     22  C   UNL     1       1.742  -7.706   1.219  0.00  0.00    +0.160 C 
ATOM     23  O   UNL     1       0.869  -6.607   1.534  0.00  0.00    -0.375 OA
ENDBRANCH  18  19
ENDBRANCH  10  18
TORSDOF 3
