REMARK  Name = ZINC45089883
REMARK  3 active torsions:
REMARK  status: ('A' for Active; 'I' for Inactive)
REMARK    1  A    between atoms: C_4  and  C_6
REMARK    2  A    between atoms: C_15  and  C_17
REMARK    3  A    between atoms: C_18  and  C_19
REMARK                            x       y       z     vdW  Elec       q    Type
REMARK                         _______ _______ _______ _____ _____    ______ ____
ROOT
ATOM      1  C   UNL     1       1.128  -1.242  -1.873  0.00  0.00    +0.081 C 
ATOM      2  C   UNL     1       0.494  -2.603  -1.516  0.00  0.00    +0.024 C 
ATOM      3  C   UNL     1       1.194  -3.580  -2.495  0.00  0.00    +0.021 C 
ATOM      4  C   UNL     1       2.619  -2.978  -2.571  0.00  0.00    +0.110 C 
ATOM      5  N   UNL     1       2.414  -1.515  -2.531  0.00  0.00    -0.282 N 
ATOM      6  C   UNL     1       3.262  -0.586  -3.015  0.00  0.00    +0.309 C 
ATOM      7  O   UNL     1       3.030   0.595  -2.846  0.00  0.00    -0.252 OA
ATOM      8  N   UNL     1       4.367  -0.966  -3.685  0.00  0.00    -0.236 N 
ATOM      9  C   UNL     1       5.215  -0.037  -4.169  0.00  0.00    +0.244 C 
ATOM     10  O   UNL     1       4.983   1.143  -4.001  0.00  0.00    -0.270 OA
ATOM     11  H   UNL     1       4.553  -1.909  -3.819  0.00  0.00    +0.159 HD
ENDROOT
BRANCH   1  15
ATOM     12  C   UNL     1       1.377  -1.413   1.663  0.00  0.00    +0.000 C 
ATOM     13  C   UNL     1       0.351  -0.253   1.615  0.00  0.00    +0.000 C 
ATOM     14  C   UNL     1       0.012  -0.159   0.107  0.00  0.00    +0.005 C 
ATOM     15  C   UNL     1       1.357  -0.424  -0.601  0.00  0.00    +0.010 C 
ATOM     16  C   UNL     1       2.225  -1.221   0.389  0.00  0.00    +0.005 C 
ENDBRANCH   1  15
BRANCH   9  17
ATOM     17  C   UNL     1       6.428  -0.454  -4.904  0.00  0.00    +0.075 C 
ATOM     18  C   UNL     1       7.273   0.472  -5.386  0.00  0.00    +0.101 C 
BRANCH  18  19
ATOM     19  C   UNL     1       8.482   0.056  -6.120  0.00  0.00    +0.380 C 
ATOM     20  O   UNL     1       8.716  -1.133  -6.289  0.00  0.00    -0.241 OA
ATOM     21  O   UNL     1       9.252   0.898  -6.559  0.00  0.00    -0.241 OA
ENDBRANCH  18  19
ENDBRANCH   9  17
TORSDOF 3
