REMARK  Name = ZINC42382514
REMARK  11 active torsions:
REMARK  status: ('A' for Active; 'I' for Inactive)
REMARK    1  A    between atoms: C_1  and  C_2
REMARK    2  A    between atoms: C_7  and  N_12
REMARK    3  A    between atoms: C_9  and  C_11
REMARK    4  A    between atoms: N_12  and  C_13
REMARK    5  A    between atoms: C_13  and  C_15
REMARK    6  A    between atoms: C_13  and  C_16
REMARK    7  A    between atoms: N_18  and  C_19
REMARK    8  A    between atoms: C_21  and  N_27
REMARK    9  A    between atoms: C_24  and  O_25
REMARK   10  A    between atoms: O_25  and  C_26
REMARK   11  A    between atoms: C_28  and  C_30
REMARK                            x       y       z     vdW  Elec       q    Type
REMARK                         _______ _______ _______ _____ _____    ______ ____
ROOT
ATOM      1  C   UNL     1      -1.987  -4.579   1.212  0.00  0.00    +0.203 C 
ATOM      2  O   UNL     1      -2.903  -3.804   1.037  0.00  0.00    -0.277 OA
ATOM      3  N   UNL     1      -2.233  -5.900   1.324  0.00  0.00    -0.284 N 
ATOM      4  H   UNL     1      -1.496  -6.526   1.396  0.00  0.00    +0.155 HD
ENDROOT
BRANCH   3   5
ATOM      5  C   UNL     1      -3.554  -6.367   1.337  0.00  0.00    +0.077 A 
ATOM      6  C   UNL     1      -4.522  -5.734   0.572  0.00  0.00    +0.050 A 
ATOM      7  C   UNL     1      -5.829  -6.200   0.588  0.00  0.00    +0.035 A 
ATOM      8  C   UNL     1      -6.167  -7.298   1.368  0.00  0.00    +0.027 A 
ATOM      9  C   UNL     1      -5.203  -7.929   2.130  0.00  0.00    +0.049 A 
ATOM     10  C   UNL     1      -3.895  -7.472   2.114  0.00  0.00    +0.141 A 
BRANCH   7  11
ATOM     11  N   UNL     1      -6.809  -5.562  -0.184  0.00  0.00    -0.286 N 
ATOM     12  C   UNL     1      -7.891  -6.248  -0.601  0.00  0.00    +0.214 C 
ATOM     13  O   UNL     1      -7.967  -7.441  -0.400  0.00  0.00    -0.276 OA
ATOM     14  C   UNL     1      -9.008  -5.532  -1.317  0.00  0.00    +0.109 C 
ATOM     15  H   UNL     1      -6.708  -4.626  -0.418  0.00  0.00    +0.155 HD
ENDBRANCH   7  11
BRANCH  10  16
ATOM     16  O   UNL     1      -2.946  -8.098   2.861  0.00  0.00    -0.493 OA
ATOM     17  C   UNL     1      -3.366  -9.224   3.633  0.00  0.00    +0.277 C 
ENDBRANCH  10  16
ENDBRANCH   3   5
BRANCH   1  18
ATOM     18  C   UNL     1      -0.573  -4.066   1.303  0.00  0.00    +0.014 C 
ATOM     19  C   UNL     1       0.018  -4.438   2.664  0.00  0.00    -0.004 C 
BRANCH  18  20
ATOM     20  N   UNL     1      -0.571  -2.605   1.151  0.00  0.00    +0.388 N 
ATOM     21  H   UNL     1      -1.058  -2.186   1.929  0.00  0.00    -0.084 HD
ATOM     22  H   UNL     1      -1.035  -2.356   0.290  0.00  0.00    -0.084 HD
BRANCH  20  28
ATOM     23  C   UNL     1       0.078   1.426  -0.195  0.00  0.00    +0.008 C 
ATOM     24  C   UNL     1       0.076  -0.104  -0.162  0.00  0.00    -0.013 C 
ATOM     25  C   UNL     1       0.778  -0.641  -1.411  0.00  0.00    +0.003 C 
ATOM     26  C   UNL     1       0.777  -2.171  -1.378  0.00  0.00    -0.001 C 
ATOM     27  C   UNL     1       1.516  -2.655  -0.129  0.00  0.00    -0.015 C 
ATOM     28  C   UNL     1       0.814  -2.117   1.120  0.00  0.00    -0.068 C 
ATOM     29  C   UNL     1       0.816  -0.588   1.087  0.00  0.00    -0.025 C 
ATOM     30  C   UNL     1       0.114  -0.050   2.336  0.00  0.00    +0.006 C 
ENDBRANCH  20  28
ENDBRANCH  18  20
ENDBRANCH   1  18
TORSDOF 6
