REMARK  Name = ZINC09798048
REMARK  5 active torsions:
REMARK  status: ('A' for Active; 'I' for Inactive)
REMARK    1  A    between atoms: C_4  and  C_7
REMARK    2  A    between atoms: C_7  and  C_9
REMARK    3  A    between atoms: C_13  and  N_14
REMARK    4  A    between atoms: C_15  and  C_17
REMARK    5  A    between atoms: C_17  and  N_60
REMARK                            x       y       z     vdW  Elec       q    Type
REMARK                         _______ _______ _______ _____ _____    ______ ____
ROOT
ATOM      1  N   UNL     1      -1.580   6.443  -2.776  0.00  0.00    -0.281 N 
ATOM      2  C   UNL     1      -1.541   7.696  -2.282  0.00  0.00    +0.201 C 
ATOM      3  O   UNL     1      -1.308   7.877  -1.106  0.00  0.00    -0.278 OA
ATOM      4  H   UNL     1      -1.767   6.298  -3.717  0.00  0.00    +0.155 HD
ENDROOT
BRANCH   1   9
ATOM      5  C   UNL     1      -1.249   4.016  -2.277  0.00  0.00    +0.054 A 
ATOM      6  C   UNL     1      -1.005   3.073  -1.199  0.00  0.00    -0.024 A 
ATOM      7  C   UNL     1      -0.905   3.619   0.032  0.00  0.00    -0.005 A 
ATOM      8  S   UNL     1      -1.128   5.357  -0.223  0.00  0.00    -0.077 S 
ATOM      9  C   UNL     1      -1.353   5.362  -1.941  0.00  0.00    +0.083 A 
ATOM     10  C   UNL     1      -0.659   2.899   1.322  0.00  0.00    +0.043 C 
ATOM     11  C   UNL     1      -0.911   1.401   1.094  0.00  0.00    +0.005 C 
ATOM     12  C   UNL     1      -0.178   0.966  -0.178  0.00  0.00    +0.005 C 
ATOM     13  C   UNL     1      -0.866   1.569  -1.404  0.00  0.00    +0.037 C 
BRANCH   5  14
ATOM     14  C   UNL     1      -1.380   3.567  -3.665  0.00  0.00    +0.196 C 
ATOM     15  O   UNL     1      -0.412   3.578  -4.403  0.00  0.00    -0.287 OA
BRANCH  14  19
ATOM     16  C   UNL     1      -5.141   2.227  -5.117  0.00  0.00    +0.000 A 
ATOM     17  C   UNL     1      -4.020   2.137  -5.923  0.00  0.00    +0.001 A 
ATOM     18  C   UNL     1      -2.796   2.570  -5.457  0.00  0.00    +0.012 A 
ATOM     19  C   UNL     1      -2.690   3.101  -4.171  0.00  0.00    +0.022 A 
ATOM     20  C   UNL     1      -3.824   3.184  -3.361  0.00  0.00    +0.012 A 
ATOM     21  C   UNL     1      -5.043   2.752  -3.841  0.00  0.00    +0.001 A 
ENDBRANCH  14  19
ENDBRANCH   5  14
ENDBRANCH   1   9
BRANCH   2  22
ATOM     22  C   UNL     1      -1.788   8.873  -3.191  0.00  0.00    +0.019 C 
BRANCH  22  34
ATOM     23  C   UNL     1      -2.776  10.210  -1.429  0.00  0.00    -0.059 C 
ATOM     24  C   UNL     1      -2.594  11.478  -0.593  0.00  0.00    +0.089 C 
ATOM     25  N   UNL     1      -2.593  12.650  -1.479  0.00  0.00    -0.303 N 
ATOM     26  C   UNL     1      -1.509  12.559  -2.467  0.00  0.00    +0.089 C 
ATOM     27  C   UNL     1      -1.690  11.290  -3.304  0.00  0.00    -0.059 C 
ATOM     28  C   UNL     1      -2.502  13.823  -0.751  0.00  0.00    +0.218 A 
ATOM     29  N   UNL     1      -1.513  14.668  -1.005  0.00  0.00    -0.223 NA
ATOM     30  C   UNL     1      -1.400  15.800  -0.331  0.00  0.00    +0.116 A 
ATOM     31  C   UNL     1      -2.325  16.093   0.659  0.00  0.00    +0.039 A 
ATOM     32  C   UNL     1      -3.344  15.184   0.903  0.00  0.00    +0.116 A 
ATOM     33  N   UNL     1      -3.402  14.073   0.189  0.00  0.00    -0.223 NA
ATOM     34  N   UNL     1      -1.667  10.118  -2.403  0.00  0.00    +0.387 N 
ATOM     35  H   UNL     1      -0.776  10.106  -1.894  0.00  0.00    -0.081 HD
ENDBRANCH  22  34
ENDBRANCH   2  22
TORSDOF 5
