REMARK  Name = ZINC28292790
REMARK  12 active torsions:
REMARK  status: ('A' for Active; 'I' for Inactive)
REMARK    1  A    between atoms: C_1  and  C_2
REMARK    2  A    between atoms: C_2  and  C_3
REMARK    3  A    between atoms: C_2  and  C_4
REMARK    4  A    between atoms: C_2  and  C_5
REMARK    5  A    between atoms: C_8  and  C_11
REMARK    6  A    between atoms: C_11  and  C_13
REMARK    7  A    between atoms: C_11  and  N_32
REMARK    8  A    between atoms: C_13  and  N_14
REMARK    9  A    between atoms: C_15  and  C_17
REMARK   10  A    between atoms: N_22  and  C_24
REMARK   11  A    between atoms: C_27  and  O_30
REMARK   12  A    between atoms: O_30  and  C_31
REMARK                            x       y       z     vdW  Elec       q    Type
REMARK                         _______ _______ _______ _____ _____    ______ ____
ROOT
ATOM      1  N   UNL     1      -0.780   2.326   0.149  0.00  0.00    -0.311 N 
ATOM      2  C   UNL     1       0.510   1.937   0.130  0.00  0.00    +0.268 C 
ATOM      3  O   UNL     1       0.869   0.987   0.798  0.00  0.00    -0.268 OA
ATOM      4  H   UNL     1      -1.104   3.185  -0.456  0.00  0.00    +0.149 HD
ENDROOT
BRANCH   2   5
ATOM      5  C   UNL     1       1.487   2.660  -0.708  0.00  0.00    +0.192 A 
ATOM      6  C   UNL     1       2.899   2.247  -0.739  0.00  0.00    +0.212 A 
ATOM      7  O   UNL     1       3.300   1.302  -0.078  0.00  0.00    -0.285 OA
ATOM      8  C   UNL     1       3.773   2.991  -1.574  0.00  0.00    +0.073 A 
ATOM      9  C   UNL     1       3.252   4.028  -2.271  0.00  0.00    +0.117 A 
ATOM     10  N   UNL     1       1.936   4.339  -2.174  0.00  0.00    -0.239 N 
ATOM     11  N   UNL     1       1.112   3.691  -1.437  0.00  0.00    -0.158 NA
BRANCH  10  12
ATOM     12  C   UNL     1       1.454   5.422  -2.917  0.00  0.00    +0.066 A 
ATOM     13  C   UNL     1       2.341   6.335  -3.472  0.00  0.00    +0.031 A 
ATOM     14  C   UNL     1       1.864   7.401  -4.208  0.00  0.00    +0.048 A 
ATOM     15  C   UNL     1       0.498   7.566  -4.386  0.00  0.00    +0.120 A 
ATOM     16  C   UNL     1      -0.390   6.657  -3.827  0.00  0.00    +0.048 A 
ATOM     17  C   UNL     1       0.086   5.588  -3.094  0.00  0.00    +0.031 A 
BRANCH  15  18
ATOM     18  O   UNL     1       0.029   8.618  -5.107  0.00  0.00    -0.495 OA
ATOM     19  C   UNL     1       0.999   9.514  -5.654  0.00  0.00    +0.277 C 
ENDBRANCH  15  18
ENDBRANCH  10  12
ENDBRANCH   2   5
BRANCH   1  20
ATOM     20  C   UNL     1      -1.750   1.604   0.976  0.00  0.00    +0.094 C 
BRANCH  20  21
ATOM     21  C   UNL     1      -3.090   2.343   0.952  0.00  0.00    -0.020 C 
BRANCH  21  25
ATOM     22  C   UNL     1      -6.087  -0.085   2.787  0.00  0.00    -0.042 A 
ATOM     23  C   UNL     1      -6.092   0.102   1.418  0.00  0.00    +0.004 A 
ATOM     24  C   UNL     1      -5.122   0.888   0.824  0.00  0.00    +0.002 A 
ATOM     25  C   UNL     1      -4.147   1.487   1.600  0.00  0.00    -0.059 A 
ATOM     26  C   UNL     1      -4.140   1.295   2.969  0.00  0.00    +0.002 A 
ATOM     27  C   UNL     1      -5.113   0.514   3.563  0.00  0.00    +0.004 A 
BRANCH  22  29
ATOM     28  C   UNL     1      -7.068  -2.361   2.867  0.00  0.00    +0.015 C 
ATOM     29  C   UNL     1      -7.144  -0.942   3.434  0.00  0.00    -0.013 C 
ATOM     30  C   UNL     1      -6.912  -0.984   4.946  0.00  0.00    +0.015 C 
ATOM     31  C   UNL     1      -8.526  -0.352   3.147  0.00  0.00    +0.015 C 
ENDBRANCH  22  29
ENDBRANCH  21  25
BRANCH  21  32
ATOM     32  N   UNL     1      -2.964   3.607   1.690  0.00  0.00    +0.385 N 
ATOM     33  C   UNL     1      -2.255   4.629   0.878  0.00  0.00    -0.078 C 
ATOM     34  C   UNL     1      -2.672   5.964   1.545  0.00  0.00    -0.020 C 
ATOM     35  C   UNL     1      -4.149   5.713   1.925  0.00  0.00    -0.020 C 
ATOM     36  C   UNL     1      -4.294   4.181   1.988  0.00  0.00    -0.078 C 
ATOM     37  H   UNL     1      -2.415   3.363   2.611  0.00  0.00    -0.081 HD
ENDBRANCH  21  32
ENDBRANCH  20  21
ENDBRANCH   1  20
TORSDOF 8
