REMARK  Name = ZINC09419105
REMARK  10 active torsions:
REMARK  status: ('A' for Active; 'I' for Inactive)
REMARK    1  A    between atoms: C_1  and  C_2
REMARK    2  A    between atoms: C_2  and  C_3
REMARK    3  A    between atoms: C_3  and  N_4
REMARK    4  A    between atoms: C_5  and  C_27
REMARK    5  A    between atoms: C_6  and  C_9
REMARK    6  A    between atoms: C_6  and  N_13
REMARK    7  A    between atoms: N_13  and  S_14
REMARK    8  A    between atoms: S_14  and  C_17
REMARK    9  A    between atoms: C_20  and  N_23
REMARK   10  A    between atoms: C_24  and  C_26
REMARK                            x       y       z     vdW  Elec       q    Type
REMARK                         _______ _______ _______ _____ _____    ______ ____
ROOT
ATOM      1  N   UNL     1       3.471   5.639  -0.621  0.00  0.00    -0.254 N 
ATOM      2  C   UNL     1       3.201   4.291  -0.569  0.00  0.00    +0.110 C 
ATOM      3  C   UNL     1       5.319   4.525   0.107  0.00  0.00    +0.284 C 
ATOM      4  C   UNL     1       4.739   5.885  -0.227  0.00  0.00    +0.272 C 
ATOM      5  O   UNL     1       5.293   6.961  -0.156  0.00  0.00    -0.271 OA
ATOM      6  N   UNL     1       4.212   3.605  -0.157  0.00  0.00    -0.339 N 
ATOM      7  H   UNL     1       4.236   2.586  -0.036  0.00  0.00    +0.163 HD
ENDROOT
BRANCH   2   8
ATOM      8  C   UNL     1       1.895   3.703  -0.940  0.00  0.00    +0.013 A 
ATOM      9  C   UNL     1       1.325   2.707  -0.146  0.00  0.00    +0.011 A 
ATOM     10  C   UNL     1       0.106   2.163  -0.496  0.00  0.00    +0.001 A 
ATOM     11  C   UNL     1      -0.548   2.598  -1.635  0.00  0.00    +0.000 A 
ATOM     12  C   UNL     1       0.010   3.589  -2.423  0.00  0.00    +0.001 A 
ATOM     13  C   UNL     1       1.228   4.141  -2.083  0.00  0.00    +0.011 A 
ENDBRANCH   2   8
BRANCH   3  14
ATOM     14  C   UNL     1       6.514   4.215  -0.796  0.00  0.00    +0.437 C 
ATOM     15  F   UNL     1       7.547   5.122  -0.532  0.00  0.00    -0.166 F 
ATOM     16  F   UNL     1       6.962   2.913  -0.547  0.00  0.00    -0.166 F 
ATOM     17  F   UNL     1       6.128   4.327  -2.136  0.00  0.00    -0.166 F 
ENDBRANCH   3  14
BRANCH   3  18
ATOM     18  N   UNL     1       5.714   4.467   1.517  0.00  0.00    -0.149 NA
ATOM     19  H   UNL     1       6.346   5.112   1.871  0.00  0.00    +0.151 HD
BRANCH  18  20
ATOM     20  S   UNL     1       5.080   3.301   2.507  0.00  0.00    +0.061 S 
ATOM     21  O   UNL     1       5.724   3.443   3.766  0.00  0.00    -0.153 OA
ATOM     22  O   UNL     1       3.668   3.367   2.361  0.00  0.00    -0.153 OA
BRANCH  20  23
ATOM     23  C   UNL     1       5.580   1.740   1.859  0.00  0.00    +0.105 A 
ATOM     24  C   UNL     1       4.731   1.034   1.028  0.00  0.00    +0.030 A 
ATOM     25  C   UNL     1       5.122  -0.188   0.515  0.00  0.00    +0.025 A 
ATOM     26  C   UNL     1       6.366  -0.711   0.843  0.00  0.00    +0.033 A 
ATOM     27  C   UNL     1       7.215  -0.001   1.682  0.00  0.00    +0.025 A 
ATOM     28  C   UNL     1       6.820   1.222   2.188  0.00  0.00    +0.030 A 
BRANCH  26  29
ATOM     29  N   UNL     1       6.763  -1.950   0.328  0.00  0.00    -0.286 N 
ATOM     30  C   UNL     1       7.560  -2.757   1.056  0.00  0.00    +0.214 C 
ATOM     31  O   UNL     1       7.862  -2.450   2.189  0.00  0.00    -0.276 OA
ATOM     32  C   UNL     1       8.076  -4.042   0.460  0.00  0.00    +0.109 C 
ATOM     33  H   UNL     1       6.465  -2.227  -0.552  0.00  0.00    +0.155 HD
ENDBRANCH  26  29
ENDBRANCH  20  23
ENDBRANCH  18  20
ENDBRANCH   3  18
BRANCH   1  34
ATOM     34  C   UNL     1       2.515   6.666  -1.044  0.00  0.00    +0.115 C 
BRANCH  34  36
ATOM     35  C   UNL     1       0.831   8.333  -0.255  0.00  0.00    +0.005 C 
ATOM     36  C   UNL     1       1.829   7.261   0.187  0.00  0.00    +0.016 C 
ENDBRANCH  34  36
ENDBRANCH   1  34
TORSDOF 8
