REMARK  Name = ZINC09410539
REMARK  6 active torsions:
REMARK  status: ('A' for Active; 'I' for Inactive)
REMARK    1  A    between atoms: C_1  and  C_2
REMARK    2  A    between atoms: C_8  and  C_10
REMARK    3  A    between atoms: C_15  and  C_29
REMARK    4  A    between atoms: C_18  and  C_21
REMARK    5  A    between atoms: C_25  and  O_27
REMARK    6  A    between atoms: O_27  and  C_28
REMARK                            x       y       z     vdW  Elec       q    Type
REMARK                         _______ _______ _______ _____ _____    ______ ____
ROOT
ATOM      1  C   UNL     1      -5.202   4.704  -0.040  0.00  0.00    +0.149 A 
ATOM      2  C   UNL     1      -4.825   3.733  -0.995  0.00  0.00    +0.078 A 
ATOM      3  C   UNL     1      -4.090   2.800  -0.358  0.00  0.00    +0.119 A 
ATOM      4  N   UNL     1      -3.998   3.156   0.958  0.00  0.00    -0.238 N 
ATOM      5  N   UNL     1      -4.700   4.348   1.130  0.00  0.00    -0.164 NA
ATOM      6  C   UNL     1      -3.274   2.372   1.963  0.00  0.00    +0.215 C 
ATOM      7  C   UNL     1      -3.088   0.944   1.439  0.00  0.00    +0.063 C 
ATOM      8  C   UNL     1      -2.512   0.980   0.019  0.00  0.00    +0.104 C 
ATOM      9  N   UNL     1      -3.488   1.646  -0.866  0.00  0.00    -0.322 N 
ATOM     10  H   UNL     1      -3.698   1.302  -1.749  0.00  0.00    +0.148 HD
ENDROOT
BRANCH   1  18
ATOM     11  C   UNL     1      -9.041  10.313  -1.473  0.00  0.00    +0.089 C 
ATOM     12  C   UNL     1      -8.272   9.449  -0.507  0.00  0.00    +0.136 A 
ATOM     13  C   UNL     1      -7.623   8.298  -0.793  0.00  0.00    +0.091 A 
ATOM     14  C   UNL     1      -7.074   7.896   0.453  0.00  0.00    +0.168 A 
ATOM     15  N   UNL     1      -7.438   8.802   1.322  0.00  0.00    -0.063 NA
ATOM     16  O   UNL     1      -8.098   9.672   0.803  0.00  0.00    -0.358 OA
ATOM     17  N   UNL     1      -6.306   6.759   0.702  0.00  0.00    -0.262 N 
ATOM     18  C   UNL     1      -6.016   5.909  -0.303  0.00  0.00    +0.270 C 
ATOM     19  O   UNL     1      -6.424   6.133  -1.426  0.00  0.00    -0.268 OA
ATOM     20  H   UNL     1      -5.980   6.580   1.598  0.00  0.00    +0.157 HD
ENDBRANCH   1  18
BRANCH   8  21
ATOM     21  C   UNL     1      -1.218   1.751   0.017  0.00  0.00    -0.024 A 
ATOM     22  C   UNL     1      -1.237   3.133   0.030  0.00  0.00    +0.006 A 
ATOM     23  C   UNL     1      -0.051   3.844   0.022  0.00  0.00    +0.004 A 
ATOM     24  C   UNL     1       1.157   3.173   0.008  0.00  0.00    +0.045 A 
ATOM     25  C   UNL     1       1.179   1.786   0.000  0.00  0.00    +0.120 A 
ATOM     26  C   UNL     1      -0.013   1.076   0.008  0.00  0.00    +0.051 A 
BRANCH  25  27
ATOM     27  O   UNL     1       2.366   1.125  -0.015  0.00  0.00    -0.495 OA
ATOM     28  C   UNL     1       3.553   1.921  -0.021  0.00  0.00    +0.277 C 
ENDBRANCH  25  27
ENDBRANCH   8  21
BRANCH   6  29
ATOM     29  C   UNL     1      -4.078   2.340   3.264  0.00  0.00    +0.412 C 
ATOM     30  F   UNL     1      -5.326   1.754   3.027  0.00  0.00    -0.168 F 
ATOM     31  F   UNL     1      -3.385   1.592   4.222  0.00  0.00    -0.168 F 
ATOM     32  F   UNL     1      -4.259   3.646   3.733  0.00  0.00    -0.168 F 
ENDBRANCH   6  29
TORSDOF 4
