REMARK  Name = ZINC00970291
REMARK  11 active torsions:
REMARK  status: ('A' for Active; 'I' for Inactive)
REMARK    1  A    between atoms: C_1  and  C_2
REMARK    2  A    between atoms: C_2  and  O_3
REMARK    3  A    between atoms: O_3  and  C_4
REMARK    4  A    between atoms: C_5  and  O_31
REMARK    5  A    between atoms: C_7  and  C_12
REMARK    6  A    between atoms: C_9  and  O_10
REMARK    7  A    between atoms: O_10  and  C_11
REMARK    8  A    between atoms: C_15  and  C_26
REMARK    9  A    between atoms: C_21  and  N_25
REMARK   10  A    between atoms: C_22  and  C_23
REMARK   11  A    between atoms: O_31  and  C_32
REMARK                            x       y       z     vdW  Elec       q    Type
REMARK                         _______ _______ _______ _____ _____    ______ ____
ROOT
ATOM      1  C   UNL     1       1.145  -6.067   1.766  0.00  0.00    +0.102 C 
ATOM      2  C   UNL     1       1.202  -6.723   0.411  0.00  0.00    +0.055 A 
ATOM      3  C   UNL     1       0.182  -6.898  -0.531  0.00  0.00    +0.107 A 
ATOM      4  N   UNL     1       0.697  -7.526  -1.574  0.00  0.00    -0.170 NA
ATOM      5  N   UNL     1       2.056  -7.765  -1.318  0.00  0.00    -0.246 N 
ATOM      6  H   UNL     1       2.678  -8.210  -1.915  0.00  0.00    +0.192 HD
ATOM      7  C   UNL     1       2.345  -7.266  -0.098  0.00  0.00    +0.223 A 
ATOM      8  O   UNL     1       3.522  -7.261   0.577  0.00  0.00    -0.423 OA
ATOM      9  C   UNL     1       3.489  -6.950   1.889  0.00  0.00    +0.200 C 
ATOM     10  C   UNL     1       2.419  -6.397   2.504  0.00  0.00    +0.098 C 
ENDROOT
BRANCH   1  14
ATOM     11  C   UNL     1       0.802  -1.826   1.306  0.00  0.00    +0.204 A 
ATOM     12  C   UNL     1      -0.180  -2.535   1.987  0.00  0.00    +0.165 A 
ATOM     13  C   UNL     1      -0.066  -3.909   2.134  0.00  0.00    +0.054 A 
ATOM     14  C   UNL     1       1.024  -4.574   1.604  0.00  0.00    -0.027 A 
ATOM     15  C   UNL     1       2.004  -3.873   0.926  0.00  0.00    +0.054 A 
ATOM     16  C   UNL     1       1.893  -2.499   0.770  0.00  0.00    +0.165 A 
BRANCH  16  17
ATOM     17  O   UNL     1       2.855  -1.811   0.098  0.00  0.00    -0.491 OA
ATOM     18  C   UNL     1       3.948  -2.568  -0.427  0.00  0.00    +0.277 C 
ENDBRANCH  16  17
BRANCH  12  19
ATOM     19  O   UNL     1      -1.253  -1.881   2.509  0.00  0.00    -0.491 OA
ATOM     20  C   UNL     1      -2.224  -2.674   3.196  0.00  0.00    +0.277 C 
ENDBRANCH  12  19
BRANCH  11  21
ATOM     21  O   UNL     1       0.693  -0.477   1.160  0.00  0.00    -0.485 OA
BRANCH  21  23
ATOM     22  C   UNL     1      -0.019   1.526   0.010  0.00  0.00    +0.048 C 
ATOM     23  C   UNL     1       0.002  -0.004   0.002  0.00  0.00    +0.226 C 
ENDBRANCH  21  23
ENDBRANCH  11  21
ENDBRANCH   1  14
BRANCH   3  24
ATOM     24  C   UNL     1      -1.223  -6.459  -0.386  0.00  0.00    +0.040 A 
ATOM     25  C   UNL     1      -2.085  -5.995  -1.342  0.00  0.00    +0.018 A 
ATOM     26  C   UNL     1      -3.363  -5.641  -0.967  0.00  0.00    +0.008 A 
ATOM     27  C   UNL     1      -3.727  -5.762   0.335  0.00  0.00    +0.046 A 
ATOM     28  S   UNL     1      -2.238  -6.404   1.082  0.00  0.00    -0.095 S 
ENDBRANCH   3  24
BRANCH   9  29
ATOM     29  N   UNL     1       4.605  -7.210   2.643  0.00  0.00    -0.328 N 
ATOM     30  H   UNL     1       5.388  -7.607   2.231  0.00  0.00    +0.145 HD
ATOM     31  H   UNL     1       4.611  -6.997   3.590  0.00  0.00    +0.145 HD
ENDBRANCH   9  29
BRANCH  10  32
ATOM     32  C   UNL     1       2.497  -6.114   3.906  0.00  0.00    +0.101 C 
ATOM     33  N   UNL     1       2.560  -5.890   5.018  0.00  0.00    -0.191 NA
ENDBRANCH  10  32
TORSDOF 8
