REMARK  Name = ZINC59490597
REMARK  10 active torsions:
REMARK  status: ('A' for Active; 'I' for Inactive)
REMARK    1  A    between atoms: C_1  and  C_2
REMARK    2  A    between atoms: C_2  and  N_3
REMARK    3  A    between atoms: C_4  and  S_14
REMARK    4  A    between atoms: N_5  and  C_6
REMARK    5  A    between atoms: C_6  and  C_7
REMARK    6  A    between atoms: S_14  and  C_15
REMARK    7  A    between atoms: N_20  and  C_23
REMARK    8  A    between atoms: C_26  and  C_29
REMARK    9  A    between atoms: C_29  and  O_31
REMARK   10  A    between atoms: O_31  and  C_32
REMARK                            x       y       z     vdW  Elec       q    Type
REMARK                         _______ _______ _______ _____ _____    ______ ____
ROOT
ATOM      1  C   UNL     1      -0.804  -2.060   0.772  0.00  0.00    +0.149 C 
ATOM      2  C   UNL     1      -1.655  -2.902   1.745  0.00  0.00    +0.120 C 
ATOM      3  C   UNL     1      -1.146  -2.490   3.109  0.00  0.00    +0.228 C 
ATOM      4  O   UNL     1      -1.550  -2.919   4.169  0.00  0.00    -0.275 OA
ATOM      5  N   UNL     1      -0.177  -1.578   2.961  0.00  0.00    -0.209 N 
ATOM      6  C   UNL     1       0.097  -1.259   1.686  0.00  0.00    +0.240 C 
ATOM      7  O   UNL     1       0.933  -0.459   1.323  0.00  0.00    -0.274 OA
ENDROOT
BRANCH   5   8
ATOM      8  C   UNL     1       0.493  -1.003   4.045  0.00  0.00    +0.044 A 
ATOM      9  C   UNL     1       1.337  -1.781   4.830  0.00  0.00    +0.025 A 
ATOM     10  C   UNL     1       1.999  -1.218   5.898  0.00  0.00    +0.017 A 
ATOM     11  C   UNL     1       1.821   0.136   6.193  0.00  0.00    +0.059 A 
ATOM     12  C   UNL     1       0.973   0.915   5.401  0.00  0.00    +0.017 A 
ATOM     13  C   UNL     1       0.319   0.346   4.331  0.00  0.00    +0.025 A 
BRANCH  11  14
ATOM     14  C   UNL     1       2.528   0.743   7.337  0.00  0.00    +0.339 C 
ATOM     15  O   UNL     1       3.265   0.065   8.025  0.00  0.00    -0.245 OA
BRANCH  14  16
ATOM     16  O   UNL     1       2.356   2.049   7.620  0.00  0.00    -0.464 OA
ATOM     17  C   UNL     1       3.071   2.570   8.742  0.00  0.00    +0.280 C 
ENDBRANCH  14  16
ENDBRANCH  11  14
ENDBRANCH   5   8
BRANCH   1  18
ATOM     18  S   UNL     1       0.178  -3.135  -0.310  0.00  0.00    -0.079 S 
BRANCH  18  20
ATOM     19  N   UNL     1       2.407  -2.053  -1.441  0.00  0.00    -0.326 N 
ATOM     20  C   UNL     1       1.034  -2.011  -1.363  0.00  0.00    +0.129 C 
ATOM     21  N   UNL     1       0.366  -1.141  -2.068  0.00  0.00    -0.364 N 
ATOM     22  H   UNL     1       2.884  -1.381  -1.953  0.00  0.00    +0.148 HD
ATOM     23  H   UNL     1      -0.602  -1.112  -2.013  0.00  0.00    +0.162 HD
BRANCH  19  25
ATOM     24  C   UNL     1       4.635  -3.000  -1.097  0.00  0.00    +0.024 C 
ATOM     25  C   UNL     1       3.148  -3.111  -0.751  0.00  0.00    +0.100 C 
ENDBRANCH  19  25
BRANCH  21  26
ATOM     26  C   UNL     1       1.079  -0.206  -2.944  0.00  0.00    +0.150 C 
BRANCH  26  27
ATOM     27  C   UNL     1       0.084   0.686  -3.641  0.00  0.00    -0.028 A 
ATOM     28  C   UNL     1      -0.451   0.306  -4.858  0.00  0.00    +0.007 A 
ATOM     29  C   UNL     1      -1.363   1.124  -5.497  0.00  0.00    +0.020 A 
ATOM     30  C   UNL     1      -1.740   2.324  -4.920  0.00  0.00    +0.041 A 
ATOM     31  C   UNL     1      -1.204   2.703  -3.702  0.00  0.00    +0.020 A 
ATOM     32  C   UNL     1      -0.297   1.881  -3.061  0.00  0.00    +0.007 A 
ATOM     33 CL   UNL     1      -2.885   3.352  -5.723  0.00  0.00    -0.084 Cl
ENDBRANCH  26  27
ENDBRANCH  21  26
ENDBRANCH  18  20
ENDBRANCH   1  18
TORSDOF 8
