REMARK  Name = ZINC12734808
REMARK  8 active torsions:
REMARK  status: ('A' for Active; 'I' for Inactive)
REMARK    1  A    between atoms: C_1  and  O_2
REMARK    2  A    between atoms: O_2  and  C_3
REMARK    3  A    between atoms: N_15  and  C_19
REMARK    4  A    between atoms: C_19  and  C_20
REMARK    5  A    between atoms: C_20  and  C_22
REMARK    6  A    between atoms: C_20  and  O_34
REMARK    7  A    between atoms: C_22  and  O_23
REMARK    8  A    between atoms: O_23  and  C_24
REMARK                            x       y       z     vdW  Elec       q    Type
REMARK                         _______ _______ _______ _____ _____    ______ ____
ROOT
ATOM      1  C   UNL     1       9.582  -2.202   1.628  0.00  0.00    +0.120 A 
ATOM      2  C   UNL     1       8.526  -1.420   1.181  0.00  0.00    +0.046 A 
ATOM      3  C   UNL     1       8.738  -0.092   0.881  0.00  0.00    +0.010 A 
ATOM      4  C   UNL     1      10.000   0.473   1.022  0.00  0.00    -0.012 A 
ATOM      5  C   UNL     1      11.050  -0.301   1.468  0.00  0.00    -0.038 A 
ATOM      6  C   UNL     1      10.839  -1.639   1.769  0.00  0.00    +0.049 A 
ATOM      7  C   UNL     1      12.438   0.252   1.655  0.00  0.00    +0.036 C 
ATOM      8  C   UNL     1      12.609   1.555   0.876  0.00  0.00    +0.008 C 
ATOM      9  C   UNL     1      11.456   2.496   1.246  0.00  0.00    +0.040 C 
ATOM     10  C   UNL     1      10.165   1.926   0.673  0.00  0.00    +0.138 C 
ATOM     11  C   UNL     1       8.979   2.723   1.170  0.00  0.00    +0.251 C 
ATOM     12  O   UNL     1       8.620   2.865   2.319  0.00  0.00    -0.272 OA
ATOM     13  N   UNL     1       8.404   3.242   0.066  0.00  0.00    -0.221 N 
ATOM     14  C   UNL     1       9.063   2.890  -1.045  0.00  0.00    +0.310 C 
ATOM     15  O   UNL     1       8.738   3.239  -2.163  0.00  0.00    -0.252 OA
ATOM     16  N   UNL     1      10.127   2.107  -0.785  0.00  0.00    -0.281 N 
ATOM     17  H   UNL     1      10.747   1.736  -1.432  0.00  0.00    +0.152 HD
ENDROOT
BRANCH   1  19
ATOM     18  C   UNL     1       8.060  -4.024   1.754  0.00  0.00    +0.277 C 
ATOM     19  O   UNL     1       9.384  -3.513   1.925  0.00  0.00    -0.495 OA
ENDBRANCH   1  19
BRANCH  13  20
ATOM     20  C   UNL     1       7.209   4.090   0.081  0.00  0.00    +0.152 C 
BRANCH  20  21
ATOM     21  C   UNL     1       5.960   3.214  -0.037  0.00  0.00    +0.170 C 
BRANCH  21  22
ATOM     22  O   UNL     1       6.008   2.480  -1.262  0.00  0.00    -0.387 OA
ATOM     23  H   UNL     1       6.042   3.035  -2.053  0.00  0.00    +0.210 HD
ENDBRANCH  21  22
BRANCH  21  24
ATOM     24  C   UNL     1       4.713   4.100  -0.022  0.00  0.00    +0.262 C 
BRANCH  24  25
ATOM     25  O   UNL     1       3.545   3.277  -0.014  0.00  0.00    -0.489 OA
BRANCH  25  26
ATOM     26  C   UNL     1       2.344   3.912  -0.000  0.00  0.00    +0.128 A 
ATOM     27  C   UNL     1       2.287   5.277   0.005  0.00  0.00    +0.046 A 
ATOM     28  C   UNL     1       1.065   5.942   0.021  0.00  0.00    +0.004 A 
ATOM     29  C   UNL     1      -0.110   5.253   0.029  0.00  0.00    +0.009 A 
ATOM     30  C   UNL     1      -0.095   3.848   0.023  0.00  0.00    -0.014 A 
ATOM     31  C   UNL     1       1.148   3.167   0.008  0.00  0.00    +0.024 A 
ATOM     32  C   UNL     1       1.163   1.762   0.000  0.00  0.00    +0.012 A 
ATOM     33  C   UNL     1      -0.013   1.076   0.008  0.00  0.00    +0.001 A 
ATOM     34  C   UNL     1      -1.234   1.746   0.017  0.00  0.00    +0.001 A 
ATOM     35  C   UNL     1      -1.288   3.106   0.030  0.00  0.00    +0.008 A 
ENDBRANCH  25  26
ENDBRANCH  24  25
ENDBRANCH  21  24
ENDBRANCH  20  21
ENDBRANCH  13  20
TORSDOF 7
