REMARK  Name = ZINC58491298
REMARK  3 active torsions:
REMARK  status: ('A' for Active; 'I' for Inactive)
REMARK    1  A    between atoms: C_1  and  C_2
REMARK    2  A    between atoms: C_2  and  C_3
REMARK    3  A    between atoms: C_4  and  C_9
REMARK                            x       y       z     vdW  Elec       q    Type
REMARK                         _______ _______ _______ _____ _____    ______ ____
ROOT
ATOM      1  C   UNL     1      -1.863  -0.448  -2.494  0.00  0.00    +0.250 C 
ATOM      2  O   UNL     1      -2.132  -0.741  -1.345  0.00  0.00    -0.270 OA
ATOM      3  N   UNL     1      -2.792  -0.588  -3.461  0.00  0.00    -0.293 N 
ATOM      4  C   UNL     1      -4.166  -1.000  -3.134  0.00  0.00    +0.114 C 
ATOM      5  C   UNL     1      -5.127   0.141  -3.484  0.00  0.00    +0.072 C 
ATOM      6  C   UNL     1      -4.777   0.678  -4.851  0.00  0.00    +0.023 A 
ATOM      7  C   UNL     1      -3.592   0.472  -5.466  0.00  0.00    -0.002 A 
ATOM      8  C   UNL     1      -3.648   1.147  -6.745  0.00  0.00    +0.006 A 
ATOM      9  C   UNL     1      -2.728   1.279  -7.790  0.00  0.00    +0.030 A 
ATOM     10  C   UNL     1      -3.131   2.010  -8.882  0.00  0.00    +0.042 A 
ATOM     11  C   UNL     1      -4.386   2.592  -8.956  0.00  0.00    +0.022 A 
ATOM     12  C   UNL     1      -5.315   2.477  -7.936  0.00  0.00    +0.027 A 
ATOM     13  C   UNL     1      -4.934   1.742  -6.816  0.00  0.00    +0.047 A 
ATOM     14  N   UNL     1      -5.587   1.437  -5.656  0.00  0.00    -0.358 N 
ATOM     15  H   UNL     1      -6.490   1.716  -5.435  0.00  0.00    +0.166 HD
ATOM     16 CL   UNL     1      -2.032   2.208 -10.211  0.00  0.00    -0.084 Cl
ATOM     17  C   UNL     1      -2.462  -0.326  -4.873  0.00  0.00    +0.145 C 
ENDROOT
BRANCH   1  19
ATOM     18  C   UNL     1       0.204   0.994  -2.118  0.00  0.00    +0.048 A 
ATOM     19  C   UNL     1      -0.520   0.060  -2.831  0.00  0.00    +0.077 A 
ATOM     20  C   UNL     1       0.265  -0.319  -3.942  0.00  0.00    +0.147 A 
ATOM     21  N   UNL     1       1.385   0.349  -3.891  0.00  0.00    -0.181 NA
ATOM     22  N   UNL     1       1.367   1.179  -2.764  0.00  0.00    -0.281 N 
ATOM     23  H   UNL     1       2.075   1.784  -2.494  0.00  0.00    +0.189 HD
BRANCH  18  25
ATOM     24  C   UNL     1       0.111   0.805   0.353  0.00  0.00    +0.010 C 
ATOM     25  C   UNL     1      -0.232   1.685  -0.852  0.00  0.00    +0.052 C 
ENDBRANCH  18  25
ENDBRANCH   1  19
TORSDOF 2
