REMARK  Name = ZINC28852531
REMARK  8 active torsions:
REMARK  status: ('A' for Active; 'I' for Inactive)
REMARK    1  A    between atoms: C_1  and  C_2
REMARK    2  A    between atoms: C_2  and  C_4
REMARK    3  A    between atoms: C_2  and  S_17
REMARK    4  A    between atoms: N_6  and  C_7
REMARK    5  A    between atoms: C_9  and  N_14
REMARK    6  A    between atoms: S_17  and  C_18
REMARK    7  A    between atoms: C_21  and  C_29
REMARK    8  A    between atoms: N_22  and  C_23
REMARK                            x       y       z     vdW  Elec       q    Type
REMARK                         _______ _______ _______ _____ _____    ______ ____
ROOT
ATOM      1  C   UNL     1      -2.800   0.722   1.606  0.00  0.00    +0.029 C 
ATOM      2  C   UNL     1      -2.482   0.977   0.131  0.00  0.00    +0.137 C 
ENDROOT
BRANCH   2   3
ATOM      3  C   UNL     1      -1.154   1.681   0.018  0.00  0.00    +0.230 C 
ATOM      4  O   UNL     1      -1.113   2.890  -0.064  0.00  0.00    -0.274 OA
ATOM      5  N   UNL     1      -0.011   0.966   0.007  0.00  0.00    -0.283 N 
ATOM      6  H   UNL     1      -0.050  -0.133  -0.009  0.00  0.00    +0.155 HD
BRANCH   5   7
ATOM      7  C   UNL     1       1.225   1.622   0.017  0.00  0.00    +0.054 A 
ATOM      8  C   UNL     1       1.328   2.905   0.539  0.00  0.00    +0.057 A 
ATOM      9  C   UNL     1       2.550   3.550   0.547  0.00  0.00    +0.128 A 
ATOM     10  C   UNL     1       3.670   2.920   0.035  0.00  0.00    +0.034 A 
ATOM     11  C   UNL     1       3.571   1.643  -0.486  0.00  0.00    +0.024 A 
ATOM     12  C   UNL     1       2.353   0.990  -0.492  0.00  0.00    +0.062 A 
ATOM     13 CL   UNL     1       2.232  -0.616  -1.140  0.00  0.00    -0.082 Cl
BRANCH   9  14
ATOM     14  N   UNL     1       2.660   4.916   1.104  0.00  0.00    +0.056 N 
ATOM     15  O   UNL     1       1.674   5.471   1.556  0.00  0.00    -0.126 OA
ATOM     16  O   UNL     1       3.736   5.486   1.111  0.00  0.00    -0.126 OA
ENDBRANCH   9  14
ENDBRANCH   5   7
ENDBRANCH   2   3
BRANCH   2  17
ATOM     17  S   UNL     1      -3.776   2.012  -0.595  0.00  0.00    -0.073 S 
BRANCH  17  18
ATOM     18  C   UNL     1      -5.151   0.917  -0.470  0.00  0.00    +0.197 A 
ATOM     19  N   UNL     1      -5.138  -0.297   0.030  0.00  0.00    -0.122 NA
ATOM     20  N   UNL     1      -6.315  -0.810  -0.037  0.00  0.00    -0.133 NA
ATOM     21  C   UNL     1      -7.144   0.037  -0.578  0.00  0.00    +0.142 A 
ATOM     22  N   UNL     1      -6.434   1.172  -0.869  0.00  0.00    -0.274 N 
BRANCH  22  23
ATOM     23  C   UNL     1      -6.921   2.349  -1.456  0.00  0.00    +0.050 A 
ATOM     24  C   UNL     1      -7.858   3.124  -0.787  0.00  0.00    +0.026 A 
ATOM     25  C   UNL     1      -8.331   4.286  -1.365  0.00  0.00    +0.002 A 
ATOM     26  C   UNL     1      -7.881   4.670  -2.615  0.00  0.00    +0.000 A 
ATOM     27  C   UNL     1      -6.952   3.897  -3.286  0.00  0.00    +0.002 A 
ATOM     28  C   UNL     1      -6.471   2.737  -2.710  0.00  0.00    +0.026 A 
ENDBRANCH  22  23
BRANCH  21  29
ATOM     29  C   UNL     1      -8.612  -0.188  -0.831  0.00  0.00    +0.057 C 
ATOM     30  C   UNL     1      -9.247  -1.447  -0.237  0.00  0.00    +0.012 C 
ATOM     31  C   UNL     1      -9.002  -1.351  -1.745  0.00  0.00    +0.012 C 
ENDBRANCH  21  29
ENDBRANCH  17  18
ENDBRANCH   2  17
TORSDOF 7
