REMARK  Name = ZINC63780745
REMARK  7 active torsions:
REMARK  status: ('A' for Active; 'I' for Inactive)
REMARK    1  A    between atoms: C_7  and  C_10
REMARK    2  A    between atoms: C_13  and  S_22
REMARK    3  A    between atoms: N_14  and  C_15
REMARK    4  A    between atoms: C_15  and  C_16
REMARK    5  A    between atoms: S_22  and  C_23
REMARK    6  A    between atoms: C_23  and  C_24
REMARK    7  A    between atoms: N_26  and  C_27
REMARK                            x       y       z     vdW  Elec       q    Type
REMARK                         _______ _______ _______ _____ _____    ______ ____
ROOT
ATOM      1  C   UNL     1       0.677  -3.132   0.038  0.00  0.00    +0.163 A 
ATOM      2  N   UNL     1      -0.646  -3.068   0.042  0.00  0.00    -0.129 NA
ATOM      3  N   UNL     1      -1.138  -4.256   0.031  0.00  0.00    -0.122 NA
ATOM      4  C   UNL     1      -0.164  -5.153   0.020  0.00  0.00    +0.192 A 
ATOM      5  N   UNL     1       1.016  -4.474   0.018  0.00  0.00    -0.300 N 
ENDROOT
BRANCH   1  12
ATOM      6  C   UNL     1      -0.011   1.351   0.102  0.00  0.00    +0.001 A 
ATOM      7  C   UNL     1       1.169   2.098   0.105  0.00  0.00    +0.002 A 
ATOM      8  C   UNL     1       2.389   1.508   0.089  0.00  0.00    +0.026 A 
ATOM      9  C   UNL     1       2.488   0.092   0.069  0.00  0.00    +0.043 A 
ATOM     10  N   UNL     1       3.535  -0.708   0.051  0.00  0.00    -0.380 N 
ATOM     11  C   UNL     1       3.079  -2.102   0.036  0.00  0.00    +0.152 C 
ATOM     12  C   UNL     1       1.567  -2.046   0.047  0.00  0.00    +0.025 C 
ATOM     13  C   UNL     1       1.241  -0.690   0.068  0.00  0.00    +0.006 A 
ATOM     14  C   UNL     1       0.006  -0.006   0.084  0.00  0.00    +0.010 A 
ATOM     15  H   UNL     1       4.462  -0.421   0.048  0.00  0.00    +0.160 HD
ENDBRANCH   1  12
BRANCH   5  16
ATOM     16  C   UNL     1       2.365  -5.045   0.000  0.00  0.00    +0.157 C 
BRANCH  16  17
ATOM     17  C   UNL     1       2.845  -5.263   1.437  0.00  0.00    +0.138 C 
ATOM     18  C   UNL     1       4.310  -5.751   1.431  0.00  0.00    +0.035 C 
ATOM     19  C   UNL     1       4.310  -6.808   2.570  0.00  0.00    +0.031 C 
ATOM     20  C   UNL     1       2.883  -7.394   2.427  0.00  0.00    +0.160 C 
ATOM     21  O   UNL     1       2.052  -6.277   2.066  0.00  0.00    -0.375 OA
ENDBRANCH  16  17
ENDBRANCH   5  16
BRANCH   4  22
ATOM     22  S   UNL     1      -0.358  -6.904   0.003  0.00  0.00    -0.077 S 
BRANCH  22  23
ATOM     23  C   UNL     1      -2.156  -7.145   0.004  0.00  0.00    +0.173 C 
BRANCH  23  24
ATOM     24  C   UNL     1      -2.465  -8.620  -0.011  0.00  0.00    +0.228 C 
ATOM     25  O   UNL     1      -1.561  -9.429  -0.020  0.00  0.00    -0.275 OA
ATOM     26  N   UNL     1      -3.746  -9.041  -0.012  0.00  0.00    -0.283 N 
ATOM     27  H   UNL     1      -4.468  -8.397   0.061  0.00  0.00    +0.155 HD
BRANCH  26  28
ATOM     28  C   UNL     1      -4.034 -10.408  -0.120  0.00  0.00    +0.069 A 
ATOM     29  C   UNL     1      -3.193 -11.344   0.465  0.00  0.00    +0.029 A 
ATOM     30  C   UNL     1      -3.478 -12.691   0.358  0.00  0.00    +0.040 A 
ATOM     31  C   UNL     1      -4.604 -13.110  -0.332  0.00  0.00    +0.126 A 
ATOM     32  C   UNL     1      -5.446 -12.179  -0.917  0.00  0.00    +0.078 A 
ATOM     33  C   UNL     1      -5.167 -10.829  -0.807  0.00  0.00    +0.147 A 
ATOM     34  F   UNL     1      -5.992  -9.920  -1.373  0.00  0.00    -0.203 F 
ATOM     35  F   UNL     1      -4.881 -14.428  -0.434  0.00  0.00    -0.205 F 
ENDBRANCH  26  28
ENDBRANCH  23  24
ENDBRANCH  22  23
ENDBRANCH   4  22
TORSDOF 7
