REMARK  Name = ZINC57613743
REMARK  5 active torsions:
REMARK  status: ('A' for Active; 'I' for Inactive)
REMARK    1  A    between atoms: C_1  and  C_2
REMARK    2  A    between atoms: C_14  and  C_15
REMARK    3  A    between atoms: N_17  and  C_18
REMARK    4  A    between atoms: C_23  and  C_28
REMARK    5  A    between atoms: C_25  and  C_27
REMARK                            x       y       z     vdW  Elec       q    Type
REMARK                         _______ _______ _______ _____ _____    ______ ____
ROOT
ATOM      1  C   UNL     1      -0.018   1.503   0.010  0.00  0.00    +0.046 C 
ATOM      2  C   UNL     1       0.002  -0.004   0.002  0.00  0.00    -0.017 A 
ATOM      3  C   UNL     1       0.005  -0.697  -1.211  0.00  0.00    +0.076 A 
ATOM      4  C   UNL     1       0.024  -2.107  -1.113  0.00  0.00    +0.116 A 
ATOM      5  N   UNL     1       0.028  -2.878  -2.190  0.00  0.00    -0.226 NA
ATOM      6  C   UNL     1       0.014  -2.384  -3.404  0.00  0.00    +0.114 A 
ATOM      7  N   UNL     1      -0.008  -1.045  -3.625  0.00  0.00    -0.296 N 
ATOM      8  C   UNL     1      -0.009  -0.171  -2.592  0.00  0.00    +0.263 A 
ATOM      9  O   UNL     1      -0.022   1.030  -2.796  0.00  0.00    -0.267 OA
ATOM     10  C   UNL     1      -0.029  -0.753  -5.071  0.00  0.00    +0.127 C 
ATOM     11  C   UNL     1       0.428  -2.053  -5.764  0.00  0.00    +0.029 C 
ATOM     12  C   UNL     1       0.018  -3.124  -4.730  0.00  0.00    +0.076 C 
ATOM     13  S   UNL     1       0.038  -2.395   0.638  0.00  0.00    -0.064 S 
ATOM     14  C   UNL     1       0.023  -0.694   1.179  0.00  0.00    +0.079 A 
ENDROOT
BRANCH  14  15
ATOM     15  C   UNL     1       0.030  -0.168   2.547  0.00  0.00    +0.251 C 
ATOM     16  O   UNL     1       0.017   1.034   2.738  0.00  0.00    -0.270 OA
ATOM     17  N   UNL     1       0.052  -1.016   3.595  0.00  0.00    -0.308 N 
ATOM     18  H   UNL     1       0.063  -1.974   3.443  0.00  0.00    +0.149 HD
BRANCH  17  19
ATOM     19  C   UNL     1       0.060  -0.491   4.962  0.00  0.00    +0.076 C 
ATOM     20  C   UNL     1      -1.377  -0.209   5.408  0.00  0.00    +0.022 C 
ATOM     21  C   UNL     1      -1.369   0.339   6.837  0.00  0.00    +0.002 C 
ATOM     22  C   UNL     1      -0.736  -0.691   7.775  0.00  0.00    +0.003 C 
ATOM     23  C   UNL     1       0.700  -0.972   7.329  0.00  0.00    -0.009 C 
ATOM     24  C   UNL     1       0.692  -1.521   5.901  0.00  0.00    +0.009 C 
ATOM     25  C   UNL     1       2.128  -1.802   5.455  0.00  0.00    +0.009 C 
ATOM     26  C   UNL     1       1.511   0.324   7.373  0.00  0.00    +0.008 C 
ENDBRANCH  17  19
ENDBRANCH  14  15
TORSDOF 2
