REMARK  Name = ZINC63205606
REMARK  3 active torsions:
REMARK  status: ('A' for Active; 'I' for Inactive)
REMARK    1  A    between atoms: C_8  and  C_12
REMARK    2  A    between atoms: C_12  and  S_13
REMARK    3  A    between atoms: S_13  and  C_14
REMARK                            x       y       z     vdW  Elec       q    Type
REMARK                         _______ _______ _______ _____ _____    ______ ____
ROOT
ATOM      1  C   UNL     1       2.640  -4.181  -0.045  0.00  0.00    +0.115 C 
ENDROOT
BRANCH   1   9
ATOM      2  C   UNL     1      -0.016   1.357   0.009  0.00  0.00    +0.001 A 
ATOM      3  C   UNL     1       1.170   2.088   0.002  0.00  0.00    +0.002 A 
ATOM      4  C   UNL     1       2.379   1.465  -0.013  0.00  0.00    +0.028 A 
ATOM      5  C   UNL     1       2.439   0.060  -0.021  0.00  0.00    +0.073 A 
ATOM      6  C   UNL     1       1.232  -0.681  -0.013  0.00  0.00    +0.001 A 
ATOM      7  C   UNL     1       0.002  -0.004   0.002  0.00  0.00    +0.010 A 
ATOM      8  C   UNL     1       1.294  -2.088  -0.021  0.00  0.00    +0.017 A 
ATOM      9  C   UNL     1       2.525  -2.679  -0.036  0.00  0.00    +0.000 A 
ATOM     10  C   UNL     1       3.675  -1.890  -0.043  0.00  0.00    +0.134 A 
ATOM     11  N   UNL     1       3.613  -0.580  -0.035  0.00  0.00    -0.235 NA
ATOM     12 CL   UNL     1       5.230  -2.663  -0.062  0.00  0.00    -0.062 Cl
ENDBRANCH   1   9
BRANCH   1  13
ATOM     13  S   UNL     1       2.670  -4.776  -1.758  0.00  0.00    -0.084 S 
BRANCH  13  14
ATOM     14  C   UNL     1       2.805  -6.525  -1.600  0.00  0.00    +0.182 C 
ATOM     15  N   UNL     1       2.850  -7.025  -0.377  0.00  0.00    -0.155 NA
ATOM     16  C   UNL     1       2.951  -8.334  -0.153  0.00  0.00    +0.245 C 
ATOM     17  O   UNL     1       2.991  -8.783   0.976  0.00  0.00    -0.273 OA
ATOM     18  C   UNL     1       3.015  -9.242  -1.368  0.00  0.00    +0.169 C 
ATOM     19  C   UNL     1       2.955  -8.552  -2.718  0.00  0.00    +0.104 C 
ATOM     20  N   UNL     1       2.850  -7.242  -2.724  0.00  0.00    -0.213 NA
ATOM     21  N   UNL     1       3.004  -9.257  -3.869  0.00  0.00    -0.346 N 
ATOM     22  H   UNL     1       3.078 -10.224  -3.843  0.00  0.00    +0.143 HD
ATOM     23  H   UNL     1       2.964  -8.797  -4.722  0.00  0.00    +0.143 HD
ENDBRANCH  13  14
ENDBRANCH   1  13
TORSDOF 3
