REMARK  Name = ZINC50586257
REMARK  9 active torsions:
REMARK  status: ('A' for Active; 'I' for Inactive)
REMARK    1  A    between atoms: C_1  and  C_2
REMARK    2  A    between atoms: C_2  and  C_3
REMARK    3  A    between atoms: C_3  and  C_5
REMARK    4  A    between atoms: C_3  and  N_21
REMARK    5  A    between atoms: C_5  and  C_7
REMARK    6  A    between atoms: C_5  and  N_13
REMARK    7  A    between atoms: C_8  and  C_12
REMARK    8  A    between atoms: C_14  and  C_20
REMARK    9  A    between atoms: C_16  and  C_18
REMARK                            x       y       z     vdW  Elec       q    Type
REMARK                         _______ _______ _______ _____ _____    ______ ____
ROOT
ATOM      1  C   UNL     1      -1.413  -2.059   0.130  0.00  0.00    +0.130 C 
ENDROOT
BRANCH   1   2
ATOM      2  N   UNL     1      -0.849  -2.442   1.427  0.00  0.00    -0.261 N 
ATOM      3  C   UNL     1      -1.473  -3.163   2.383  0.00  0.00    +0.055 A 
ATOM      4  C   UNL     1      -0.616  -3.299   3.422  0.00  0.00    +0.084 A 
ATOM      5  C   UNL     1       0.572  -2.639   3.089  0.00  0.00    +0.078 A 
ATOM      6  N   UNL     1       0.435  -2.129   1.892  0.00  0.00    -0.174 NA
ATOM      7  C   UNL     1       1.799  -2.537   3.957  0.00  0.00    +0.069 C 
ATOM      8 CL   UNL     1      -0.934  -4.143   4.905  0.00  0.00    -0.080 Cl
ATOM      9  C   UNL     1      -2.873  -3.716   2.308  0.00  0.00    +0.067 C 
ENDBRANCH   1   2
BRANCH   1  10
ATOM     10  C   UNL     1      -0.568  -2.637  -0.976  0.00  0.00    +0.015 A 
ATOM     11  C   UNL     1      -0.923  -3.496  -1.962  0.00  0.00    -0.038 A 
ATOM     12  C   UNL     1       0.030  -3.896  -2.879  0.00  0.00    +0.011 A 
ATOM     13  C   UNL     1       1.293  -3.417  -2.764  0.00  0.00    +0.046 A 
ATOM     14  S   UNL     1       1.160  -2.361  -1.331  0.00  0.00    -0.099 S 
ATOM     15  C   UNL     1      -2.338  -4.008  -2.057  0.00  0.00    +0.044 C 
ENDBRANCH   1  10
BRANCH   1  16
ATOM     16  C   UNL     1      -1.433  -0.534   0.013  0.00  0.00    -0.045 C 
BRANCH  16  17
ATOM     17  N   UNL     1      -2.107  -0.147  -1.234  0.00  0.00    +0.382 N 
ATOM     18  H   UNL     1      -1.610  -0.539  -2.020  0.00  0.00    -0.090 HD
ATOM     19  H   UNL     1      -3.054  -0.496  -1.227  0.00  0.00    -0.090 HD
ATOM     20  H   UNL     1      -2.120   0.859  -1.311  0.00  0.00    -0.090 HD
ENDBRANCH  16  17
BRANCH  16  22
ATOM     21  C   UNL     1      -0.019   1.526   0.010  0.00  0.00    +0.002 C 
ATOM     22  C   UNL     1       0.002  -0.004   0.002  0.00  0.00    -0.017 C 
ENDBRANCH  16  22
ENDBRANCH   1  16
TORSDOF 5
