REMARK  Name = ZINC04162300
REMARK  8 active torsions:
REMARK  status: ('A' for Active; 'I' for Inactive)
REMARK    1  A    between atoms: C_1  and  C_2
REMARK    2  A    between atoms: C_8  and  N_10
REMARK    3  A    between atoms: C_11  and  C_13
REMARK    4  A    between atoms: C_13  and  N_14
REMARK    5  A    between atoms: C_17  and  C_21
REMARK    6  A    between atoms: C_17  and  C_22
REMARK    7  A    between atoms: C_25  and  O_28
REMARK    8  A    between atoms: O_28  and  C_29
REMARK                            x       y       z     vdW  Elec       q    Type
REMARK                         _______ _______ _______ _____ _____    ______ ____
ROOT
ATOM      1  N   UNL     1       3.562   1.887  -0.022  0.00  0.00    -0.215 N 
ATOM      2  C   UNL     1       4.142   2.381   1.090  0.00  0.00    +0.251 C 
ATOM      3  O   UNL     1       3.861   2.119   2.240  0.00  0.00    -0.272 OA
ATOM      4  C   UNL     1       5.218   3.332   0.604  0.00  0.00    +0.135 C 
ATOM      5  N   UNL     1       5.109   3.256  -0.863  0.00  0.00    -0.281 N 
ATOM      6  C   UNL     1       4.120   2.385  -1.131  0.00  0.00    +0.310 C 
ATOM      7  O   UNL     1       3.770   2.086  -2.256  0.00  0.00    -0.252 OA
ATOM      8  C   UNL     1       4.941   4.754   1.095  0.00  0.00    +0.047 C 
ATOM      9  H   UNL     1       5.649   3.737  -1.509  0.00  0.00    +0.152 HD
ENDROOT
BRANCH   4  10
ATOM     10  C   UNL     1       6.578   2.870   1.060  0.00  0.00    -0.015 A 
ATOM     11  C   UNL     1       6.708   2.172   2.246  0.00  0.00    +0.010 A 
ATOM     12  C   UNL     1       7.954   1.743   2.663  0.00  0.00    +0.046 A 
ATOM     13  C   UNL     1       9.075   2.024   1.897  0.00  0.00    +0.127 A 
ATOM     14  C   UNL     1       8.943   2.730   0.710  0.00  0.00    +0.046 A 
ATOM     15  C   UNL     1       7.694   3.151   0.294  0.00  0.00    +0.010 A 
BRANCH  13  16
ATOM     16  O   UNL     1      10.302   1.608   2.307  0.00  0.00    -0.434 OA
BRANCH  16  17
ATOM     17  C   UNL     1      10.364   0.886   3.539  0.00  0.00    +0.541 C 
ATOM     18  F   UNL     1       9.873   1.689   4.575  0.00  0.00    -0.166 F 
ATOM     19  F   UNL     1       9.587  -0.273   3.440  0.00  0.00    -0.166 F 
ENDBRANCH  16  17
ENDBRANCH  13  16
ENDBRANCH   4  10
BRANCH   1  20
ATOM     20  C   UNL     1       2.462   0.920  -0.017  0.00  0.00    +0.213 C 
BRANCH  20  22
ATOM     21  N   UNL     1      -0.011   0.966   0.007  0.00  0.00    -0.311 N 
ATOM     22  C   UNL     1       1.147   1.655   0.000  0.00  0.00    +0.231 C 
ATOM     23  O   UNL     1       1.130   2.868   0.007  0.00  0.00    -0.274 OA
ATOM     24  H   UNL     1       0.002  -0.004   0.002  0.00  0.00    +0.149 HD
BRANCH  21  31
ATOM     25  C   UNL     1      -1.999   0.442  -2.033  0.00  0.00    +0.009 C 
ATOM     26  C   UNL     1      -2.376   0.792  -0.592  0.00  0.00    +0.006 C 
ATOM     27  C   UNL     1      -3.711   1.539  -0.582  0.00  0.00    +0.005 C 
ATOM     28  C   UNL     1      -4.088   1.890   0.859  0.00  0.00    +0.000 C 
ATOM     29  C   UNL     1      -3.002   2.779   1.468  0.00  0.00    +0.002 C 
ATOM     30  C   UNL     1      -1.667   2.032   1.458  0.00  0.00    +0.022 C 
ATOM     31  C   UNL     1      -1.290   1.681   0.017  0.00  0.00    +0.076 C 
ENDBRANCH  21  31
ENDBRANCH  20  22
ENDBRANCH   1  20
TORSDOF 6
