REMARK  Name = ZINC21325218
REMARK  7 active torsions:
REMARK  status: ('A' for Active; 'I' for Inactive)
REMARK    1  A    between atoms: C_1  and  C_2
REMARK    2  A    between atoms: C_2  and  C_20
REMARK    3  A    between atoms: N_3  and  N_4
REMARK    4  A    between atoms: C_8  and  S_11
REMARK    5  A    between atoms: N_9  and  N_10
REMARK    6  A    between atoms: S_11  and  C_12
REMARK    7  A    between atoms: C_12  and  C_13
REMARK                            x       y       z     vdW  Elec       q    Type
REMARK                         _______ _______ _______ _____ _____    ______ ____
ROOT
ATOM      1  N   UNL     1       1.635   3.143   0.003  0.00  0.00    -0.204 N 
ATOM      2  C   UNL     1       1.224   1.819   0.000  0.00  0.00    +0.254 A 
ATOM      3  N   UNL     1      -0.017   1.397   0.010  0.00  0.00    -0.109 NA
ATOM      4  N   UNL     1       0.002  -0.004   0.002  0.00  0.00    -0.119 NA
ATOM      5  C   UNL     1       1.255  -0.392  -0.012  0.00  0.00    +0.210 A 
ATOM      6  N   UNL     1       2.043   0.724  -0.014  0.00  0.00    -0.211 N 
ATOM      7  H   UNL     1       2.708   3.387  -0.006  0.00  0.00    +0.178 HD
ENDROOT
BRANCH   1  10
ATOM      8  C   UNL     1       2.539   5.748   0.009  0.00  0.00    +0.068 C 
ATOM      9  C   UNL     1       1.069   5.414   0.021  0.00  0.00    +0.070 C 
ATOM     10  N   UNL     1       0.684   4.172   0.018  0.00  0.00    -0.184 NA
BRANCH   9  11
ATOM     11  C   UNL     1       0.073   6.491   0.037  0.00  0.00    +0.035 A 
ATOM     12  C   UNL     1      -1.308   6.402   0.051  0.00  0.00    +0.017 A 
ATOM     13  C   UNL     1      -2.038   7.569   0.065  0.00  0.00    +0.008 A 
ATOM     14  C   UNL     1      -1.387   8.761   0.066  0.00  0.00    +0.046 A 
ATOM     15  S   UNL     1       0.326   8.258   0.052  0.00  0.00    -0.095 S 
ENDBRANCH   9  11
ENDBRANCH   1  10
BRANCH   6  16
ATOM     16  N   UNL     1       3.409   0.742  -0.026  0.00  0.00    -0.294 N 
ATOM     17  H   UNL     1       3.971  -0.203  -0.037  0.00  0.00    +0.163 HD
ATOM     18  H   UNL     1       3.946   1.702  -0.026  0.00  0.00    +0.163 HD
ENDBRANCH   6  16
BRANCH   5  19
ATOM     19  S   UNL     1       1.822  -2.061  -0.026  0.00  0.00    -0.080 S 
BRANCH  19  20
ATOM     20  C   UNL     1       0.296  -3.043  -0.017  0.00  0.00    +0.112 C 
BRANCH  20  21
ATOM     21  C   UNL     1       0.643  -4.509  -0.028  0.00  0.00    -0.037 A 
ATOM     22  C   UNL     1       0.785  -5.177  -1.230  0.00  0.00    +0.006 A 
ATOM     23  C   UNL     1       1.109  -6.520  -1.240  0.00  0.00    +0.020 A 
ATOM     24  C   UNL     1       1.279  -7.200  -0.047  0.00  0.00    +0.041 A 
ATOM     25  C   UNL     1       1.131  -6.533   1.155  0.00  0.00    +0.020 A 
ATOM     26  C   UNL     1       0.813  -5.188   1.165  0.00  0.00    +0.006 A 
ATOM     27 CL   UNL     1       1.679  -8.889  -0.060  0.00  0.00    -0.084 Cl
ENDBRANCH  20  21
ENDBRANCH  19  20
ENDBRANCH   5  19
TORSDOF 6
