REMARK  Name = ZINC59489262
REMARK  7 active torsions:
REMARK  status: ('A' for Active; 'I' for Inactive)
REMARK    1  A    between atoms: C_1  and  C_2
REMARK    2  A    between atoms: C_2  and  C_25
REMARK    3  A    between atoms: N_3  and  N_4
REMARK    4  A    between atoms: C_5  and  S_7
REMARK    5  A    between atoms: S_7  and  C_8
REMARK    6  A    between atoms: N_13  and  C_16
REMARK    7  A    between atoms: C_19  and  C_22
REMARK                            x       y       z     vdW  Elec       q    Type
REMARK                         _______ _______ _______ _____ _____    ______ ____
ROOT
ATOM      1  S   UNL     1      -0.062   0.568   5.294  0.00  0.00    -0.078 S 
ENDROOT
BRANCH   1   2
ATOM      2  C   UNL     1      -0.001  -0.957   6.275  0.00  0.00    +0.149 C 
ATOM      3  C   UNL     1       0.231  -0.635   7.765  0.00  0.00    +0.120 C 
ATOM      4  C   UNL     1      -1.008  -1.181   8.442  0.00  0.00    +0.228 C 
ATOM      5  O   UNL     1      -1.235  -1.135   9.632  0.00  0.00    -0.275 OA
ATOM      6  N   UNL     1      -1.813  -1.720   7.519  0.00  0.00    -0.209 N 
ATOM      7  C   UNL     1      -1.344  -1.653   6.263  0.00  0.00    +0.240 C 
ATOM      8  O   UNL     1      -1.907  -2.078   5.277  0.00  0.00    -0.274 OA
BRANCH   6   9
ATOM      9  C   UNL     1      -3.040  -2.308   7.837  0.00  0.00    +0.044 A 
ATOM     10  C   UNL     1      -4.086  -1.520   8.305  0.00  0.00    +0.025 A 
ATOM     11  C   UNL     1      -5.296  -2.096   8.619  0.00  0.00    +0.017 A 
ATOM     12  C   UNL     1      -5.473  -3.475   8.466  0.00  0.00    +0.063 A 
ATOM     13  C   UNL     1      -4.419  -4.264   7.995  0.00  0.00    +0.017 A 
ATOM     14  C   UNL     1      -3.213  -3.679   7.678  0.00  0.00    +0.025 A 
BRANCH  12  15
ATOM     15  C   UNL     1      -6.767  -4.095   8.802  0.00  0.00    +0.387 C 
ATOM     16  O   UNL     1      -7.688  -3.403   9.214  0.00  0.00    -0.241 OA
ATOM     17  O   UNL     1      -6.920  -5.301   8.668  0.00  0.00    -0.241 OA
ENDBRANCH  12  15
ENDBRANCH   6   9
ENDBRANCH   1   2
BRANCH   1  19
ATOM     18  N   UNL     1      -0.327   0.909   2.603  0.00  0.00    -0.217 N 
ATOM     19  C   UNL     1      -0.245   0.001   3.636  0.00  0.00    +0.146 C 
ATOM     20  N   UNL     1      -0.302  -1.278   3.386  0.00  0.00    -0.380 N 
ATOM     21  H   UNL     1      -0.284   1.860   2.789  0.00  0.00    +0.176 HD
ATOM     22  H   UNL     1      -0.244  -1.917   4.113  0.00  0.00    +0.158 HD
ATOM     23  H   UNL     1      -0.402  -1.589   2.473  0.00  0.00    +0.158 HD
BRANCH  18  26
ATOM     24  C   UNL     1      -0.483   2.792   0.601  0.00  0.00    +0.068 C 
ATOM     25  C   UNL     1      -0.549   1.314   0.312  0.00  0.00    +0.063 C 
ATOM     26  N   UNL     1      -0.472   0.459   1.285  0.00  0.00    -0.185 NA
BRANCH  25  27
ATOM     27  C   UNL     1      -0.702   0.840  -1.076  0.00  0.00    -0.002 A 
ATOM     28  C   UNL     1      -0.780   1.758  -2.126  0.00  0.00    +0.011 A 
ATOM     29  C   UNL     1      -0.923   1.308  -3.422  0.00  0.00    +0.016 A 
ATOM     30  C   UNL     1      -0.990  -0.051  -3.683  0.00  0.00    +0.018 A 
ATOM     31  C   UNL     1      -0.913  -0.966  -2.647  0.00  0.00    +0.016 A 
ATOM     32  C   UNL     1      -0.764  -0.529  -1.347  0.00  0.00    +0.011 A 
ATOM     33 BR   UNL     1      -1.186  -0.658  -5.463  0.00  0.00    -0.050 Br
ENDBRANCH  25  27
ENDBRANCH  18  26
ENDBRANCH   1  19
TORSDOF 6
