REMARK  Name = ZINC65848524
REMARK  11 active torsions:
REMARK  status: ('A' for Active; 'I' for Inactive)
REMARK    1  A    between atoms: C_1  and  C_2
REMARK    2  A    between atoms: C_2  and  O_3
REMARK    3  A    between atoms: O_3  and  C_4
REMARK    4  A    between atoms: C_4  and  C_6
REMARK    5  A    between atoms: C_8  and  C_11
REMARK    6  A    between atoms: C_11  and  S_12
REMARK    7  A    between atoms: S_12  and  C_13
REMARK    8  A    between atoms: C_16  and  O_18
REMARK    9  A    between atoms: O_18  and  C_19
REMARK   10  A    between atoms: C_19  and  C_20
REMARK   11  A    between atoms: C_19  and  C_21
REMARK                            x       y       z     vdW  Elec       q    Type
REMARK                         _______ _______ _______ _____ _____    ______ ____
ROOT
ATOM      1  C   UNL     1       2.536  -5.287  -4.407  0.00  0.00    +0.132 C 
ENDROOT
BRANCH   1   4
ATOM      2  C   UNL     1       1.452  -2.346  -2.522  0.00  0.00    +0.186 A 
ATOM      3  N   UNL     1       1.653  -3.613  -2.866  0.00  0.00    -0.237 NA
ATOM      4  C   UNL     1       2.287  -3.862  -3.981  0.00  0.00    +0.060 A 
ATOM      5  C   UNL     1       2.723  -2.832  -4.757  0.00  0.00    +0.071 A 
ATOM      6  S   UNL     1       2.213  -1.484  -3.887  0.00  0.00    -0.069 S 
BRANCH   2   7
ATOM      7  C   UNL     1       0.776  -1.799  -1.335  0.00  0.00    +0.365 C 
ATOM      8  O   UNL     1       0.312  -2.551  -0.500  0.00  0.00    -0.243 OA
BRANCH   7   9
ATOM      9  O   UNL     1       0.671  -0.465  -1.174  0.00  0.00    -0.460 OA
BRANCH   9  11
ATOM     10  C   UNL     1      -0.019   1.526   0.010  0.00  0.00    +0.048 C 
ATOM     11  C   UNL     1       0.002  -0.004   0.002  0.00  0.00    +0.229 C 
ENDBRANCH   9  11
ENDBRANCH   7   9
ENDBRANCH   2   7
ENDBRANCH   1   4
BRANCH   1  12
ATOM     12  S   UNL     1       1.149  -5.866  -5.422  0.00  0.00    -0.091 S 
BRANCH  12  13
ATOM     13  C   UNL     1       1.585  -7.522  -5.834  0.00  0.00    +0.162 A 
ATOM     14  N   UNL     1       2.656  -8.214  -5.496  0.00  0.00    -0.131 NA
ATOM     15  N   UNL     1       2.798  -9.511  -5.932  0.00  0.00    -0.103 NA
ATOM     16  C   UNL     1       1.865 -10.057  -6.685  0.00  0.00    +0.278 A 
ATOM     17  S   UNL     1       0.691  -8.718  -6.815  0.00  0.00    -0.002 S 
BRANCH  16  18
ATOM     18  O   UNL     1       1.810 -11.304  -7.216  0.00  0.00    -0.468 OA
BRANCH  18  19
ATOM     19  C   UNL     1       2.905 -12.178  -6.936  0.00  0.00    +0.170 C 
ATOM     20  C   UNL     1       2.412 -13.626  -6.919  0.00  0.00    +0.052 C 
ATOM     21  C   UNL     1       3.975 -12.017  -8.019  0.00  0.00    +0.052 C 
ENDBRANCH  18  19
ENDBRANCH  16  18
ENDBRANCH  12  13
ENDBRANCH   1  12
TORSDOF 8
