REMARK  Name = ZINC21588196
REMARK  7 active torsions:
REMARK  status: ('A' for Active; 'I' for Inactive)
REMARK    1  A    between atoms: C_1  and  O_2
REMARK    2  A    between atoms: O_2  and  C_3
REMARK    3  A    between atoms: C_6  and  N_18
REMARK    4  A    between atoms: C_8  and  S_9
REMARK    5  A    between atoms: S_9  and  N_12
REMARK    6  A    between atoms: C_19  and  C_21
REMARK    7  A    between atoms: C_24  and  C_26
REMARK                            x       y       z     vdW  Elec       q    Type
REMARK                         _______ _______ _______ _____ _____    ______ ____
ROOT
ATOM      1  C   UNL     1       0.923   6.311   0.295  0.00  0.00    +0.146 A 
ATOM      2  C   UNL     1      -0.239   5.553   0.309  0.00  0.00    +0.049 A 
ATOM      3  C   UNL     1      -0.169   4.178   0.206  0.00  0.00    +0.027 A 
ATOM      4  C   UNL     1       1.067   3.553   0.101  0.00  0.00    +0.036 A 
ATOM      5  C   UNL     1       2.230   4.312   0.088  0.00  0.00    +0.055 A 
ATOM      6  C   UNL     1       2.157   5.688   0.185  0.00  0.00    +0.149 A 
ENDROOT
BRANCH   4   7
ATOM      7  N   UNL     1       1.140   2.158   0.003  0.00  0.00    -0.280 N 
ATOM      8  C   UNL     1       2.164   1.494   0.575  0.00  0.00    +0.267 C 
ATOM      9  O   UNL     1       3.067   2.112   1.108  0.00  0.00    -0.268 OA
ATOM     10  H   UNL     1       0.361   1.603  -0.541  0.00  0.00    +0.155 HD
BRANCH   8  11
ATOM     11  C   UNL     1       2.188   0.022   0.559  0.00  0.00    +0.133 A 
ATOM     12  C   UNL     1       3.227  -0.662   1.138  0.00  0.00    +0.080 A 
ATOM     13  S   UNL     1       2.766  -2.310   0.843  0.00  0.00    -0.075 S 
ATOM     14  C   UNL     1       1.239  -1.980  -0.022  0.00  0.00    +0.110 A 
ATOM     15  N   UNL     1       1.204  -0.660  -0.011  0.00  0.00    -0.234 NA
BRANCH  14  16
ATOM     16  C   UNL     1       0.267  -2.934  -0.595  0.00  0.00    +0.014 A 
ATOM     17  C   UNL     1       0.475  -4.311  -0.502  0.00  0.00    +0.018 A 
ATOM     18  C   UNL     1      -0.455  -5.125  -1.049  0.00  0.00    +0.046 A 
ATOM     19  S   UNL     1      -1.640  -3.965  -1.704  0.00  0.00    -0.104 S 
ATOM     20  C   UNL     1      -0.862  -2.492  -1.225  0.00  0.00    +0.055 A 
ENDBRANCH  14  16
ENDBRANCH   8  11
ENDBRANCH   4   7
BRANCH   6  21
ATOM     21  S   UNL     1       3.632   6.651   0.169  0.00  0.00    +0.064 S 
ATOM     22  O   UNL     1       3.541   7.552   1.264  0.00  0.00    -0.153 OA
ATOM     23  O   UNL     1       4.711   5.739   0.021  0.00  0.00    -0.153 OA
BRANCH  21  24
ATOM     24  N   UNL     1       3.600   7.573  -1.206  0.00  0.00    -0.176 NA
ATOM     25  C   UNL     1       4.185   7.072  -2.457  0.00  0.00    +0.109 C 
ATOM     26  C   UNL     1       3.124   7.165  -3.564  0.00  0.00    +0.017 C 
ATOM     27  C   UNL     1       2.605   8.602  -3.645  0.00  0.00    +0.003 C 
ATOM     28  C   UNL     1       1.949   8.985  -2.317  0.00  0.00    +0.017 C 
ATOM     29  C   UNL     1       2.991   8.910  -1.197  0.00  0.00    +0.109 C 
ENDBRANCH  21  24
ENDBRANCH   6  21
BRANCH   1  31
ATOM     30  C   UNL     1      -0.451   8.241   0.501  0.00  0.00    +0.277 C 
ATOM     31  O   UNL     1       0.852   7.666   0.391  0.00  0.00    -0.493 OA
ENDBRANCH   1  31
TORSDOF 6
