REMARK  Name = ZINC40052291
REMARK  14 active torsions:
REMARK  status: ('A' for Active; 'I' for Inactive)
REMARK    1  A    between atoms: C_1  and  C_2
REMARK    2  A    between atoms: C_2  and  C_3
REMARK    3  A    between atoms: C_3  and  C_4
REMARK    4  A    between atoms: C_4  and  O_5
REMARK    5  A    between atoms: O_5  and  C_6
REMARK    6  A    between atoms: C_9  and  C_13
REMARK    7  A    between atoms: C_11  and  C_12
REMARK    8  A    between atoms: C_13  and  C_15
REMARK    9  A    between atoms: N_19  and  C_29
REMARK   10  A    between atoms: C_20  and  C_22
REMARK   11  A    between atoms: C_26  and  O_28
REMARK   12  A    between atoms: C_29  and  C_30
REMARK   13  A    between atoms: C_30  and  C_31
REMARK   14  A    between atoms: C_31  and  O_32
REMARK                            x       y       z     vdW  Elec       q    Type
REMARK                         _______ _______ _______ _____ _____    ______ ____
ROOT
ATOM      1  C   UNL     1      -2.147  -9.007  -0.133  0.00  0.00    +0.076 C 
ATOM      2  C   UNL     1      -1.979 -10.348  -0.204  0.00  0.00    +0.249 C 
ATOM      3  C   UNL     1      -0.535 -10.659  -0.175  0.00  0.00    +0.288 C 
ATOM      4  O   UNL     1      -0.061 -11.777  -0.224  0.00  0.00    -0.266 OA
ATOM      5  N   UNL     1       0.178  -9.521  -0.087  0.00  0.00    -0.283 N 
ATOM      6  C   UNL     1      -0.767  -8.398  -0.060  0.00  0.00    +0.145 C 
ATOM      7  O   UNL     1      -2.976 -11.260  -0.289  0.00  0.00    -0.282 OA
ENDROOT
BRANCH   6   8
ATOM      8  C   UNL     1      -0.536  -7.494  -1.244  0.00  0.00    -0.019 A 
ATOM      9  C   UNL     1      -0.416  -8.033  -2.512  0.00  0.00    +0.006 A 
ATOM     10  C   UNL     1      -0.204  -7.207  -3.600  0.00  0.00    +0.004 A 
ATOM     11  C   UNL     1      -0.112  -5.840  -3.423  0.00  0.00    +0.045 A 
ATOM     12  C   UNL     1      -0.232  -5.297  -2.152  0.00  0.00    +0.117 A 
ATOM     13  C   UNL     1      -0.451  -6.128  -1.062  0.00  0.00    +0.051 A 
BRANCH  12  14
ATOM     14  O   UNL     1      -0.142  -3.952  -1.975  0.00  0.00    -0.507 OA
ATOM     15  H   UNL     1      -0.988  -3.489  -2.038  0.00  0.00    +0.292 HD
ENDBRANCH  12  14
ENDBRANCH   6   8
BRANCH   1  16
ATOM     16  C   UNL     1      -3.423  -8.284  -0.133  0.00  0.00    +0.195 C 
ATOM     17  O   UNL     1      -4.157  -8.345  -1.103  0.00  0.00    -0.287 OA
BRANCH  16  21
ATOM     18  C   UNL     1      -4.559  -5.981   3.249  0.00  0.00    +0.123 A 
ATOM     19  C   UNL     1      -3.383  -6.723   3.279  0.00  0.00    +0.046 A 
ATOM     20  C   UNL     1      -3.012  -7.471   2.185  0.00  0.00    +0.015 A 
ATOM     21  C   UNL     1      -3.818  -7.484   1.042  0.00  0.00    +0.023 A 
ATOM     22  C   UNL     1      -4.999  -6.736   1.017  0.00  0.00    +0.018 A 
ATOM     23  C   UNL     1      -5.366  -5.995   2.117  0.00  0.00    -0.008 A 
ATOM     24  C   UNL     1      -6.642  -5.193   2.093  0.00  0.00    +0.047 C 
BRANCH  18  25
ATOM     25  O   UNL     1      -4.922  -5.245   4.330  0.00  0.00    -0.492 OA
BRANCH  25  26
ATOM     26  C   UNL     1      -4.046  -5.275   5.459  0.00  0.00    +0.229 C 
BRANCH  26  27
ATOM     27  C   UNL     1      -4.617  -4.392   6.571  0.00  0.00    +0.041 C 
BRANCH  27  29
ATOM     28  C   UNL     1      -4.251  -3.542   8.891  0.00  0.00    +0.004 C 
ATOM     29  C   UNL     1      -3.680  -4.425   7.779  0.00  0.00    -0.000 C 
ENDBRANCH  27  29
ENDBRANCH  26  27
ENDBRANCH  25  26
ENDBRANCH  18  25
ENDBRANCH  16  21
ENDBRANCH   1  16
BRANCH   5  30
ATOM     30  C   UNL     1       1.639  -9.421  -0.034  0.00  0.00    +0.111 C 
BRANCH  30  31
ATOM     31  C   UNL     1       2.193  -9.303  -1.455  0.00  0.00    +0.047 C 
BRANCH  31  32
ATOM     32  C   UNL     1       3.719  -9.198  -1.400  0.00  0.00    +0.157 C 
BRANCH  32  33
ATOM     33  O   UNL     1       4.237  -9.088  -2.727  0.00  0.00    -0.395 OA
ATOM     34  H   UNL     1       5.201  -9.017  -2.768  0.00  0.00    +0.209 HD
ENDBRANCH  32  33
ENDBRANCH  31  32
ENDBRANCH  30  31
ENDBRANCH   5  30
TORSDOF 12
