REMARK  Name = ZINC63280479
REMARK  7 active torsions:
REMARK  status: ('A' for Active; 'I' for Inactive)
REMARK    1  A    between atoms: C_1  and  C_2
REMARK    2  A    between atoms: C_2  and  C_3
REMARK    3  A    between atoms: C_3  and  N_20
REMARK    4  A    between atoms: N_10  and  C_13
REMARK    5  A    between atoms: N_20  and  C_21
REMARK    6  A    between atoms: C_21  and  C_22
REMARK    7  A    between atoms: C_22  and  C_23
REMARK                            x       y       z     vdW  Elec       q    Type
REMARK                         _______ _______ _______ _____ _____    ______ ____
ROOT
ATOM      1  C   UNL     1       0.474  -0.877  -0.985  0.00  0.00    +0.021 C 
ATOM      2  C   UNL     1       1.843  -0.960  -1.162  0.00  0.00    +0.116 C 
ATOM      3  C   UNL     1       2.781  -0.613  -0.079  0.00  0.00    +0.258 C 
ATOM      4  O   UNL     1       2.373  -0.242   1.006  0.00  0.00    -0.270 OA
ATOM      5  N   UNL     1       4.103  -0.717  -0.323  0.00  0.00    -0.235 N 
ATOM      6  C   UNL     1       4.566  -1.124  -1.513  0.00  0.00    +0.320 C 
ATOM      7  O   UNL     1       5.769  -1.197  -1.669  0.00  0.00    -0.251 OA
ATOM      8  N   UNL     1       3.772  -1.456  -2.541  0.00  0.00    -0.190 N 
ATOM      9  C   UNL     1       2.428  -1.405  -2.439  0.00  0.00    +0.265 C 
ATOM     10  O   UNL     1       1.718  -1.712  -3.378  0.00  0.00    -0.269 OA
ATOM     11  H   UNL     1       4.734  -0.493   0.379  0.00  0.00    +0.159 HD
ENDROOT
BRANCH   8  12
ATOM     12  C   UNL     1       4.352  -1.871  -3.748  0.00  0.00    +0.048 A 
ATOM     13  C   UNL     1       4.213  -1.093  -4.890  0.00  0.00    +0.024 A 
ATOM     14  C   UNL     1       4.785  -1.503  -6.078  0.00  0.00    +0.005 A 
ATOM     15  C   UNL     1       5.496  -2.688  -6.133  0.00  0.00    +0.038 A 
ATOM     16  C   UNL     1       5.637  -3.466  -4.996  0.00  0.00    +0.125 A 
ATOM     17  C   UNL     1       5.071  -3.057  -3.802  0.00  0.00    +0.062 A 
ATOM     18  F   UNL     1       6.332  -4.623  -5.052  0.00  0.00    -0.205 F 
ENDBRANCH   8  12
BRANCH   1  20
ATOM     19  C   UNL     1      -0.238  -1.351   1.342  0.00  0.00    +0.010 C 
ATOM     20  C   UNL     1      -0.088  -0.267   0.273  0.00  0.00    +0.048 C 
ENDBRANCH   1  20
BRANCH   1  21
ATOM     21  N   UNL     1      -0.358  -1.343  -1.938  0.00  0.00    -0.346 N 
ATOM     22  H   UNL     1       0.003  -1.772  -2.730  0.00  0.00    +0.146 HD
BRANCH  21  23
ATOM     23  C   UNL     1      -1.807  -1.200  -1.779  0.00  0.00    +0.105 C 
BRANCH  23  24
ATOM     24  C   UNL     1      -2.516  -1.806  -2.992  0.00  0.00    +0.052 C 
BRANCH  24  25
ATOM     25  C   UNL     1      -4.006  -1.659  -2.828  0.00  0.00    -0.040 C 
ATOM     26  C   UNL     1      -4.786  -0.673  -3.327  0.00  0.00    -0.001 A 
ATOM     27  C   UNL     1      -4.490   0.514  -4.138  0.00  0.00    +0.010 A 
ATOM     28  C   UNL     1      -5.504   1.337  -4.491  0.00  0.00    +0.001 A 
ATOM     29  C   UNL     1      -6.827   1.086  -4.101  0.00  0.00    +0.002 A 
ATOM     30  C   UNL     1      -7.176   0.017  -3.355  0.00  0.00    +0.026 A 
ATOM     31  C   UNL     1      -6.191  -0.916  -2.928  0.00  0.00    +0.043 A 
ATOM     32  N   UNL     1      -6.277  -2.010  -2.211  0.00  0.00    -0.380 N 
ATOM     33  C   UNL     1      -4.935  -2.589  -2.079  0.00  0.00    +0.144 C 
ATOM     34  H   UNL     1      -7.091  -2.378  -1.835  0.00  0.00    +0.160 HD
ENDBRANCH  24  25
ENDBRANCH  23  24
ENDBRANCH  21  23
ENDBRANCH   1  21
TORSDOF 6
