REMARK  Name = ZINC13778885
REMARK  2 active torsions:
REMARK  status: ('A' for Active; 'I' for Inactive)
REMARK    1  A    between atoms: C_3  and  C_8
REMARK    2  A    between atoms: N_14  and  C_15
REMARK                            x       y       z     vdW  Elec       q    Type
REMARK                         _______ _______ _______ _____ _____    ______ ____
ROOT
ATOM      1  C   UNL     1       3.631   2.022   1.174  0.00  0.00    +0.028 C 
ATOM      2  C   UNL     1       4.814   1.399   0.945  0.00  0.00    +0.078 C 
ATOM      3  C   UNL     1       6.166   1.977   0.807  0.00  0.00    +0.256 C 
ATOM      4  O   UNL     1       6.359   3.175   0.895  0.00  0.00    -0.269 OA
ATOM      5  N   UNL     1       7.159   1.132   0.585  0.00  0.00    -0.260 N 
ATOM      6  C   UNL     1       6.920  -0.222   0.489  0.00  0.00    +0.166 C 
ATOM      7  N   UNL     1       7.782  -1.190   0.274  0.00  0.00    -0.224 NA
ATOM      8  S   UNL     1       5.156  -0.342   0.738  0.00  0.00    -0.049 S 
ATOM      9  H   UNL     1       8.063   1.468   0.487  0.00  0.00    +0.157 HD
ENDROOT
BRANCH   7  10
ATOM     10  C   UNL     1       7.342  -2.477   0.121  0.00  0.00    +0.085 A 
ATOM     11  C   UNL     1       6.292  -2.760  -0.756  0.00  0.00    +0.031 A 
ATOM     12  C   UNL     1       5.853  -4.059  -0.906  0.00  0.00    +0.022 A 
ATOM     13  C   UNL     1       6.451  -5.082  -0.189  0.00  0.00    +0.042 A 
ATOM     14  C   UNL     1       7.493  -4.810   0.681  0.00  0.00    +0.042 A 
ATOM     15  C   UNL     1       7.945  -3.515   0.836  0.00  0.00    +0.068 A 
ATOM     16 CL   UNL     1       9.256  -3.176   1.923  0.00  0.00    -0.081 Cl
ATOM     17 CL   UNL     1       5.892  -6.714  -0.384  0.00  0.00    -0.083 Cl
ENDBRANCH   7  10
BRANCH   1  20
ATOM     18  C   UNL     1       1.397  -0.852   2.075  0.00  0.00    +0.003 A 
ATOM     19  C   UNL     1       2.534  -0.114   1.820  0.00  0.00    +0.008 A 
ATOM     20  C   UNL     1       2.424   1.230   1.447  0.00  0.00    -0.021 A 
ATOM     21  C   UNL     1       1.158   1.816   1.336  0.00  0.00    +0.046 A 
ATOM     22  C   UNL     1       0.029   1.065   1.595  0.00  0.00    +0.124 A 
ATOM     23  C   UNL     1       0.148  -0.267   1.964  0.00  0.00    +0.038 A 
ATOM     24  F   UNL     1      -1.195   1.628   1.490  0.00  0.00    -0.205 F 
ENDBRANCH   1  20
TORSDOF 2
