REMARK  Name = ZINC39665677
REMARK  10 active torsions:
REMARK  status: ('A' for Active; 'I' for Inactive)
REMARK    1  A    between atoms: C_1  and  C_2
REMARK    2  A    between atoms: C_2  and  C_4
REMARK    3  A    between atoms: C_2  and  O_28
REMARK    4  A    between atoms: C_4  and  N_5
REMARK    5  A    between atoms: C_6  and  C_8
REMARK    6  A    between atoms: C_19  and  C_21
REMARK    7  A    between atoms: C_21  and  C_27
REMARK    8  A    between atoms: O_28  and  C_29
REMARK    9  A    between atoms: C_32  and  O_35
REMARK   10  A    between atoms: O_35  and  C_36
REMARK                            x       y       z     vdW  Elec       q    Type
REMARK                         _______ _______ _______ _____ _____    ______ ____
ROOT
ATOM      1  C   UNL     1       0.673  -3.732   3.051  0.00  0.00    +0.100 C 
ATOM      2  C   UNL     1      -0.729  -4.368   3.180  0.00  0.00    +0.121 C 
ATOM      3  N   UNL     1      -0.566  -5.429   4.202  0.00  0.00    -0.300 N 
ATOM      4  C   UNL     1       0.339  -4.832   5.213  0.00  0.00    +0.115 C 
ATOM      5  C   UNL     1       1.371  -4.038   4.387  0.00  0.00    -0.004 C 
ATOM      6  C   UNL     1       2.619  -4.883   4.150  0.00  0.00    -0.010 C 
ATOM      7  C   UNL     1       3.326  -5.126   5.487  0.00  0.00    -0.082 C 
ATOM      8  N   UNL     1       3.689  -3.839   6.092  0.00  0.00    +0.379 N 
ATOM      9  C   UNL     1       2.477  -3.071   6.401  0.00  0.00    -0.082 C 
ATOM     10  C   UNL     1       1.734  -2.741   5.104  0.00  0.00    -0.010 C 
ATOM     11  C   UNL     1      -1.116  -6.660   4.209  0.00  0.00    +0.222 C 
ATOM     12  O   UNL     1      -0.943  -7.395   5.158  0.00  0.00    -0.275 OA
ATOM     13  H   UNL     1       4.208  -4.003   6.941  0.00  0.00    -0.086 HD
ATOM     14  H   UNL     1       4.261  -3.315   5.447  0.00  0.00    -0.086 HD
ENDROOT
BRANCH  11  15
ATOM     15  C   UNL     1      -1.946  -7.122   3.039  0.00  0.00    +0.044 C 
ATOM     16  C   UNL     1      -3.101  -6.143   2.816  0.00  0.00    +0.016 C 
ATOM     17  C   UNL     1      -3.974  -6.090   4.071  0.00  0.00    +0.001 C 
ATOM     18  C   UNL     1      -4.535  -7.483   4.362  0.00  0.00    +0.000 C 
ATOM     19  C   UNL     1      -3.380  -8.461   4.585  0.00  0.00    +0.001 C 
ATOM     20  C   UNL     1      -2.507  -8.515   3.330  0.00  0.00    +0.016 C 
ATOM     21  C   UNL     1      -1.073  -7.175   1.784  0.00  0.00    +0.021 C 
ENDBRANCH  11  15
BRANCH   1  23
ATOM     22  N   UNL     1       1.507  -1.581   2.158  0.00  0.00    -0.312 N 
ATOM     23  C   UNL     1       0.558  -2.243   2.849  0.00  0.00    +0.218 C 
ATOM     24  O   UNL     1      -0.390  -1.641   3.307  0.00  0.00    -0.275 OA
ATOM     25  H   UNL     1       2.265  -2.063   1.791  0.00  0.00    +0.149 HD
BRANCH  22  26
ATOM     26  C   UNL     1       1.395  -0.134   1.961  0.00  0.00    +0.148 C 
BRANCH  26  28
ATOM     27  C   UNL     1       2.475   1.877   0.945  0.00  0.00    +0.053 C 
ATOM     28  C   UNL     1       2.592   0.365   1.151  0.00  0.00    +0.187 C 
BRANCH  28  29
ATOM     29  O   UNL     1       3.800   0.073   1.857  0.00  0.00    -0.488 OA
BRANCH  29  30
ATOM     30  C   UNL     1       4.936  -0.036   1.117  0.00  0.00    +0.121 A 
ATOM     31  C   UNL     1       6.120  -0.433   1.720  0.00  0.00    +0.049 A 
ATOM     32  C   UNL     1       7.274  -0.544   0.969  0.00  0.00    +0.049 A 
ATOM     33  C   UNL     1       7.249  -0.260  -0.388  0.00  0.00    +0.120 A 
ATOM     34  C   UNL     1       6.064   0.136  -0.991  0.00  0.00    +0.049 A 
ATOM     35  C   UNL     1       4.909   0.243  -0.241  0.00  0.00    +0.049 A 
BRANCH  33  36
ATOM     36  O   UNL     1       8.385  -0.368  -1.127  0.00  0.00    -0.495 OA
ATOM     37  C   UNL     1       8.286  -0.059  -2.518  0.00  0.00    +0.277 C 
ENDBRANCH  33  36
ENDBRANCH  29  30
ENDBRANCH  28  29
ENDBRANCH  26  28
ENDBRANCH  22  26
ENDBRANCH   1  23
TORSDOF 7
