REMARK  Name = ZINC54687782
REMARK  12 active torsions:
REMARK  status: ('A' for Active; 'I' for Inactive)
REMARK    1  A    between atoms: C_1  and  C_2
REMARK    2  A    between atoms: C_2  and  C_3
REMARK    3  A    between atoms: C_2  and  C_4
REMARK    4  A    between atoms: C_2  and  N_5
REMARK    5  A    between atoms: C_6  and  C_8
REMARK    6  A    between atoms: C_8  and  N_9
REMARK    7  A    between atoms: N_9  and  C_10
REMARK    8  A    between atoms: N_13  and  C_14
REMARK    9  A    between atoms: C_14  and  C_15
REMARK   10  A    between atoms: C_15  and  C_20
REMARK   11  A    between atoms: C_25  and  O_26
REMARK   12  A    between atoms: O_26  and  C_27
REMARK                            x       y       z     vdW  Elec       q    Type
REMARK                         _______ _______ _______ _____ _____    ______ ____
ROOT
ATOM      1  N   UNL     1       3.991  -0.161  -2.616  0.00  0.00    -0.280 N 
ATOM      2  C   UNL     1       5.181  -0.787  -2.034  0.00  0.00    +0.134 C 
ATOM      3  C   UNL     1       4.094   1.030  -3.240  0.00  0.00    +0.302 C 
ATOM      4  O   UNL     1       3.094   1.595  -3.638  0.00  0.00    -0.253 OA
ATOM      5  N   UNL     1       5.304   1.593  -3.423  0.00  0.00    -0.298 N 
ATOM      6  H   UNL     1       6.107   1.109  -3.173  0.00  0.00    +0.150 HD
ENDROOT
BRANCH   1   7
ATOM      7  C   UNL     1       2.691  -0.828  -2.520  0.00  0.00    +0.204 C 
BRANCH   7   9
ATOM      8  N   UNL     1       0.774  -0.879  -0.957  0.00  0.00    -0.309 N 
ATOM      9  C   UNL     1       1.994  -0.391  -1.257  0.00  0.00    +0.231 C 
ATOM     10  O   UNL     1       2.531   0.401  -0.511  0.00  0.00    -0.274 OA
ATOM     11  H   UNL     1       0.344  -1.511  -1.554  0.00  0.00    +0.149 HD
BRANCH   8  13
ATOM     12  C   UNL     1      -0.109   1.062   0.240  0.00  0.00    +0.031 C 
ATOM     13  C   UNL     1       0.097  -0.454   0.270  0.00  0.00    +0.026 C 
ATOM     14  C   UNL     1       0.953  -0.829   1.481  0.00  0.00    +0.031 C 
ATOM     15  C   UNL     1      -1.262  -1.150   0.371  0.00  0.00    +0.031 C 
ENDBRANCH   8  13
ENDBRANCH   7   9
ENDBRANCH   1   7
BRANCH   5  16
ATOM     16  C   UNL     1       5.408   2.936  -3.998  0.00  0.00    +0.117 C 
BRANCH  16  17
ATOM     17  C   UNL     1       6.870   3.386  -3.982  0.00  0.00    +0.015 C 
ATOM     18  C   UNL     1       6.972   4.867  -4.400  0.00  0.00    +0.013 C 
ATOM     19  C   UNL     1       7.002   5.640  -3.058  0.00  0.00    +0.001 C 
ATOM     20  C   UNL     1       7.860   4.721  -2.154  0.00  0.00    +0.001 C 
ATOM     21  C   UNL     1       7.435   3.293  -2.554  0.00  0.00    +0.013 C 
BRANCH  17  22
ATOM     22  C   UNL     1       7.684   2.528  -4.917  0.00  0.00    +0.002 A 
ATOM     23  C   UNL     1       7.061   1.580  -5.705  0.00  0.00    +0.008 A 
ATOM     24  C   UNL     1       7.807   0.792  -6.562  0.00  0.00    +0.001 A 
ATOM     25  C   UNL     1       9.179   0.952  -6.633  0.00  0.00    +0.004 A 
ATOM     26  C   UNL     1       9.807   1.898  -5.847  0.00  0.00    +0.046 A 
ATOM     27  C   UNL     1       9.060   2.694  -4.990  0.00  0.00    +0.124 A 
BRANCH  27  28
ATOM     28  O   UNL     1       9.675   3.630  -4.220  0.00  0.00    -0.495 OA
ATOM     29  C   UNL     1      11.076   3.820  -4.426  0.00  0.00    +0.277 C 
ENDBRANCH  27  28
ENDBRANCH  17  22
ENDBRANCH  16  17
ENDBRANCH   5  16
TORSDOF 7
