REMARK  Name = ZINC22397162
REMARK  12 active torsions:
REMARK  status: ('A' for Active; 'I' for Inactive)
REMARK    1  A    between atoms: C_1  and  N_2
REMARK    2  A    between atoms: N_2  and  C_3
REMARK    3  A    between atoms: N_2  and  S_4
REMARK    4  A    between atoms: S_4  and  C_7
REMARK    5  A    between atoms: C_10  and  N_13
REMARK    6  A    between atoms: N_13  and  C_14
REMARK    7  A    between atoms: N_13  and  S_30
REMARK    8  A    between atoms: C_14  and  C_15
REMARK    9  A    between atoms: N_17  and  C_18
REMARK   10  A    between atoms: C_18  and  C_19
REMARK   11  A    between atoms: C_22  and  N_25
REMARK   12  A    between atoms: S_30  and  C_33
REMARK                            x       y       z     vdW  Elec       q    Type
REMARK                         _______ _______ _______ _____ _____    ______ ____
ROOT
ATOM      1  N   UNL     1      -0.620   2.219   1.501  0.00  0.00    -0.199 N 
ENDROOT
BRANCH   1   5
ATOM      2  C   UNL     1      -4.722   2.695   2.039  0.00  0.00    +0.106 A 
ATOM      3  C   UNL     1      -4.249   1.887   1.022  0.00  0.00    +0.030 A 
ATOM      4  C   UNL     1      -2.889   1.727   0.840  0.00  0.00    +0.026 A 
ATOM      5  C   UNL     1      -1.996   2.379   1.681  0.00  0.00    +0.052 A 
ATOM      6  C   UNL     1      -2.475   3.185   2.706  0.00  0.00    +0.026 A 
ATOM      7  C   UNL     1      -3.836   3.345   2.879  0.00  0.00    +0.030 A 
BRANCH   2   8
ATOM      8  S   UNL     1      -6.457   2.896   2.267  0.00  0.00    +0.060 S 
ATOM      9  O   UNL     1      -6.637   4.133   2.944  0.00  0.00    -0.153 OA
ATOM     10  O   UNL     1      -7.066   2.619   1.014  0.00  0.00    -0.153 OA
BRANCH   8  12
ATOM     11  C   UNL     1      -6.957   1.956   4.753  0.00  0.00    +0.131 C 
ATOM     12  N   UNL     1      -6.955   1.710   3.309  0.00  0.00    -0.183 NA
ATOM     13  C   UNL     1      -7.394   0.413   2.786  0.00  0.00    +0.131 C 
ENDBRANCH   8  12
ENDBRANCH   2   8
ENDBRANCH   1   5
BRANCH   1  14
ATOM     14  S   UNL     1      -0.022   1.810   0.012  0.00  0.00    +0.043 S 
ATOM     15  O   UNL     1       1.305   2.317   0.002  0.00  0.00    -0.155 OA
ATOM     16  O   UNL     1      -0.989   2.291  -0.912  0.00  0.00    -0.155 OA
ATOM     17  C   UNL     1       0.002  -0.004   0.002  0.00  0.00    +0.218 C 
ENDBRANCH   1  14
BRANCH   1  18
ATOM     18  C   UNL     1       0.294   2.413   2.629  0.00  0.00    +0.226 C 
BRANCH  18  19
ATOM     19  C   UNL     1       0.627   3.877   2.759  0.00  0.00    +0.232 C 
ATOM     20  O   UNL     1       0.148   4.679   1.986  0.00  0.00    -0.274 OA
ATOM     21  N   UNL     1       1.457   4.295   3.735  0.00  0.00    -0.310 N 
ATOM     22  H   UNL     1       1.892   3.568   4.437  0.00  0.00    +0.149 HD
BRANCH  21  23
ATOM     23  C   UNL     1       1.781   5.719   3.861  0.00  0.00    +0.139 C 
BRANCH  23  24
ATOM     24  C   UNL     1       2.722   5.919   5.022  0.00  0.00    -0.030 A 
ATOM     25  C   UNL     1       2.216   6.164   6.285  0.00  0.00    +0.007 A 
ATOM     26  C   UNL     1       3.076   6.342   7.352  0.00  0.00    +0.026 A 
ATOM     27  C   UNL     1       4.448   6.286   7.152  0.00  0.00    +0.047 A 
ATOM     28  C   UNL     1       4.953   6.046   5.882  0.00  0.00    +0.026 A 
ATOM     29  C   UNL     1       4.089   5.862   4.820  0.00  0.00    +0.007 A 
BRANCH  27  30
ATOM     30  N   UNL     1       5.323   6.473   8.232  0.00  0.00    -0.306 N 
ATOM     31  C   UNL     1       4.971   6.723   9.533  0.00  0.00    +0.112 A 
ATOM     32  C   UNL     1       6.116   6.831  10.234  0.00  0.00    +0.130 A 
ATOM     33  N   UNL     1       7.142   6.662   9.387  0.00  0.00    -0.244 NA
ATOM     34  C   UNL     1       6.681   6.447   8.185  0.00  0.00    +0.204 A 
ENDBRANCH  27  30
ENDBRANCH  23  24
ENDBRANCH  21  23
ENDBRANCH  18  19
ENDBRANCH   1  18
TORSDOF 9
