REMARK  Name = ZINC00213995
REMARK  5 active torsions:
REMARK  status: ('A' for Active; 'I' for Inactive)
REMARK    1  A    between atoms: C_1  and  C_2
REMARK    2  A    between atoms: C_7  and  C_8
REMARK    3  A    between atoms: C_8  and  S_9
REMARK    4  A    between atoms: S_9  and  C_10
REMARK    5  A    between atoms: N_24  and  C_25
REMARK                            x       y       z     vdW  Elec       q    Type
REMARK                         _______ _______ _______ _____ _____    ______ ____
ROOT
ATOM      1  C   UNL     1      -1.513   1.192   4.568  0.00  0.00    +0.172 A 
ATOM      2  N   UNL     1      -0.309   1.475   5.013  0.00  0.00    -0.221 NA
ATOM      3  C   UNL     1      -0.136   2.138   6.168  0.00  0.00    +0.104 A 
ATOM      4  C   UNL     1       1.050   2.589   6.910  0.00  0.00    +0.026 A 
ATOM      5  C   UNL     1       2.422   2.491   6.679  0.00  0.00    +0.012 A 
ATOM      6  C   UNL     1       3.304   3.025   7.577  0.00  0.00    +0.001 A 
ATOM      7  C   UNL     1       2.843   3.665   8.719  0.00  0.00    +0.002 A 
ATOM      8  C   UNL     1       1.493   3.772   8.967  0.00  0.00    +0.026 A 
ATOM      9  C   UNL     1       0.577   3.236   8.065  0.00  0.00    +0.049 A 
ATOM     10  N   UNL     1      -0.801   3.194   8.050  0.00  0.00    -0.349 N 
ATOM     11  H   UNL     1      -1.376   3.571   8.734  0.00  0.00    +0.166 HD
ATOM     12  C   UNL     1      -1.244   2.536   6.914  0.00  0.00    +0.131 A 
ATOM     13  C   UNL     1      -2.530   2.225   6.424  0.00  0.00    +0.279 A 
ATOM     14  O   UNL     1      -3.529   2.554   7.043  0.00  0.00    -0.265 OA
ATOM     15  N   UNL     1      -2.634   1.561   5.253  0.00  0.00    -0.289 N 
ATOM     16  C   UNL     1      -3.957   1.231   4.717  0.00  0.00    +0.154 C 
ENDROOT
BRANCH   1  17
ATOM     17  S   UNL     1      -1.684   0.321   3.046  0.00  0.00    -0.083 S 
BRANCH  17  18
ATOM     18  C   UNL     1       0.025   0.045   2.504  0.00  0.00    +0.112 C 
BRANCH  18  25
ATOM     19  C   UNL     1      -0.018   1.503   0.010  0.00  0.00    +0.044 C 
ATOM     20  C   UNL     1       0.002  -0.004   0.002  0.00  0.00    -0.046 A 
ATOM     21  C   UNL     1       0.006  -0.689  -1.199  0.00  0.00    +0.003 A 
ATOM     22  C   UNL     1       0.025  -2.071  -1.207  0.00  0.00    +0.000 A 
ATOM     23  C   UNL     1       0.040  -2.768  -0.013  0.00  0.00    +0.000 A 
ATOM     24  C   UNL     1       0.037  -2.084   1.188  0.00  0.00    +0.005 A 
ATOM     25  C   UNL     1       0.023  -0.702   1.195  0.00  0.00    -0.034 A 
ENDBRANCH  18  25
ENDBRANCH  17  18
ENDBRANCH   1  17
TORSDOF 3
