REMARK  Name = ZINC33937312
REMARK  13 active torsions:
REMARK  status: ('A' for Active; 'I' for Inactive)
REMARK    1  A    between atoms: C_1  and  C_2
REMARK    2  A    between atoms: C_2  and  C_3
REMARK    3  A    between atoms: C_3  and  C_4
REMARK    4  A    between atoms: C_4  and  C_6
REMARK    5  A    between atoms: C_4  and  N_18
REMARK    6  A    between atoms: N_10  and  C_11
REMARK    7  A    between atoms: C_11  and  C_12
REMARK    8  A    between atoms: N_18  and  C_19
REMARK    9  A    between atoms: N_18  and  C_35
REMARK   10  A    between atoms: C_19  and  C_20
REMARK   11  A    between atoms: C_24  and  O_32
REMARK   12  A    between atoms: O_32  and  C_33
REMARK   13  A    between atoms: C_33  and  C_34
REMARK                            x       y       z     vdW  Elec       q    Type
REMARK                         _______ _______ _______ _____ _____    ______ ____
ROOT
ATOM      1  N   UNL     1      -0.554  -2.438   1.087  0.00  0.00    +0.391 N 
ATOM      2  H   UNL     1      -0.797  -2.198   2.037  0.00  0.00    -0.080 HD
ENDROOT
BRANCH   1   3
ATOM      3  C   UNL     1      -0.723  -3.884   0.889  0.00  0.00    -0.067 C 
ATOM      4  C   UNL     1      -2.203  -4.275   1.082  0.00  0.00    -0.015 C 
ATOM      5  C   UNL     1      -2.143  -5.653   1.786  0.00  0.00    -0.002 C 
ATOM      6  C   UNL     1      -0.943  -5.493   2.751  0.00  0.00    -0.002 C 
ATOM      7  C   UNL     1       0.078  -4.659   1.950  0.00  0.00    -0.015 C 
ENDBRANCH   1   3
BRANCH   1   8
ATOM      8  C   UNL     1      -1.431  -1.711   0.160  0.00  0.00    +0.003 C 
BRANCH   8   9
ATOM      9  C   UNL     1      -1.243  -2.250  -1.235  0.00  0.00    +0.138 A 
ATOM     10  N   UNL     1      -1.244  -3.510  -1.594  0.00  0.00    -0.115 NA
ATOM     11  N   UNL     1      -1.053  -3.562  -2.868  0.00  0.00    -0.023 NA
ATOM     12  N   UNL     1      -0.932  -2.366  -3.330  0.00  0.00    -0.044 NA
ATOM     13  N   UNL     1      -1.048  -1.529  -2.356  0.00  0.00    -0.228 N 
BRANCH  13  14
ATOM     14  C   UNL     1      -0.978  -0.069  -2.450  0.00  0.00    +0.178 C 
BRANCH  14  15
ATOM     15  C   UNL     1       0.472   0.384  -2.270  0.00  0.00    +0.140 C 
ATOM     16  C   UNL     1       0.583   1.919  -2.456  0.00  0.00    +0.035 C 
ATOM     17  C   UNL     1       1.865   2.224  -1.634  0.00  0.00    +0.031 C 
ATOM     18  C   UNL     1       1.772   1.194  -0.487  0.00  0.00    +0.160 C 
ATOM     19  O   UNL     1       0.909   0.135  -0.924  0.00  0.00    -0.375 OA
ENDBRANCH  14  15
ENDBRANCH  13  14
ENDBRANCH   8   9
BRANCH   8  20
ATOM     20  C   UNL     1      -2.889  -1.895   0.585  0.00  0.00    -0.008 C 
BRANCH  20  22
ATOM     21  C   UNL     1      -4.525  -1.554   2.442  0.00  0.00    +0.004 C 
ATOM     22  C   UNL     1      -3.047  -1.489   2.052  0.00  0.00    -0.005 C 
ENDBRANCH  20  22
ENDBRANCH   8  20
ENDBRANCH   1   8
BRANCH   1  23
ATOM     23  C   UNL     1       0.844  -2.069   0.831  0.00  0.00    -0.036 C 
BRANCH  23  24
ATOM     24  C   UNL     1       1.722  -2.644   1.912  0.00  0.00    +0.001 A 
ATOM     25  C   UNL     1       2.526  -3.701   1.638  0.00  0.00    +0.017 A 
ATOM     26  C   UNL     1       3.367  -4.237   2.710  0.00  0.00    +0.002 A 
ATOM     27  C   UNL     1       4.217  -5.325   2.486  0.00  0.00    +0.055 A 
ATOM     28  C   UNL     1       4.997  -5.805   3.519  0.00  0.00    +0.121 A 
ATOM     29  C   UNL     1       4.940  -5.210   4.778  0.00  0.00    +0.047 A 
ATOM     30  C   UNL     1       4.107  -4.138   5.011  0.00  0.00    +0.030 A 
ATOM     31  C   UNL     1       3.313  -3.639   3.983  0.00  0.00    +0.049 A 
ATOM     32  N   UNL     1       2.473  -2.565   4.197  0.00  0.00    -0.322 N 
ATOM     33  H   UNL     1       2.436  -2.154   5.075  0.00  0.00    +0.169 HD
ATOM     34  C   UNL     1       1.709  -2.077   3.204  0.00  0.00    +0.251 A 
ATOM     35  O   UNL     1       0.982  -1.124   3.428  0.00  0.00    -0.268 OA
BRANCH  28  36
ATOM     36  O   UNL     1       5.824  -6.863   3.307  0.00  0.00    -0.492 OA
BRANCH  36  37
ATOM     37  C   UNL     1       6.603  -7.309   4.418  0.00  0.00    +0.225 C 
ATOM     38  C   UNL     1       7.466  -8.499   3.991  0.00  0.00    +0.048 C 
ENDBRANCH  36  37
ENDBRANCH  28  36
ENDBRANCH  23  24
ENDBRANCH   1  23
TORSDOF 11
