REMARK  Name = ZINC39674240
REMARK  10 active torsions:
REMARK  status: ('A' for Active; 'I' for Inactive)
REMARK    1  A    between atoms: C_1  and  C_2
REMARK    2  A    between atoms: C_2  and  O_3
REMARK    3  A    between atoms: O_3  and  C_4
REMARK    4  A    between atoms: C_7  and  C_10
REMARK    5  A    between atoms: C_14  and  C_23
REMARK    6  A    between atoms: N_25  and  C_26
REMARK    7  A    between atoms: C_26  and  C_28
REMARK    8  A    between atoms: C_26  and  C_29
REMARK    9  A    between atoms: C_30  and  C_36
REMARK   10  A    between atoms: C_33  and  C_35
REMARK                            x       y       z     vdW  Elec       q    Type
REMARK                         _______ _______ _______ _____ _____    ______ ____
ROOT
ATOM      1  C   UNL     1       0.848  -5.836   1.948  0.00  0.00    +0.247 C 
ATOM      2  O   UNL     1       0.376  -6.608   1.137  0.00  0.00    -0.270 OA
ATOM      3  N   UNL     1       1.764  -6.269   2.838  0.00  0.00    -0.296 N 
ATOM      4  C   UNL     1       2.357  -5.518   3.969  0.00  0.00    +0.121 C 
ATOM      5  C   UNL     1       2.454  -6.551   5.114  0.00  0.00    +0.100 C 
ATOM      6  C   UNL     1       2.487  -7.917   4.410  0.00  0.00    -0.004 C 
ATOM      7  C   UNL     1       2.400  -7.606   2.908  0.00  0.00    +0.115 C 
ATOM      8  C   UNL     1       1.290  -8.761   4.837  0.00  0.00    -0.010 C 
ATOM      9  C   UNL     1       1.375 -10.136   4.167  0.00  0.00    -0.082 C 
ATOM     10  N   UNL     1       2.628 -10.794   4.556  0.00  0.00    +0.379 N 
ATOM     11  C   UNL     1       3.774 -10.024   4.060  0.00  0.00    -0.082 C 
ATOM     12  C   UNL     1       3.790  -8.644   4.725  0.00  0.00    -0.010 C 
ATOM     13  H   UNL     1       2.676 -10.856   5.562  0.00  0.00    -0.086 HD
ATOM     14  H   UNL     1       2.654 -11.723   4.163  0.00  0.00    -0.086 HD
ENDROOT
BRANCH   1  18
ATOM     15  C   UNL     1      -0.386  -1.773   1.980  0.00  0.00    +0.121 A 
ATOM     16  C   UNL     1       0.824  -2.134   2.561  0.00  0.00    +0.046 A 
ATOM     17  C   UNL     1       1.228  -3.450   2.553  0.00  0.00    +0.016 A 
ATOM     18  C   UNL     1       0.419  -4.424   1.960  0.00  0.00    +0.037 A 
ATOM     19  C   UNL     1      -0.797  -4.056   1.377  0.00  0.00    +0.016 A 
ATOM     20  C   UNL     1      -1.196  -2.739   1.394  0.00  0.00    +0.046 A 
BRANCH  15  21
ATOM     21  O   UNL     1      -0.780  -0.474   1.990  0.00  0.00    -0.492 OA
BRANCH  21  23
ATOM     22  C   UNL     1      -0.509   1.867   2.524  0.00  0.00    +0.048 C 
ATOM     23  C   UNL     1       0.100   0.466   2.609  0.00  0.00    +0.225 C 
ENDBRANCH  21  23
ENDBRANCH  15  21
ENDBRANCH   1  18
BRANCH   5  24
ATOM     24  C   UNL     1       3.717  -6.337   5.908  0.00  0.00    +0.219 C 
ATOM     25  O   UNL     1       4.681  -5.816   5.387  0.00  0.00    -0.275 OA
ATOM     26  N   UNL     1       3.777  -6.725   7.198  0.00  0.00    -0.309 N 
ATOM     27  H   UNL     1       3.006  -7.142   7.615  0.00  0.00    +0.149 HD
BRANCH  26  28
ATOM     28  C   UNL     1       5.005  -6.517   7.969  0.00  0.00    +0.100 C 
ATOM     29  C   UNL     1       5.963  -7.685   7.727  0.00  0.00    +0.033 C 
BRANCH  28  30
ATOM     30  C   UNL     1       4.669  -6.439   9.436  0.00  0.00    -0.001 C 
ATOM     31  C   UNL     1       4.999  -5.482  10.306  0.00  0.00    +0.063 C 
ATOM     32  N   UNL     1       4.516  -5.764  11.536  0.00  0.00    -0.159 NA
ATOM     33  N   UNL     1       3.884  -6.820  11.608  0.00  0.00    -0.180 NA
ATOM     34  C   UNL     1       3.871  -7.428  10.267  0.00  0.00    +0.154 C 
ATOM     35  C   UNL     1       4.558  -8.795  10.289  0.00  0.00    +0.039 C 
ATOM     36  C   UNL     1       5.802  -4.254   9.963  0.00  0.00    +0.067 C 
ENDBRANCH  28  30
ENDBRANCH  26  28
ENDBRANCH   5  24
TORSDOF 6
