REMARK  Name = ZINC65192511
REMARK  7 active torsions:
REMARK  status: ('A' for Active; 'I' for Inactive)
REMARK    1  A    between atoms: C_4  and  S_9
REMARK    2  A    between atoms: C_5  and  C_7
REMARK    3  A    between atoms: S_9  and  C_10
REMARK    4  A    between atoms: C_15  and  C_16
REMARK    5  A    between atoms: N_18  and  N_19
REMARK    6  A    between atoms: N_22  and  C_23
REMARK    7  A    between atoms: C_23  and  C_24
REMARK                            x       y       z     vdW  Elec       q    Type
REMARK                         _______ _______ _______ _____ _____    ______ ____
ROOT
ATOM      1  C   UNL     1       5.156   0.496  -0.197  0.00  0.00    +0.025 A 
ATOM      2  C   UNL     1       4.750   1.825  -0.159  0.00  0.00    +0.016 A 
ATOM      3  C   UNL     1       5.681   2.836  -0.280  0.00  0.00    +0.001 A 
ATOM      4  C   UNL     1       7.025   2.537  -0.440  0.00  0.00    +0.001 A 
ATOM      5  C   UNL     1       7.447   1.226  -0.480  0.00  0.00    +0.014 A 
ATOM      6  C   UNL     1       6.518   0.191  -0.353  0.00  0.00    +0.052 A 
ENDROOT
BRANCH   6   7
ATOM      7  C   UNL     1       6.963  -1.214  -0.388  0.00  0.00    +0.261 C 
ATOM      8  O   UNL     1       6.151  -2.113  -0.282  0.00  0.00    -0.269 OA
ATOM      9  N   UNL     1       8.271  -1.503  -0.538  0.00  0.00    -0.229 N 
ATOM     10  H   UNL     1       8.920  -0.786  -0.622  0.00  0.00    +0.173 HD
BRANCH   9  11
ATOM     11  N   UNL     1       8.695  -2.838  -0.571  0.00  0.00    -0.218 N 
ATOM     12  C   UNL     1      10.003  -3.126  -0.721  0.00  0.00    +0.316 C 
ATOM     13  O   UNL     1      10.370  -4.285  -0.750  0.00  0.00    -0.251 OA
ATOM     14  N   UNL     1      10.903  -2.130  -0.838  0.00  0.00    -0.298 N 
ATOM     15  H   UNL     1       8.047  -3.554  -0.487  0.00  0.00    +0.174 HD
ATOM     16  H   UNL     1      10.610  -1.206  -0.815  0.00  0.00    +0.150 HD
BRANCH  14  17
ATOM     17  C   UNL     1      12.325  -2.444  -1.001  0.00  0.00    +0.109 C 
BRANCH  17  18
ATOM     18  C   UNL     1      13.125  -1.144  -1.110  0.00  0.00    +0.006 C 
ATOM     19  C   UNL     1      13.862  -0.876  -2.424  0.00  0.00    +0.005 C 
ATOM     20  C   UNL     1      14.650  -1.256  -1.168  0.00  0.00    +0.005 C 
ENDBRANCH  17  18
ENDBRANCH  14  17
ENDBRANCH   9  11
ENDBRANCH   6   7
BRANCH   1  21
ATOM     21  S   UNL     1       3.970  -0.797  -0.043  0.00  0.00    -0.087 S 
BRANCH  21  25
ATOM     22  C   UNL     1       0.083   1.374   0.843  0.00  0.00    +0.001 A 
ATOM     23  C   UNL     1       0.324   0.860  -0.421  0.00  0.00    +0.001 A 
ATOM     24  C   UNL     1       1.505   0.200  -0.694  0.00  0.00    +0.016 A 
ATOM     25  C   UNL     1       2.462   0.046   0.302  0.00  0.00    +0.030 A 
ATOM     26  C   UNL     1       2.221   0.566   1.583  0.00  0.00    +0.065 A 
ATOM     27  C   UNL     1       1.020   1.232   1.843  0.00  0.00    +0.020 A 
BRANCH  26  28
ATOM     28  C   UNL     1       3.199   0.414   2.618  0.00  0.00    +0.100 C 
ATOM     29  N   UNL     1       3.974   0.293   3.439  0.00  0.00    -0.191 NA
ENDBRANCH  26  28
ENDBRANCH  21  25
ENDBRANCH   1  21
TORSDOF 7
