REMARK  Name = ZINC67302411
REMARK  5 active torsions:
REMARK  status: ('A' for Active; 'I' for Inactive)
REMARK    1  A    between atoms: C_1  and  C_2
REMARK    2  A    between atoms: C_2  and  C_3
REMARK    3  A    between atoms: C_2  and  N_4
REMARK    4  A    between atoms: C_13  and  C_15
REMARK    5  A    between atoms: C_21  and  C_23
REMARK                            x       y       z     vdW  Elec       q    Type
REMARK                         _______ _______ _______ _____ _____    ______ ____
ROOT
ATOM      1  N   UNL     1      -0.774  -1.253  -2.192  0.00  0.00    -0.297 N 
ATOM      2  C   UNL     1      -1.314  -2.429  -2.570  0.00  0.00    +0.302 C 
ATOM      3  O   UNL     1      -0.748  -3.121  -3.395  0.00  0.00    -0.253 OA
ATOM      4  N   UNL     1      -2.481  -2.838  -2.034  0.00  0.00    -0.283 N 
ATOM      5  C   UNL     1      -3.232  -1.964  -1.122  0.00  0.00    +0.128 C 
ATOM      6  C   UNL     1      -4.655  -1.793  -1.668  0.00  0.00    +0.127 C 
ATOM      7  N   UNL     1      -5.199  -3.121  -1.985  0.00  0.00    -0.298 N 
ATOM      8  C   UNL     1      -4.448  -3.995  -2.897  0.00  0.00    +0.127 C 
ATOM      9  C   UNL     1      -3.028  -4.164  -2.355  0.00  0.00    +0.128 C 
ATOM     10  C   UNL     1      -6.366  -3.531  -1.448  0.00  0.00    +0.219 C 
ATOM     11  O   UNL     1      -7.018  -2.771  -0.763  0.00  0.00    -0.275 OA
ATOM     12  H   UNL     1      -1.260  -0.668  -1.590  0.00  0.00    +0.150 HD
ENDROOT
BRANCH  10  13
ATOM     13  C   UNL     1      -6.860  -4.932  -1.700  0.00  0.00    +0.087 C 
ATOM     14  C   UNL     1      -6.564  -5.804  -0.478  0.00  0.00    +0.013 C 
ATOM     15  C   UNL     1      -7.274  -5.225   0.747  0.00  0.00    +0.001 C 
ATOM     16  C   UNL     1      -8.783  -5.195   0.495  0.00  0.00    +0.001 C 
ATOM     17  C   UNL     1      -9.080  -4.323  -0.727  0.00  0.00    +0.013 C 
ATOM     18  C   UNL     1      -8.369  -4.902  -1.952  0.00  0.00    +0.105 C 
BRANCH  18  19
ATOM     19  C   UNL     1      -8.666  -4.030  -3.173  0.00  0.00    +0.394 C 
ATOM     20  F   UNL     1      -7.917  -4.485  -4.264  0.00  0.00    -0.170 F 
ATOM     21  F   UNL     1     -10.029  -4.104  -3.480  0.00  0.00    -0.170 F 
ATOM     22  F   UNL     1      -8.322  -2.703  -2.893  0.00  0.00    -0.170 F 
ENDBRANCH  18  19
ENDBRANCH  10  13
BRANCH   1  24
ATOM     23  C   UNL     1       0.667   0.666  -2.662  0.00  0.00    +0.027 C 
ATOM     24  C   UNL     1       0.545  -0.859  -2.691  0.00  0.00    +0.068 C 
ATOM     25  C   UNL     1       1.630  -1.474  -1.805  0.00  0.00    +0.027 C 
ENDBRANCH   1  24
TORSDOF 3
