REMARK  Name = ZINC50310488
REMARK  5 active torsions:
REMARK  status: ('A' for Active; 'I' for Inactive)
REMARK    1  A    between atoms: C_1  and  C_2
REMARK    2  A    between atoms: C_5  and  C_18
REMARK    3  A    between atoms: C_7  and  N_8
REMARK    4  A    between atoms: C_9  and  C_11
REMARK    5  A    between atoms: C_12  and  C_13
REMARK                            x       y       z     vdW  Elec       q    Type
REMARK                         _______ _______ _______ _____ _____    ______ ____
ROOT
ATOM      1  C   UNL     1      -0.144   1.469   0.290  0.00  0.00    +0.045 C 
ATOM      2  C   UNL     1      -0.037  -0.033   0.243  0.00  0.00    -0.029 A 
ATOM      3  C   UNL     1      -0.019  -0.685  -0.976  0.00  0.00    +0.006 A 
ATOM      4  C   UNL     1       0.080  -2.060  -1.027  0.00  0.00    +0.012 A 
ATOM      5  C   UNL     1       0.162  -2.798   0.155  0.00  0.00    +0.021 A 
ATOM      6  C   UNL     1       0.144  -2.142   1.384  0.00  0.00    +0.035 A 
ATOM      7  C   UNL     1       0.050  -0.759   1.425  0.00  0.00    +0.037 A 
ENDROOT
BRANCH   5   8
ATOM      8  C   UNL     1       0.266  -4.273   0.103  0.00  0.00    +0.164 A 
ATOM      9  N   UNL     1       0.693  -5.064   1.064  0.00  0.00    -0.129 NA
ATOM     10  N   UNL     1       0.642  -6.290   0.674  0.00  0.00    -0.134 NA
ATOM     11  C   UNL     1       0.182  -6.349  -0.544  0.00  0.00    +0.134 A 
ATOM     12  N   UNL     1      -0.066  -5.076  -0.949  0.00  0.00    -0.311 N 
ATOM     13  C   UNL     1      -0.571  -4.660  -2.258  0.00  0.00    +0.125 C 
ATOM     14  C   UNL     1      -1.425  -5.784  -2.853  0.00  0.00    +0.022 C 
ATOM     15  C   UNL     1      -0.540  -6.730  -3.663  0.00  0.00    +0.002 C 
ATOM     16  C   UNL     1       0.514  -7.375  -2.770  0.00  0.00    +0.008 C 
ATOM     17  C   UNL     1      -0.054  -7.588  -1.369  0.00  0.00    +0.076 C 
ENDBRANCH   5   8
BRANCH   7  18
ATOM     18  N   UNL     1       0.038  -0.095   2.656  0.00  0.00    -0.282 N 
ATOM     19  C   UNL     1       0.755  -0.578   3.690  0.00  0.00    +0.241 C 
ATOM     20  O   UNL     1       1.494  -1.531   3.525  0.00  0.00    -0.270 OA
ATOM     21  H   UNL     1      -0.488   0.713   2.766  0.00  0.00    +0.155 HD
BRANCH  19  22
ATOM     22  C   UNL     1       0.650   0.024   4.968  0.00  0.00    +0.069 C 
ATOM     23  C   UNL     1       1.370  -0.461   6.005  0.00  0.00    +0.033 C 
BRANCH  23  24
ATOM     24  C   UNL     1       1.260   0.162   7.329  0.00  0.00    +0.071 A 
ATOM     25  C   UNL     1       1.980  -0.293   8.417  0.00  0.00    +0.074 A 
ATOM     26  S   UNL     1       1.486   0.751   9.637  0.00  0.00    -0.083 S 
ATOM     27  C   UNL     1       0.417   1.706   8.764  0.00  0.00    +0.156 A 
ATOM     28  N   UNL     1       0.463   1.211   7.558  0.00  0.00    -0.248 NA
ENDBRANCH  23  24
ENDBRANCH  19  22
ENDBRANCH   7  18
TORSDOF 4
