REMARK  Name = ZINC67298636
REMARK  5 active torsions:
REMARK  status: ('A' for Active; 'I' for Inactive)
REMARK    1  A    between atoms: C_3  and  O_30
REMARK    2  A    between atoms: C_8  and  C_20
REMARK    3  A    between atoms: N_10  and  C_11
REMARK    4  A    between atoms: N_22  and  C_23
REMARK    5  A    between atoms: C_23  and  C_24
REMARK                            x       y       z     vdW  Elec       q    Type
REMARK                         _______ _______ _______ _____ _____    ______ ____
ROOT
ATOM      1  C   UNL     1      -0.696   1.289  -0.138  0.00  0.00    +0.015 A 
ATOM      2  C   UNL     1       0.303   2.212  -0.024  0.00  0.00    +0.046 A 
ATOM      3  C   UNL     1       1.627   1.805   0.125  0.00  0.00    +0.120 A 
ATOM      4  C   UNL     1       1.950   0.456   0.146  0.00  0.00    +0.092 A 
ATOM      5  C   UNL     1       0.950  -0.494   0.027  0.00  0.00    +0.141 A 
ATOM      6  C   UNL     1      -0.392  -0.079  -0.093  0.00  0.00    +0.018 A 
ATOM      7  C   UNL     1      -1.425  -1.048  -0.174  0.00  0.00    +0.030 A 
ATOM      8  C   UNL     1      -1.101  -2.374   0.077  0.00  0.00    +0.097 A 
ATOM      9  C   UNL     1       0.296  -2.672   0.445  0.00  0.00    +0.212 A 
ATOM     10  N   UNL     1       0.601  -3.733   1.161  0.00  0.00    -0.325 N 
ATOM     11  O   UNL     1       1.258  -1.814   0.016  0.00  0.00    -0.438 OA
ATOM     12  H   UNL     1      -0.104  -4.285   1.535  0.00  0.00    +0.169 HD
ENDROOT
BRANCH  10  13
ATOM     13  C   UNL     1       1.911  -4.058   1.379  0.00  0.00    +0.047 A 
ATOM     14  C   UNL     1       2.828  -4.020   0.326  0.00  0.00    +0.064 A 
ATOM     15  C   UNL     1       4.150  -4.349   0.552  0.00  0.00    +0.128 A 
ATOM     16  C   UNL     1       4.568  -4.718   1.821  0.00  0.00    +0.076 A 
ATOM     17  C   UNL     1       3.663  -4.758   2.870  0.00  0.00    +0.128 A 
ATOM     18  C   UNL     1       2.339  -4.425   2.657  0.00  0.00    +0.064 A 
ATOM     19  F   UNL     1       4.077  -5.119   4.104  0.00  0.00    -0.205 F 
ATOM     20  F   UNL     1       5.038  -4.313  -0.466  0.00  0.00    -0.205 F 
ENDBRANCH  10  13
BRANCH   8  21
ATOM     21  C   UNL     1      -2.112  -3.439  -0.018  0.00  0.00    +0.249 C 
ATOM     22  O   UNL     1      -1.779  -4.605   0.082  0.00  0.00    -0.270 OA
ATOM     23  N   UNL     1      -3.408  -3.124  -0.215  0.00  0.00    -0.309 N 
ATOM     24  H   UNL     1      -3.666  -2.199  -0.355  0.00  0.00    +0.149 HD
BRANCH  23  25
ATOM     25  C   UNL     1      -4.426  -4.177  -0.220  0.00  0.00    +0.136 C 
BRANCH  25  26
ATOM     26  C   UNL     1      -5.802  -3.555  -0.464  0.00  0.00    +0.135 C 
ATOM     27  C   UNL     1      -6.895  -4.640  -0.350  0.00  0.00    +0.035 C 
ATOM     28  C   UNL     1      -7.870  -4.246  -1.493  0.00  0.00    +0.031 C 
ATOM     29  C   UNL     1      -6.879  -3.691  -2.547  0.00  0.00    +0.160 C 
ATOM     30  O   UNL     1      -5.863  -3.013  -1.788  0.00  0.00    -0.375 OA
ENDBRANCH  25  26
ENDBRANCH  23  25
ENDBRANCH   8  21
BRANCH   3  31
ATOM     31  O   UNL     1       2.608   2.734   0.249  0.00  0.00    -0.507 OA
ATOM     32  H   UNL     1       2.790   2.994   1.162  0.00  0.00    +0.292 HD
ENDBRANCH   3  31
TORSDOF 5
