REMARK  Name = ZINC14236048
REMARK  8 active torsions:
REMARK  status: ('A' for Active; 'I' for Inactive)
REMARK    1  A    between atoms: C_1  and  C_2
REMARK    2  A    between atoms: C_2  and  C_4
REMARK    3  A    between atoms: C_2  and  S_16
REMARK    4  A    between atoms: N_6  and  C_7
REMARK    5  A    between atoms: N_10  and  C_13
REMARK    6  A    between atoms: S_16  and  C_17
REMARK    7  A    between atoms: C_17  and  C_18
REMARK    8  A    between atoms: C_24  and  C_29
REMARK                            x       y       z     vdW  Elec       q    Type
REMARK                         _______ _______ _______ _____ _____    ______ ____
ROOT
ATOM      1  C   UNL     1      -2.354  -0.095   1.619  0.00  0.00    +0.144 C 
ENDROOT
BRANCH   1   2
ATOM      2  C   UNL     1      -3.781  -0.557   1.761  0.00  0.00    +0.121 A 
ATOM      3  N   UNL     1      -4.471  -0.258   2.891  0.00  0.00    -0.310 N 
ATOM      4  H   UNL     1      -4.035   0.251   3.593  0.00  0.00    +0.170 HD
ATOM      5  C   UNL     1      -5.747  -0.652   3.057  0.00  0.00    +0.260 A 
ATOM      6  O   UNL     1      -6.353  -0.374   4.077  0.00  0.00    -0.267 OA
ATOM      7  C   UNL     1      -6.382  -1.402   2.016  0.00  0.00    +0.080 A 
ATOM      8  C   UNL     1      -7.737  -1.935   1.958  0.00  0.00    +0.004 A 
ATOM      9  C   UNL     1      -8.121  -2.622   0.855  0.00  0.00    +0.056 A 
ATOM     10  S   UNL     1      -6.668  -2.590  -0.177  0.00  0.00    -0.076 S 
ATOM     11  C   UNL     1      -5.590  -1.665   0.886  0.00  0.00    +0.116 A 
ATOM     12  N   UNL     1      -4.335  -1.236   0.792  0.00  0.00    -0.226 NA
BRANCH   8  13
ATOM     13  C   UNL     1      -8.678  -1.730   3.086  0.00  0.00    -0.017 A 
ATOM     14  C   UNL     1      -8.281  -2.022   4.390  0.00  0.00    +0.008 A 
ATOM     15  C   UNL     1      -9.161  -1.828   5.436  0.00  0.00    +0.001 A 
ATOM     16  C   UNL     1     -10.434  -1.347   5.191  0.00  0.00    +0.000 A 
ATOM     17  C   UNL     1     -10.834  -1.057   3.899  0.00  0.00    +0.001 A 
ATOM     18  C   UNL     1      -9.961  -1.241   2.846  0.00  0.00    +0.008 A 
ENDBRANCH   8  13
ENDBRANCH   1   2
BRANCH   1  19
ATOM     19  S   UNL     1      -1.700  -0.632   0.015  0.00  0.00    -0.141 S 
BRANCH  19  21
ATOM     20  C   UNL     1      -0.019   1.526   0.010  0.00  0.00    +0.029 C 
ATOM     21  C   UNL     1       0.002  -0.004   0.002  0.00  0.00    +0.129 C 
BRANCH  21  22
ATOM     22  C   UNL     1       0.707  -0.490  -1.238  0.00  0.00    +0.226 C 
ATOM     23  O   UNL     1       0.066  -0.782  -2.225  0.00  0.00    -0.275 OA
ATOM     24  N   UNL     1       2.051  -0.601  -1.250  0.00  0.00    -0.312 N 
ATOM     25  H   UNL     1       2.563  -0.367  -0.460  0.00  0.00    +0.149 HD
BRANCH  24  26
ATOM     26  C   UNL     1       2.736  -1.073  -2.455  0.00  0.00    +0.069 C 
ATOM     27  C   UNL     1       2.767  -2.604  -2.460  0.00  0.00    +0.003 C 
ATOM     28  C   UNL     1       3.553  -3.089  -3.680  0.00  0.00    -0.077 C 
ATOM     29  N   UNL     1       4.925  -2.571  -3.620  0.00  0.00    +0.382 N 
ATOM     30  C   UNL     1       4.907  -1.105  -3.687  0.00  0.00    -0.077 C 
ATOM     31  C   UNL     1       4.173  -0.544  -2.467  0.00  0.00    +0.003 C 
ATOM     32  H   UNL     1       5.356  -2.862  -2.755  0.00  0.00    -0.081 HD
BRANCH  29  33
ATOM     33  C   UNL     1       5.697  -3.103  -4.751  0.00  0.00    -0.069 C 
ATOM     34  C   UNL     1       6.811  -4.103  -4.437  0.00  0.00    -0.017 C 
ATOM     35  C   UNL     1       7.162  -2.678  -4.867  0.00  0.00    -0.017 C 
ENDBRANCH  29  33
ENDBRANCH  24  26
ENDBRANCH  21  22
ENDBRANCH  19  21
ENDBRANCH   1  19
TORSDOF 7
