REMARK  Name = ZINC13495967
REMARK  19 active torsions:
REMARK  status: ('A' for Active; 'I' for Inactive)
REMARK    1  A    between atoms: C_1  and  C_2
REMARK    2  A    between atoms: C_2  and  C_3
REMARK    3  A    between atoms: C_3  and  C_5
REMARK    4  A    between atoms: C_3  and  N_79
REMARK    5  A    between atoms: N_9  and  C_10
REMARK    6  A    between atoms: C_10  and  C_11
REMARK    7  A    between atoms: C_10  and  C_12
REMARK    8  A    between atoms: C_10  and  C_13
REMARK    9  A    between atoms: C_13  and  C_14
REMARK   10  A    between atoms: C_15  and  C_16
REMARK   11  A    between atoms: C_15  and  N_79
REMARK   12  A    between atoms: C_16  and  C_17
REMARK   13  A    between atoms: C_20  and  O_25
REMARK   14  A    between atoms: C_21  and  O_23
REMARK   15  A    between atoms: O_23  and  C_24
REMARK   16  A    between atoms: O_25  and  C_26
REMARK   17  A    between atoms: C_27  and  C_28
REMARK   18  A    between atoms: C_27  and  N_79
REMARK   19  A    between atoms: C_34  and  C_40
REMARK                            x       y       z     vdW  Elec       q    Type
REMARK                         _______ _______ _______ _____ _____    ______ ____
ROOT
ATOM      1  N   UNL     1      -3.652   4.343  -1.011  0.00  0.00    +0.389 N 
ATOM      2  H   UNL     1      -3.604   5.286  -0.609  0.00  0.00    -0.080 HD
ENDROOT
BRANCH   1   3
ATOM      3  C   UNL     1      -4.876   3.674  -0.522  0.00  0.00    +0.003 C 
BRANCH   3   4
ATOM      4  C   UNL     1      -5.207   4.219   0.843  0.00  0.00    +0.139 A 
ATOM      5  N   UNL     1      -4.354   4.587   1.767  0.00  0.00    -0.115 NA
ATOM      6  N   UNL     1      -5.024   4.998   2.788  0.00  0.00    -0.023 NA
ATOM      7  N   UNL     1      -6.284   4.894   2.542  0.00  0.00    -0.043 NA
ATOM      8  N   UNL     1      -6.438   4.417   1.353  0.00  0.00    -0.225 N 
BRANCH   8   9
ATOM      9  C   UNL     1      -7.711   4.143   0.683  0.00  0.00    +0.061 C 
ATOM     10  C   UNL     1      -7.887   5.107  -0.492  0.00  0.00    +0.036 C 
ATOM     11  C   UNL     1      -7.716   2.703   0.167  0.00  0.00    +0.036 C 
BRANCH   9  12
ATOM     12  C   UNL     1      -8.860   4.334   1.675  0.00  0.00    +0.026 C 
ATOM     13  C   UNL     1     -10.191   4.048   0.976  0.00  0.00    +0.006 C 
ENDBRANCH   9  12
ENDBRANCH   8   9
ENDBRANCH   3   4
BRANCH   3  15
ATOM     14  C   UNL     1      -4.486   1.584  -1.834  0.00  0.00    +0.002 C 
ATOM     15  C   UNL     1      -4.657   2.163  -0.428  0.00  0.00    -0.011 C 
ENDBRANCH   3  15
ENDBRANCH   1   3
BRANCH   1  16
ATOM     16  C   UNL     1      -2.458   3.580  -0.591  0.00  0.00    -0.073 C 
BRANCH  16  17
ATOM     17  C   UNL     1      -2.306   3.698   0.927  0.00  0.00    +0.017 C 
BRANCH  17  18
ATOM     18  C   UNL     1      -1.006   3.066   1.353  0.00  0.00    -0.045 A 
ATOM     19  C   UNL     1      -0.985   1.751   1.777  0.00  0.00    +0.007 A 
ATOM     20  C   UNL     1       0.205   1.168   2.174  0.00  0.00    +0.049 A 
ATOM     21  C   UNL     1       1.381   1.900   2.135  0.00  0.00    +0.161 A 
ATOM     22  C   UNL     1       1.361   3.222   1.702  0.00  0.00    +0.162 A 
ATOM     23  C   UNL     1       0.164   3.802   1.312  0.00  0.00    +0.053 A 
BRANCH  22  24
ATOM     24  O   UNL     1       2.513   3.944   1.663  0.00  0.00    -0.491 OA
ATOM     25  C   UNL     1       2.416   5.295   1.208  0.00  0.00    +0.277 C 
ENDBRANCH  22  24
BRANCH  21  26
ATOM     26  O   UNL     1       2.553   1.326   2.519  0.00  0.00    -0.491 OA
ATOM     27  C   UNL     1       2.498  -0.035   2.951  0.00  0.00    +0.277 C 
ENDBRANCH  21  26
ENDBRANCH  17  18
ENDBRANCH  16  17
ENDBRANCH   1  16
BRANCH   1  28
ATOM     28  C   UNL     1      -3.690   4.451  -2.485  0.00  0.00    -0.037 C 
BRANCH  28  29
ATOM     29  C   UNL     1      -4.720   5.481  -2.869  0.00  0.00    +0.001 A 
ATOM     30  C   UNL     1      -4.351   6.776  -3.032  0.00  0.00    +0.017 A 
ATOM     31  C   UNL     1      -5.375   7.752  -3.410  0.00  0.00    -0.001 A 
ATOM     32  C   UNL     1      -5.055   9.101  -3.598  0.00  0.00    +0.010 A 
ATOM     33  C   UNL     1      -6.035   9.987  -3.946  0.00  0.00    +0.001 A 
ATOM     34  C   UNL     1      -7.345   9.562  -4.114  0.00  0.00    +0.005 A 
ATOM     35  C   UNL     1      -7.684   8.238  -3.934  0.00  0.00    -0.026 A 
ATOM     36  C   UNL     1      -6.703   7.317  -3.580  0.00  0.00    +0.052 A 
ATOM     37  N   UNL     1      -7.013   5.987  -3.394  0.00  0.00    -0.322 N 
ATOM     38  H   UNL     1      -7.929   5.688  -3.511  0.00  0.00    +0.169 HD
ATOM     39  C   UNL     1      -6.065   5.097  -3.052  0.00  0.00    +0.251 A 
ATOM     40  O   UNL     1      -6.376   3.928  -2.896  0.00  0.00    -0.268 OA
ATOM     41  C   UNL     1      -9.110   7.790  -4.120  0.00  0.00    +0.046 C 
ENDBRANCH  28  29
ENDBRANCH   1  28
TORSDOF 12
