REMARK  Name = ZINC53625674
REMARK  8 active torsions:
REMARK  status: ('A' for Active; 'I' for Inactive)
REMARK    1  A    between atoms: C_1  and  C_2
REMARK    2  A    between atoms: C_2  and  C_3
REMARK    3  A    between atoms: C_3  and  C_5
REMARK    4  A    between atoms: C_3  and  C_6
REMARK    5  A    between atoms: C_6  and  C_8
REMARK    6  A    between atoms: C_6  and  N_24
REMARK    7  A    between atoms: N_10  and  N_11
REMARK    8  A    between atoms: C_12  and  C_14
REMARK                            x       y       z     vdW  Elec       q    Type
REMARK                         _______ _______ _______ _____ _____    ______ ____
ROOT
ATOM      1  C   UNL     1      -2.829  -2.579  -0.111  0.00  0.00    +0.250 C 
ATOM      2  O   UNL     1      -3.377  -2.869  -1.153  0.00  0.00    -0.272 OA
ATOM      3  N   UNL     1      -3.486  -2.723   1.058  0.00  0.00    -0.233 N 
ATOM      4  H   UNL     1      -3.048  -2.491   1.892  0.00  0.00    +0.173 HD
ENDROOT
BRANCH   3   5
ATOM      5  N   UNL     1      -4.800  -3.208   1.068  0.00  0.00    -0.230 N 
ATOM      6  C   UNL     1      -5.457  -3.352   2.236  0.00  0.00    +0.260 C 
ATOM      7  O   UNL     1      -4.908  -3.061   3.281  0.00  0.00    -0.269 OA
ATOM      8  H   UNL     1      -5.238  -3.440   0.234  0.00  0.00    +0.173 HD
BRANCH   6   9
ATOM      9  C   UNL     1      -6.841  -3.863   2.247  0.00  0.00    +0.042 A 
ATOM     10  C   UNL     1      -7.471  -4.204   1.047  0.00  0.00    +0.017 A 
ATOM     11  C   UNL     1      -8.764  -4.679   1.060  0.00  0.00    +0.050 A 
ATOM     12  C   UNL     1      -9.446  -4.823   2.263  0.00  0.00    +0.162 A 
ATOM     13  C   UNL     1      -8.822  -4.488   3.462  0.00  0.00    +0.163 A 
ATOM     14  C   UNL     1      -7.523  -4.013   3.456  0.00  0.00    +0.062 A 
ATOM     15  O   UNL     1      -9.473  -4.631   4.649  0.00  0.00    -0.485 OA
ATOM     16  C   UNL     1     -10.898  -4.762   4.590  0.00  0.00    +0.270 C 
ATOM     17  C   UNL     1     -11.241  -5.779   3.493  0.00  0.00    +0.270 C 
ATOM     18  O   UNL     1     -10.722  -5.291   2.251  0.00  0.00    -0.485 OA
ENDBRANCH   6   9
ENDBRANCH   3   5
BRANCH   1  19
ATOM     19  C   UNL     1      -1.416  -2.058  -0.121  0.00  0.00    +0.165 C 
BRANCH  19  20
ATOM     20  N   UNL     1      -0.767  -2.429  -1.381  0.00  0.00    -0.288 N 
ATOM     21  C   UNL     1      -1.280  -2.006  -2.554  0.00  0.00    +0.298 C 
ATOM     22  O   UNL     1      -2.280  -1.314  -2.565  0.00  0.00    -0.253 OA
ATOM     23  N   UNL     1      -0.683  -2.348  -3.713  0.00  0.00    -0.313 N 
ATOM     24  H   UNL     1       0.030  -2.981  -1.372  0.00  0.00    +0.151 HD
ATOM     25  H   UNL     1       0.114  -2.899  -3.703  0.00  0.00    +0.146 HD
ATOM     26  H   UNL     1      -1.052  -2.042  -4.556  0.00  0.00    +0.146 HD
ENDBRANCH  19  20
BRANCH  19  27
ATOM     27  C   UNL     1      -1.433  -0.534   0.013  0.00  0.00    +0.015 C 
ATOM     28  C   UNL     1      -2.110  -0.145   1.329  0.00  0.00    +0.010 C 
BRANCH  27  30
ATOM     29  C   UNL     1      -0.019   1.526   0.010  0.00  0.00    +0.004 C 
ATOM     30  C   UNL     1       0.002  -0.004   0.002  0.00  0.00    +0.002 C 
ENDBRANCH  27  30
ENDBRANCH  19  27
ENDBRANCH   1  19
TORSDOF 6
