REMARK  Name = ZINC39609313
REMARK  9 active torsions:
REMARK  status: ('A' for Active; 'I' for Inactive)
REMARK    1  A    between atoms: C_1  and  C_2
REMARK    2  A    between atoms: C_5  and  C_9
REMARK    3  A    between atoms: C_7  and  C_8
REMARK    4  A    between atoms: C_9  and  C_10
REMARK    5  A    between atoms: C_10  and  N_11
REMARK    6  A    between atoms: C_12  and  C_14
REMARK    7  A    between atoms: C_25  and  C_27
REMARK    8  A    between atoms: C_31  and  O_32
REMARK    9  A    between atoms: O_32  and  C_33
REMARK                            x       y       z     vdW  Elec       q    Type
REMARK                         _______ _______ _______ _____ _____    ______ ____
ROOT
ATOM      1  C   UNL     1       2.711  -8.412  -0.057  0.00  0.00    +0.100 C 
ATOM      2  C   UNL     1       1.948  -8.951  -1.288  0.00  0.00    +0.121 C 
ATOM      3  N   UNL     1       2.997  -9.173  -2.311  0.00  0.00    -0.296 N 
ATOM      4  C   UNL     1       4.146  -9.720  -1.550  0.00  0.00    +0.115 C 
ATOM      5  C   UNL     1       4.152  -8.922  -0.231  0.00  0.00    -0.004 C 
ATOM      6  C   UNL     1       5.120  -7.746  -0.332  0.00  0.00    -0.010 C 
ATOM      7  C   UNL     1       6.551  -8.278  -0.447  0.00  0.00    -0.082 C 
ATOM      8  N   UNL     1       6.866  -9.098   0.729  0.00  0.00    +0.379 N 
ATOM      9  C   UNL     1       5.991 -10.276   0.768  0.00  0.00    -0.082 C 
ATOM     10  C   UNL     1       4.536  -9.829   0.934  0.00  0.00    -0.010 C 
ATOM     11  C   UNL     1       2.924  -8.931  -3.635  0.00  0.00    +0.251 C 
ATOM     12  O   UNL     1       1.941  -8.386  -4.100  0.00  0.00    -0.270 OA
ATOM     13  H   UNL     1       7.829  -9.397   0.681  0.00  0.00    -0.086 HD
ATOM     14  H   UNL     1       6.728  -8.551   1.565  0.00  0.00    -0.086 HD
ENDROOT
BRANCH  11  15
ATOM     15  C   UNL     1       4.032  -9.327  -4.517  0.00  0.00    +0.087 A 
ATOM     16  C   UNL     1       4.769 -10.467  -4.283  0.00  0.00    +0.063 A 
ATOM     17  S   UNL     1       5.894 -10.496  -5.527  0.00  0.00    -0.081 S 
ATOM     18  C   UNL     1       5.436  -9.012  -6.398  0.00  0.00    +0.120 A 
ATOM     19  C   UNL     1       4.395  -8.541  -5.674  0.00  0.00    +0.158 A 
ATOM     20 CL   UNL     1       6.147  -8.339  -7.831  0.00  0.00    -0.072 Cl
BRANCH  19  21
ATOM     21  O   UNL     1       3.737  -7.398  -6.011  0.00  0.00    -0.492 OA
ATOM     22  C   UNL     1       4.232  -6.177  -5.458  0.00  0.00    +0.277 C 
ENDBRANCH  19  21
ENDBRANCH  11  15
BRANCH   1  24
ATOM     23  N   UNL     1       2.712  -6.242   1.130  0.00  0.00    -0.315 N 
ATOM     24  C   UNL     1       2.686  -6.905  -0.043  0.00  0.00    +0.218 C 
ATOM     25  O   UNL     1       2.642  -6.290  -1.087  0.00  0.00    -0.275 OA
ATOM     26  H   UNL     1       2.747  -6.734   1.965  0.00  0.00    +0.149 HD
BRANCH  23  27
ATOM     27  C   UNL     1       2.687  -4.777   1.144  0.00  0.00    +0.109 C 
BRANCH  27  28
ATOM     28  C   UNL     1       2.725  -4.280   2.590  0.00  0.00    +0.054 C 
BRANCH  28  33
ATOM     29  C   UNL     1       2.627   1.497   2.648  0.00  0.00    +0.044 C 
ATOM     30  C   UNL     1       2.652  -0.009   2.633  0.00  0.00    -0.048 A 
ATOM     31  C   UNL     1       1.468  -0.721   2.663  0.00  0.00    +0.004 A 
ATOM     32  C   UNL     1       1.491  -2.103   2.650  0.00  0.00    +0.004 A 
ATOM     33  C   UNL     1       2.699  -2.773   2.605  0.00  0.00    -0.046 A 
ATOM     34  C   UNL     1       3.884  -2.062   2.573  0.00  0.00    +0.007 A 
ATOM     35  C   UNL     1       3.860  -0.680   2.583  0.00  0.00    -0.047 A 
ATOM     36  C   UNL     1       5.151   0.096   2.543  0.00  0.00    +0.044 C 
ENDBRANCH  28  33
ENDBRANCH  27  28
ENDBRANCH  23  27
ENDBRANCH   1  24
TORSDOF 6
