REMARK  Name = ZINC01321127
REMARK  10 active torsions:
REMARK  status: ('A' for Active; 'I' for Inactive)
REMARK    1  A    between atoms: C_1  and  C_2
REMARK    2  A    between atoms: C_2  and  O_3
REMARK    3  A    between atoms: O_3  and  C_4
REMARK    4  A    between atoms: C_4  and  C_6
REMARK    5  A    between atoms: C_6  and  C_8
REMARK    6  A    between atoms: C_6  and  N_9
REMARK    7  A    between atoms: C_20  and  C_24
REMARK    8  A    between atoms: C_24  and  C_25
REMARK    9  A    between atoms: C_24  and  C_26
REMARK   10  A    between atoms: C_24  and  C_27
REMARK                            x       y       z     vdW  Elec       q    Type
REMARK                         _______ _______ _______ _____ _____    ______ ____
ROOT
ATOM      1  N   UNL     1       0.991   3.546   0.012  0.00  0.00    -0.197 N 
ATOM      2  C   UNL     1       1.425   4.319  -1.002  0.00  0.00    +0.279 A 
ATOM      3  O   UNL     1       2.054   3.834  -1.927  0.00  0.00    -0.265 OA
ATOM      4  C   UNL     1       1.133   5.724  -0.974  0.00  0.00    +0.079 A 
ATOM      5  C   UNL     1       1.500   6.741  -1.956  0.00  0.00    -0.023 A 
ATOM      6  C   UNL     1       1.105   8.008  -1.703  0.00  0.00    -0.004 A 
ATOM      7  S   UNL     1       0.234   7.918  -0.162  0.00  0.00    -0.071 S 
ATOM      8  C   UNL     1       0.403   6.176   0.137  0.00  0.00    +0.138 A 
ATOM      9  N   UNL     1       0.003   5.359   1.107  0.00  0.00    -0.123 NA
ATOM     10  N   UNL     1       0.265   4.098   1.072  0.00  0.00    -0.061 NA
ATOM     11  C   UNL     1       1.353   9.221  -2.546  0.00  0.00    +0.046 C 
ATOM     12  C   UNL     1       1.808   8.758  -3.938  0.00  0.00    -0.000 C 
ATOM     13  C   UNL     1       2.900   7.699  -3.771  0.00  0.00    +0.009 C 
ATOM     14  C   UNL     1       2.293   6.409  -3.216  0.00  0.00    +0.037 C 
ENDROOT
BRANCH  12  15
ATOM     15  C   UNL     1       2.364   9.950  -4.719  0.00  0.00    -0.035 C 
ATOM     16  C   UNL     1       3.557  10.542  -3.966  0.00  0.00    +0.011 C 
ATOM     17  C   UNL     1       2.816   9.486  -6.105  0.00  0.00    +0.011 C 
ATOM     18  C   UNL     1       1.276  11.015  -4.868  0.00  0.00    +0.011 C 
ENDBRANCH  12  15
BRANCH   1  19
ATOM     19  C   UNL     1       1.279   2.109   0.001  0.00  0.00    +0.218 C 
ATOM     20  C   UNL     1       2.098   1.744   1.241  0.00  0.00    +0.045 C 
BRANCH  19  21
ATOM     21  C   UNL     1      -0.016   1.338   0.009  0.00  0.00    +0.332 C 
ATOM     22  O   UNL     1      -1.071   1.928   0.018  0.00  0.00    -0.248 OA
BRANCH  21  23
ATOM     23  O   UNL     1       0.002  -0.004   0.002  0.00  0.00    -0.463 OA
BRANCH  23  25
ATOM     24  C   UNL     1      -1.062  -2.195   0.000  0.00  0.00    +0.048 C 
ATOM     25  C   UNL     1      -1.282  -0.681   0.011  0.00  0.00    +0.229 C 
ENDBRANCH  23  25
ENDBRANCH  21  23
ENDBRANCH  19  21
ENDBRANCH   1  19
TORSDOF 5
