REMARK  Name = ZINC09792499
REMARK  12 active torsions:
REMARK  status: ('A' for Active; 'I' for Inactive)
REMARK    1  A    between atoms: C_1  and  C_2
REMARK    2  A    between atoms: C_2  and  C_3
REMARK    3  A    between atoms: C_3  and  C_4
REMARK    4  A    between atoms: C_4  and  N_5
REMARK    5  A    between atoms: C_6  and  N_36
REMARK    6  A    between atoms: C_7  and  N_14
REMARK    7  A    between atoms: N_14  and  C_15
REMARK    8  A    between atoms: C_20  and  C_22
REMARK    9  A    between atoms: C_22  and  S_23
REMARK   10  A    between atoms: S_23  and  C_24
REMARK   11  A    between atoms: N_28  and  C_29
REMARK   12  A    between atoms: C_34  and  C_35
REMARK                            x       y       z     vdW  Elec       q    Type
REMARK                         _______ _______ _______ _____ _____    ______ ____
ROOT
ATOM      1  N   UNL     1      -5.795  -3.076   3.506  0.00  0.00    -0.260 N 
ATOM      2  C   UNL     1      -5.460  -2.803   4.784  0.00  0.00    +0.231 C 
ATOM      3  O   UNL     1      -4.402  -2.261   5.031  0.00  0.00    -0.274 OA
ENDROOT
BRANCH   1   6
ATOM      4  N   UNL     1      -4.013  -0.907   1.135  0.00  0.00    -0.280 N 
ATOM      5  C   UNL     1      -4.830  -1.299   2.170  0.00  0.00    +0.127 A 
ATOM      6  C   UNL     1      -4.965  -2.643   2.451  0.00  0.00    +0.140 A 
ATOM      7  C   UNL     1      -4.259  -3.575   1.666  0.00  0.00    +0.277 A 
ATOM      8  O   UNL     1      -4.361  -4.769   1.892  0.00  0.00    -0.266 OA
ATOM      9  N   UNL     1      -3.472  -3.139   0.664  0.00  0.00    -0.273 N 
ATOM     10  H   UNL     1      -2.986  -3.780   0.122  0.00  0.00    +0.173 HD
ATOM     11  C   UNL     1      -3.357  -1.825   0.402  0.00  0.00    +0.331 A 
ATOM     12  O   UNL     1      -2.643  -1.458  -0.512  0.00  0.00    -0.246 OA
BRANCH   5  13
ATOM     13  N   UNL     1      -5.503  -0.362   2.917  0.00  0.00    -0.343 N 
ATOM     14  H   UNL     1      -5.345   0.583   2.767  0.00  0.00    +0.144 HD
ATOM     15  H   UNL     1      -6.138  -0.646   3.594  0.00  0.00    +0.144 HD
ENDBRANCH   5  13
BRANCH   4  16
ATOM     16  C   UNL     1      -3.860   0.517   0.827  0.00  0.00    +0.128 C 
BRANCH  16  17
ATOM     17  C   UNL     1      -4.927   0.936  -0.186  0.00  0.00    +0.021 C 
BRANCH  17  19
ATOM     18  C   UNL     1      -5.835   2.843  -1.521  0.00  0.00    +0.004 C 
ATOM     19  C   UNL     1      -4.768   2.423  -0.508  0.00  0.00    -0.002 C 
ENDBRANCH  17  19
ENDBRANCH  16  17
ENDBRANCH   4  16
ENDBRANCH   1   6
BRANCH   1  20
ATOM     20  C   UNL     1      -7.021  -3.823   3.214  0.00  0.00    +0.082 C 
ATOM     21  C   UNL     1      -7.123  -4.101   1.700  0.00  0.00    +0.023 C 
ATOM     22  C   UNL     1      -8.633  -3.961   1.389  0.00  0.00    +0.002 C 
ATOM     23  C   UNL     1      -9.060  -2.777   2.291  0.00  0.00    +0.002 C 
ATOM     24  C   UNL     1      -8.253  -2.981   3.590  0.00  0.00    +0.023 C 
ENDBRANCH   1  20
BRANCH   2  25
ATOM     25  C   UNL     1      -6.398  -3.170   5.904  0.00  0.00    +0.173 C 
BRANCH  25  26
ATOM     26  S   UNL     1      -5.721  -2.578   7.480  0.00  0.00    -0.075 S 
BRANCH  26  27
ATOM     27  C   UNL     1      -6.917  -3.078   8.673  0.00  0.00    +0.214 A 
ATOM     28  N   UNL     1      -8.031  -3.736   8.435  0.00  0.00    -0.101 NA
ATOM     29  N   UNL     1      -8.674  -3.941   9.528  0.00  0.00    -0.022 NA
ATOM     30  N   UNL     1      -8.033  -3.441  10.528  0.00  0.00    -0.038 NA
ATOM     31  N   UNL     1      -6.859  -2.863  10.011  0.00  0.00    -0.187 N 
BRANCH  31  32
ATOM     32  C   UNL     1      -5.849  -2.204  10.726  0.00  0.00    +0.073 A 
ATOM     33  C   UNL     1      -4.514  -2.467  10.446  0.00  0.00    +0.028 A 
ATOM     34  C   UNL     1      -3.521  -1.817  11.151  0.00  0.00    +0.002 A 
ATOM     35  C   UNL     1      -3.854  -0.904  12.136  0.00  0.00    +0.000 A 
ATOM     36  C   UNL     1      -5.182  -0.640  12.416  0.00  0.00    +0.005 A 
ATOM     37  C   UNL     1      -6.180  -1.284  11.711  0.00  0.00    -0.025 A 
ATOM     38  C   UNL     1      -7.627  -0.991  12.013  0.00  0.00    +0.046 C 
ENDBRANCH  31  32
ENDBRANCH  26  27
ENDBRANCH  25  26
ENDBRANCH   2  25
TORSDOF 10
