REMARK  Name = ZINC22851459
REMARK  8 active torsions:
REMARK  status: ('A' for Active; 'I' for Inactive)
REMARK    1  A    between atoms: C_6  and  N_7
REMARK    2  A    between atoms: N_10  and  C_13
REMARK    3  A    between atoms: C_13  and  C_15
REMARK    4  A    between atoms: C_13  and  C_29
REMARK    5  A    between atoms: C_15  and  N_16
REMARK    6  A    between atoms: C_17  and  C_19
REMARK    7  A    between atoms: N_21  and  C_22
REMARK    8  A    between atoms: C_22  and  C_23
REMARK                            x       y       z     vdW  Elec       q    Type
REMARK                         _______ _______ _______ _____ _____    ______ ____
ROOT
ATOM      1  C   UNL     1       5.099  -0.663   2.257  0.00  0.00    +0.104 C 
ENDROOT
BRANCH   1   2
ATOM      2  C   UNL     1       3.777  -0.487   1.556  0.00  0.00    -0.025 A 
ATOM      3  C   UNL     1       2.783  -1.437   1.709  0.00  0.00    +0.009 A 
ATOM      4  C   UNL     1       1.569  -1.280   1.068  0.00  0.00    +0.050 A 
ATOM      5  C   UNL     1       1.343  -0.169   0.271  0.00  0.00    +0.166 A 
ATOM      6  C   UNL     1       2.344   0.787   0.117  0.00  0.00    +0.167 A 
ATOM      7  C   UNL     1       3.559   0.623   0.762  0.00  0.00    +0.054 A 
ATOM      8  O   UNL     1       1.882   1.773  -0.707  0.00  0.00    -0.453 OA
ATOM      9  C   UNL     1       0.451   1.617  -0.728  0.00  0.00    +0.466 C 
ATOM     10  O   UNL     1       0.255   0.217  -0.457  0.00  0.00    -0.453 OA
ENDBRANCH   1   2
BRANCH   1  14
ATOM     11  N   UNL     1       5.382  -4.798   1.438  0.00  0.00    -0.327 N 
ATOM     12  C   UNL     1       5.757  -4.335   2.782  0.00  0.00    +0.120 C 
ATOM     13  C   UNL     1       5.140  -2.956   3.034  0.00  0.00    +0.104 C 
ATOM     14  N   UNL     1       5.610  -2.017   2.006  0.00  0.00    -0.291 NA
ATOM     15  C   UNL     1       5.235  -2.481   0.662  0.00  0.00    +0.104 C 
ATOM     16  C   UNL     1       5.851  -3.859   0.410  0.00  0.00    +0.120 C 
BRANCH  11  22
ATOM     17  C   UNL     1       6.604  -6.745   2.176  0.00  0.00    +0.026 A 
ATOM     18  C   UNL     1       7.079  -8.020   1.940  0.00  0.00    +0.040 A 
ATOM     19  C   UNL     1       6.831  -8.638   0.726  0.00  0.00    +0.124 A 
ATOM     20  C   UNL     1       6.102  -7.982  -0.252  0.00  0.00    +0.040 A 
ATOM     21  C   UNL     1       5.621  -6.709  -0.018  0.00  0.00    +0.026 A 
ATOM     22  C   UNL     1       5.868  -6.087   1.199  0.00  0.00    +0.030 A 
ATOM     23  F   UNL     1       7.301  -9.884   0.494  0.00  0.00    -0.205 F 
ENDBRANCH  11  22
ENDBRANCH   1  14
BRANCH   1  24
ATOM     24  C   UNL     1       4.910  -0.460   3.761  0.00  0.00    +0.128 C 
BRANCH  24  25
ATOM     25  N   UNL     1       6.199  -0.619   4.441  0.00  0.00    -0.306 N 
ATOM     26  C   UNL     1       6.294  -0.391   5.766  0.00  0.00    +0.299 C 
ATOM     27  O   UNL     1       5.313  -0.054   6.396  0.00  0.00    -0.265 OA
ATOM     28  H   UNL     1       7.088  -0.924   3.870  0.00  0.00    +0.149 HD
BRANCH  26  29
ATOM     29  C   UNL     1       7.608  -0.552   6.459  0.00  0.00    +0.299 C 
ATOM     30  O   UNL     1       8.589  -0.889   5.829  0.00  0.00    -0.265 OA
ATOM     31  N   UNL     1       7.704  -0.324   7.784  0.00  0.00    -0.305 N 
ATOM     32  H   UNL     1       6.814  -0.019   8.355  0.00  0.00    +0.149 HD
BRANCH  31  33
ATOM     33  C   UNL     1       8.992  -0.483   8.463  0.00  0.00    +0.136 C 
BRANCH  33  34
ATOM     34  C   UNL     1       8.826  -0.166   9.951  0.00  0.00    +0.135 C 
ATOM     35  C   UNL     1      10.176  -0.330  10.675  0.00  0.00    +0.035 C 
ATOM     36  C   UNL     1      10.444   1.062  11.299  0.00  0.00    +0.031 C 
ATOM     37  C   UNL     1       9.023   1.679  11.337  0.00  0.00    +0.160 C 
ATOM     38  O   UNL     1       8.415   1.202  10.117  0.00  0.00    -0.375 OA
ENDBRANCH  33  34
ENDBRANCH  31  33
ENDBRANCH  26  29
ENDBRANCH  24  25
ENDBRANCH   1  24
TORSDOF 8
