REMARK  Name = ZINC05481372
REMARK  7 active torsions:
REMARK  status: ('A' for Active; 'I' for Inactive)
REMARK    1  A    between atoms: C_1  and  C_2
REMARK    2  A    between atoms: C_2  and  C_3
REMARK    3  A    between atoms: C_2  and  C_4
REMARK    4  A    between atoms: C_2  and  C_5
REMARK    5  A    between atoms: C_5  and  C_7
REMARK    6  A    between atoms: C_8  and  N_25
REMARK    7  A    between atoms: C_10  and  C_20
REMARK                            x       y       z     vdW  Elec       q    Type
REMARK                         _______ _______ _______ _____ _____    ______ ____
ROOT
ATOM      1  C   UNL     1       0.870  -1.861  -1.454  0.00  0.00    +0.078 A 
ATOM      2  C   UNL     1       1.458  -2.499  -2.536  0.00  0.00    +0.052 A 
ATOM      3  C   UNL     1       1.467  -3.905  -2.578  0.00  0.00    +0.037 A 
ATOM      4  C   UNL     1       2.010  -4.761  -3.586  0.00  0.00    +0.005 A 
ATOM      5  C   UNL     1       1.911  -6.147  -3.434  0.00  0.00    -0.017 A 
ATOM      6  C   UNL     1       1.300  -6.674  -2.319  0.00  0.00    +0.046 A 
ATOM      7  N   UNL     1       0.798  -5.867  -1.390  0.00  0.00    -0.244 NA
ATOM      8  C   UNL     1       0.860  -4.560  -1.483  0.00  0.00    +0.112 A 
ATOM      9  S   UNL     1       0.311  -3.224  -0.448  0.00  0.00    -0.064 S 
ATOM     10  C   UNL     1       1.171  -8.158  -2.090  0.00  0.00    +0.056 C 
ATOM     11  C   UNL     1       1.379  -8.923  -3.395  0.00  0.00    +0.006 C 
ATOM     12  C   UNL     1       2.687  -8.441  -4.034  0.00  0.00    +0.005 C 
ATOM     13  C   UNL     1       2.484  -7.011  -4.528  0.00  0.00    +0.037 C 
ENDROOT
BRANCH   4  14
ATOM     14  C   UNL     1       2.668  -4.187  -4.773  0.00  0.00    +0.020 A 
ATOM     15  C   UNL     1       3.865  -3.521  -4.862  0.00  0.00    +0.016 A 
ATOM     16  C   UNL     1       4.283  -3.075  -6.093  0.00  0.00    +0.008 A 
ATOM     17  C   UNL     1       3.496  -3.296  -7.181  0.00  0.00    +0.046 A 
ATOM     18  S   UNL     1       2.112  -4.171  -6.470  0.00  0.00    -0.097 S 
ENDBRANCH   4  14
BRANCH   2  19
ATOM     19  N   UNL     1       2.029  -1.762  -3.560  0.00  0.00    -0.356 N 
ATOM     20  H   UNL     1       2.333  -0.856  -3.395  0.00  0.00    +0.142 HD
ATOM     21  H   UNL     1       2.125  -2.152  -4.443  0.00  0.00    +0.142 HD
ENDBRANCH   2  19
BRANCH   1  22
ATOM     22  C   UNL     1       0.749  -0.484  -1.209  0.00  0.00    +0.177 C 
ATOM     23  O   UNL     1       1.195   0.316  -2.007  0.00  0.00    -0.291 OA
BRANCH  22  25
ATOM     24  C   UNL     1       0.068   1.531   0.065  0.00  0.00    +0.019 C 
ATOM     25  C   UNL     1       0.065   0.001   0.043  0.00  0.00    +0.026 C 
ATOM     26  C   UNL     1       0.811  -0.529   1.269  0.00  0.00    +0.019 C 
ATOM     27  C   UNL     1      -1.378  -0.507   0.066  0.00  0.00    +0.019 C 
ENDBRANCH  22  25
ENDBRANCH   1  22
TORSDOF 4
