REMARK  Name = ZINC39695072
REMARK  10 active torsions:
REMARK  status: ('A' for Active; 'I' for Inactive)
REMARK    1  A    between atoms: C_1  and  C_2
REMARK    2  A    between atoms: C_2  and  C_3
REMARK    3  A    between atoms: C_3  and  C_4
REMARK    4  A    between atoms: C_4  and  C_5
REMARK    5  A    between atoms: C_5  and  C_6
REMARK    6  A    between atoms: C_6  and  C_7
REMARK    7  A    between atoms: C_11  and  C_20
REMARK    8  A    between atoms: N_22  and  C_23
REMARK    9  A    between atoms: C_23  and  C_24
REMARK   10  A    between atoms: C_29  and  C_30
REMARK                            x       y       z     vdW  Elec       q    Type
REMARK                         _______ _______ _______ _____ _____    ______ ____
ROOT
ATOM      1  C   UNL     1       2.288  -4.590   3.797  0.00  0.00    +0.216 C 
ATOM      2  O   UNL     1       2.787  -3.817   4.587  0.00  0.00    -0.276 OA
ATOM      3  N   UNL     1       2.440  -5.918   3.967  0.00  0.00    -0.300 N 
ATOM      4  C   UNL     1       1.916  -7.009   3.112  0.00  0.00    +0.121 C 
ATOM      5  C   UNL     1       3.053  -8.055   3.071  0.00  0.00    +0.100 C 
ATOM      6  C   UNL     1       3.871  -7.794   4.347  0.00  0.00    -0.004 C 
ATOM      7  C   UNL     1       3.175  -6.618   5.048  0.00  0.00    +0.115 C 
ATOM      8  C   UNL     1       5.304  -7.413   3.988  0.00  0.00    -0.010 C 
ATOM      9  C   UNL     1       6.112  -7.214   5.273  0.00  0.00    -0.082 C 
ATOM     10  N   UNL     1       6.097  -8.454   6.059  0.00  0.00    +0.379 N 
ATOM     11  C   UNL     1       4.725  -8.764   6.479  0.00  0.00    -0.082 C 
ATOM     12  C   UNL     1       3.858  -9.028   5.245  0.00  0.00    -0.010 C 
ATOM     13  H   UNL     1       6.454  -9.212   5.497  0.00  0.00    -0.086 HD
ATOM     14  H   UNL     1       6.680  -8.341   6.875  0.00  0.00    -0.086 HD
ENDROOT
BRANCH   5  15
ATOM     15  C   UNL     1       2.484  -9.450   3.086  0.00  0.00    +0.218 C 
ATOM     16  O   UNL     1       1.448  -9.676   3.673  0.00  0.00    -0.275 OA
ATOM     17  N   UNL     1       3.127 -10.446   2.445  0.00  0.00    -0.311 N 
ATOM     18  H   UNL     1       3.956 -10.265   1.975  0.00  0.00    +0.149 HD
BRANCH  17  19
ATOM     19  C   UNL     1       2.574 -11.803   2.459  0.00  0.00    +0.139 C 
BRANCH  19  20
ATOM     20  C   UNL     1       3.477 -12.722   1.676  0.00  0.00    -0.026 A 
ATOM     21  C   UNL     1       3.158 -13.060   0.374  0.00  0.00    +0.005 A 
ATOM     22  C   UNL     1       3.985 -13.902  -0.344  0.00  0.00    +0.002 A 
ATOM     23  C   UNL     1       5.132 -14.408   0.239  0.00  0.00    +0.020 A 
ATOM     24  C   UNL     1       5.452 -14.070   1.542  0.00  0.00    +0.044 A 
ATOM     25  C   UNL     1       4.626 -13.221   2.259  0.00  0.00    -0.027 A 
ATOM     26  C   UNL     1       4.977 -12.848   3.676  0.00  0.00    +0.045 C 
ATOM     27 CL   UNL     1       6.892 -14.704   2.275  0.00  0.00    -0.083 Cl
ENDBRANCH  19  20
ENDBRANCH  17  19
ENDBRANCH   5  15
BRANCH   1  28
ATOM     28  C   UNL     1       1.499  -4.066   2.625  0.00  0.00    +0.096 C 
BRANCH  28  29
ATOM     29  C   UNL     1       1.480  -2.536   2.667  0.00  0.00    +0.009 C 
BRANCH  29  30
ATOM     30  C   UNL     1       0.679  -2.004   1.477  0.00  0.00    +0.000 C 
BRANCH  30  31
ATOM     31  C   UNL     1       0.660  -0.475   1.518  0.00  0.00    -0.000 C 
BRANCH  31  33
ATOM     32  C   UNL     1      -0.160   1.587   0.370  0.00  0.00    +0.004 C 
ATOM     33  C   UNL     1      -0.142   0.058   0.329  0.00  0.00    -0.003 C 
ENDBRANCH  31  33
ENDBRANCH  30  31
ENDBRANCH  29  30
ENDBRANCH  28  29
ENDBRANCH   1  28
TORSDOF 8
