REMARK  Name = ZINC36304643
REMARK  19 active torsions:
REMARK  status: ('A' for Active; 'I' for Inactive)
REMARK    1  A    between atoms: C_1  and  C_2
REMARK    2  A    between atoms: C_3  and  C_22
REMARK    3  A    between atoms: C_4  and  O_13
REMARK    4  A    between atoms: N_5  and  C_7
REMARK    5  A    between atoms: O_13  and  C_14
REMARK    6  A    between atoms: C_17  and  O_20
REMARK    7  A    between atoms: O_20  and  C_21
REMARK    8  A    between atoms: C_22  and  N_23
REMARK    9  A    between atoms: N_23  and  C_24
REMARK   10  A    between atoms: N_23  and  C_28
REMARK   11  A    between atoms: C_24  and  C_25
REMARK   12  A    between atoms: C_28  and  C_29
REMARK   13  A    between atoms: C_29  and  C_31
REMARK   14  A    between atoms: C_29  and  O_37
REMARK   15  A    between atoms: C_31  and  O_32
REMARK   16  A    between atoms: O_32  and  C_33
REMARK   17  A    between atoms: C_33  and  C_34
REMARK   18  A    between atoms: C_33  and  C_35
REMARK   19  A    between atoms: C_33  and  C_36
REMARK                            x       y       z     vdW  Elec       q    Type
REMARK                         _______ _______ _______ _____ _____    ______ ____
ROOT
ATOM      1  C   UNL     1       1.029   1.428   0.134  0.00  0.00    +0.068 C 
ATOM      2  C   UNL     1       0.707  -0.041   0.226  0.00  0.00    +0.065 A 
ATOM      3  C   UNL     1       0.226  -0.839  -0.817  0.00  0.00    +0.021 A 
ATOM      4  C   UNL     1       0.062  -2.100  -0.336  0.00  0.00    +0.225 A 
ATOM      5  N   UNL     1       0.432  -2.090   0.973  0.00  0.00    -0.200 N 
ATOM      6  N   UNL     1       0.836  -0.788   1.293  0.00  0.00    -0.168 NA
ENDROOT
BRANCH   5   7
ATOM      7  C   UNL     1       0.416  -3.188   1.844  0.00  0.00    +0.069 A 
ATOM      8  C   UNL     1      -0.661  -4.064   1.840  0.00  0.00    +0.028 A 
ATOM      9  C   UNL     1      -0.674  -5.144   2.700  0.00  0.00    +0.002 A 
ATOM     10  C   UNL     1       0.385  -5.355   3.564  0.00  0.00    +0.000 A 
ATOM     11  C   UNL     1       1.460  -4.484   3.570  0.00  0.00    +0.002 A 
ATOM     12  C   UNL     1       1.481  -3.405   2.709  0.00  0.00    +0.028 A 
ENDBRANCH   5   7
BRANCH   4  13
ATOM     13  O   UNL     1      -0.389  -3.173  -1.034  0.00  0.00    -0.438 OA
BRANCH  13  14
ATOM     14  C   UNL     1      -1.733  -3.368  -1.109  0.00  0.00    +0.131 A 
ATOM     15  C   UNL     1      -2.600  -2.427  -0.573  0.00  0.00    +0.050 A 
ATOM     16  C   UNL     1      -3.965  -2.625  -0.649  0.00  0.00    +0.049 A 
ATOM     17  C   UNL     1      -4.468  -3.763  -1.261  0.00  0.00    +0.120 A 
ATOM     18  C   UNL     1      -3.601  -4.703  -1.797  0.00  0.00    +0.049 A 
ATOM     19  C   UNL     1      -2.236  -4.503  -1.726  0.00  0.00    +0.050 A 
BRANCH  17  20
ATOM     20  O   UNL     1      -5.812  -3.958  -1.335  0.00  0.00    -0.495 OA
ATOM     21  C   UNL     1      -6.260  -5.152  -1.979  0.00  0.00    +0.277 C 
ENDBRANCH  17  20
ENDBRANCH  13  14
ENDBRANCH   4  13
BRANCH   3  22
ATOM     22  C   UNL     1      -0.062  -0.382  -2.224  0.00  0.00    -0.036 C 
BRANCH  22  23
ATOM     23  N   UNL     1       1.177  -0.414  -3.012  0.00  0.00    +0.384 N 
ATOM     24  H   UNL     1       1.888   0.128  -2.544  0.00  0.00    -0.081 HD
BRANCH  23  25
ATOM     25  C   UNL     1       0.925   0.155  -4.343  0.00  0.00    -0.075 C 
BRANCH  25  26
ATOM     26  C   UNL     1       0.583   1.640  -4.207  0.00  0.00    -0.028 C 
ATOM     27  C   UNL     1      -0.807   2.089  -4.662  0.00  0.00    +0.002 C 
ATOM     28  C   UNL     1       0.425   2.449  -5.495  0.00  0.00    +0.002 C 
ENDBRANCH  25  26
ENDBRANCH  23  25
BRANCH  23  29
ATOM     29  C   UNL     1       1.632  -1.804  -3.151  0.00  0.00    -0.044 C 
BRANCH  29  30
ATOM     30  C   UNL     1       2.986  -1.827  -3.864  0.00  0.00    +0.124 C 
BRANCH  30  31
ATOM     31  O   UNL     1       3.967  -1.188  -3.045  0.00  0.00    -0.391 OA
ATOM     32  H   UNL     1       4.091  -1.606  -2.182  0.00  0.00    +0.210 HD
ENDBRANCH  30  31
BRANCH  30  33
ATOM     33  C   UNL     1       3.402  -3.277  -4.121  0.00  0.00    +0.189 C 
BRANCH  33  34
ATOM     34  O   UNL     1       4.607  -3.299  -4.888  0.00  0.00    -0.372 OA
BRANCH  34  35
ATOM     35  C   UNL     1       5.084  -4.613  -5.185  0.00  0.00    +0.061 C 
ATOM     36  C   UNL     1       4.025  -5.371  -5.987  0.00  0.00    +0.041 C 
ATOM     37  C   UNL     1       6.372  -4.515  -6.005  0.00  0.00    +0.041 C 
ATOM     38  C   UNL     1       5.367  -5.359  -3.879  0.00  0.00    +0.041 C 
ENDBRANCH  34  35
ENDBRANCH  33  34
ENDBRANCH  30  33
ENDBRANCH  29  30
ENDBRANCH  23  29
ENDBRANCH  22  23
ENDBRANCH   3  22
TORSDOF 14
