REMARK  Name = ZINC32983773
REMARK  9 active torsions:
REMARK  status: ('A' for Active; 'I' for Inactive)
REMARK    1  A    between atoms: C_1  and  N_2
REMARK    2  A    between atoms: N_2  and  C_3
REMARK    3  A    between atoms: N_2  and  C_28
REMARK    4  A    between atoms: C_3  and  C_4
REMARK    5  A    between atoms: C_4  and  N_5
REMARK    6  A    between atoms: C_6  and  C_8
REMARK    7  A    between atoms: C_18  and  C_19
REMARK    8  A    between atoms: C_24  and  O_25
REMARK    9  A    between atoms: O_25  and  C_26
REMARK                            x       y       z     vdW  Elec       q    Type
REMARK                         _______ _______ _______ _____ _____    ______ ____
ROOT
ATOM      1  C   UNL     1       3.461   1.655   0.379  0.00  0.00    +0.039 A 
ATOM      2  C   UNL     1       3.450   3.030   0.623  0.00  0.00    +0.017 A 
ATOM      3  C   UNL     1       2.252   3.696   0.765  0.00  0.00    +0.049 A 
ATOM      4  C   UNL     1       1.054   3.003   0.665  0.00  0.00    +0.150 A 
ATOM      5  C   UNL     1       1.056   1.628   0.421  0.00  0.00    +0.077 A 
ATOM      6  C   UNL     1       2.256   0.955   0.279  0.00  0.00    +0.040 A 
ATOM      7  N   UNL     1      -0.155   0.929   0.319  0.00  0.00    -0.276 N 
ATOM      8  C   UNL     1      -1.305   1.632   0.181  0.00  0.00    +0.284 C 
ATOM      9  O   UNL     1      -2.378   1.070   0.070  0.00  0.00    -0.266 OA
ATOM     10  C   UNL     1      -1.206   3.105   0.174  0.00  0.00    +0.191 C 
ATOM     11  C   UNL     1      -2.140   3.870  -0.437  0.00  0.00    +0.063 C 
ATOM     12  O   UNL     1      -0.129   3.663   0.807  0.00  0.00    -0.449 OA
ATOM     13  H   UNL     1      -0.159  -0.171   0.351  0.00  0.00    +0.155 HD
ENDROOT
BRANCH  11  14
ATOM     14  C   UNL     1      -2.096   5.332  -0.299  0.00  0.00    +0.020 A 
ATOM     15  C   UNL     1      -1.349   5.921   0.727  0.00  0.00    +0.011 A 
ATOM     16  C   UNL     1      -1.312   7.293   0.849  0.00  0.00    +0.001 A 
ATOM     17  C   UNL     1      -2.012   8.093  -0.039  0.00  0.00    +0.004 A 
ATOM     18  C   UNL     1      -2.755   7.525  -1.056  0.00  0.00    +0.046 A 
ATOM     19  C   UNL     1      -2.800   6.148  -1.199  0.00  0.00    +0.127 A 
BRANCH  19  20
ATOM     20  O   UNL     1      -3.524   5.589  -2.202  0.00  0.00    -0.495 OA
ATOM     21  C   UNL     1      -4.214   6.482  -3.079  0.00  0.00    +0.277 C 
ENDBRANCH  19  20
ENDBRANCH  11  14
BRANCH   1  23
ATOM     22  N   UNL     1       5.907   1.618   0.324  0.00  0.00    -0.313 N 
ATOM     23  C   UNL     1       4.745   0.942   0.227  0.00  0.00    +0.244 C 
ATOM     24  O   UNL     1       4.754  -0.255   0.014  0.00  0.00    -0.270 OA
ATOM     25  H   UNL     1       5.899   2.701   0.517  0.00  0.00    +0.149 HD
BRANCH  22  26
ATOM     26  C   UNL     1       7.181   0.910   0.173  0.00  0.00    +0.086 C 
BRANCH  26  27
ATOM     27  C   UNL     1       8.336   1.901   0.327  0.00  0.00    -0.060 C 
BRANCH  27  29
ATOM     28  C   UNL     1       9.820   0.241   1.276  0.00  0.00    -0.096 C 
ATOM     29  N   UNL     1       9.613   1.192   0.176  0.00  0.00    +0.381 N 
ATOM     30  H   UNL     1       9.573   0.619  -0.763  0.00  0.00    -0.082 HD
BRANCH  29  31
ATOM     31  C   UNL     1      10.733   2.138   0.080  0.00  0.00    -0.069 C 
ATOM     32  C   UNL     1      10.530   3.047  -1.134  0.00  0.00    -0.015 C 
ATOM     33  C   UNL     1      11.696   4.032  -1.234  0.00  0.00    -0.002 C 
ATOM     34  C   UNL     1      13.006   3.258  -1.390  0.00  0.00    -0.000 C 
ATOM     35  C   UNL     1      13.209   2.349  -0.176  0.00  0.00    -0.002 C 
ATOM     36  C   UNL     1      12.043   1.363  -0.076  0.00  0.00    -0.015 C 
ENDBRANCH  29  31
ENDBRANCH  27  29
ENDBRANCH  26  27
ENDBRANCH  22  26
ENDBRANCH   1  23
TORSDOF 7
