REMARK  Name = ZINC25010009
REMARK  11 active torsions:
REMARK  status: ('A' for Active; 'I' for Inactive)
REMARK    1  A    between atoms: C_1  and  C_2
REMARK    2  A    between atoms: C_2  and  C_4
REMARK    3  A    between atoms: C_2  and  N_13
REMARK    4  A    between atoms: C_14  and  C_16
REMARK    5  A    between atoms: C_16  and  C_18
REMARK    6  A    between atoms: C_16  and  N_22
REMARK    7  A    between atoms: C_18  and  C_19
REMARK    8  A    between atoms: C_19  and  S_20
REMARK    9  A    between atoms: S_20  and  C_21
REMARK   10  A    between atoms: N_22  and  S_23
REMARK   11  A    between atoms: S_23  and  C_26
REMARK                            x       y       z     vdW  Elec       q    Type
REMARK                         _______ _______ _______ _____ _____    ______ ____
ROOT
ATOM      1  C   UNL     1       4.505  -0.059  -2.543  0.00  0.00    +0.163 C 
ENDROOT
BRANCH   1   3
ATOM      2  N   UNL     1       5.820   0.477  -4.568  0.00  0.00    -0.307 N 
ATOM      3  C   UNL     1       5.455  -0.439  -3.649  0.00  0.00    +0.232 C 
ATOM      4  O   UNL     1       5.891  -1.569  -3.712  0.00  0.00    -0.274 OA
ATOM      5  H   UNL     1       5.425   1.502  -4.511  0.00  0.00    +0.149 HD
BRANCH   2   7
ATOM      6  C   UNL     1       5.960  -0.521  -6.796  0.00  0.00    +0.033 C 
ATOM      7  C   UNL     1       6.744   0.108  -5.643  0.00  0.00    +0.100 C 
BRANCH   7   8
ATOM      8  C   UNL     1       7.460   1.339  -6.135  0.00  0.00    -0.024 A 
ATOM      9  C   UNL     1       6.771   2.530  -6.271  0.00  0.00    +0.009 A 
ATOM     10  C   UNL     1       7.423   3.662  -6.722  0.00  0.00    +0.050 A 
ATOM     11  C   UNL     1       8.770   3.606  -7.039  0.00  0.00    +0.166 A 
ATOM     12  C   UNL     1       9.465   2.407  -6.902  0.00  0.00    +0.167 A 
ATOM     13  C   UNL     1       8.806   1.278  -6.445  0.00  0.00    +0.055 A 
ATOM     14  O   UNL     1      10.763   2.610  -7.274  0.00  0.00    -0.453 OA
ATOM     15  C   UNL     1      10.951   4.037  -7.248  0.00  0.00    +0.466 C 
ATOM     16  O   UNL     1       9.633   4.561  -7.496  0.00  0.00    -0.453 OA
ENDBRANCH   7   8
ENDBRANCH   2   7
ENDBRANCH   1   3
BRANCH   1  17
ATOM     17  N   UNL     1       4.267  -1.221  -1.683  0.00  0.00    -0.178 NA
ATOM     18  H   UNL     1       3.399  -1.871  -1.864  0.00  0.00    +0.149 HD
BRANCH  17  19
ATOM     19  S   UNL     1       5.152  -1.419  -0.297  0.00  0.00    +0.059 S 
ATOM     20  O   UNL     1       6.518  -1.278  -0.663  0.00  0.00    -0.153 OA
ATOM     21  O   UNL     1       4.651  -2.586   0.341  0.00  0.00    -0.153 OA
BRANCH  19  22
ATOM     22  C   UNL     1       4.771  -0.063   0.762  0.00  0.00    +0.109 A 
ATOM     23  C   UNL     1       3.658  -0.117   1.580  0.00  0.00    +0.032 A 
ATOM     24  C   UNL     1       3.356   0.944   2.411  0.00  0.00    +0.051 A 
ATOM     25  C   UNL     1       4.169   2.067   2.428  0.00  0.00    +0.162 A 
ATOM     26  C   UNL     1       5.290   2.121   1.607  0.00  0.00    +0.164 A 
ATOM     27  C   UNL     1       5.587   1.052   0.775  0.00  0.00    +0.078 A 
ATOM     28  O   UNL     1       6.106   3.210   1.614  0.00  0.00    -0.485 OA
ATOM     29  C   UNL     1       5.572   4.411   2.182  0.00  0.00    +0.270 C 
ATOM     30  C   UNL     1       4.896   4.054   3.513  0.00  0.00    +0.270 C 
ATOM     31  O   UNL     1       3.854   3.109   3.245  0.00  0.00    -0.485 OA
ENDBRANCH  19  22
ENDBRANCH  17  19
ENDBRANCH   1  17
BRANCH   1  32
ATOM     32  C   UNL     1       3.179   0.407  -3.148  0.00  0.00    +0.040 C 
BRANCH  32  33
ATOM     33  C   UNL     1       2.263   0.919  -2.035  0.00  0.00    +0.071 C 
BRANCH  33  34
ATOM     34  S   UNL     1       0.644   1.347  -2.733  0.00  0.00    -0.164 S 
ATOM     35  C   UNL     1      -0.260   2.070  -1.336  0.00  0.00    +0.084 C 
ENDBRANCH  33  34
ENDBRANCH  32  33
ENDBRANCH   1  32
TORSDOF 9
