REMARK  Name = ZINC05678657
REMARK  3 active torsions:
REMARK  status: ('A' for Active; 'I' for Inactive)
REMARK    1  A    between atoms: C_5  and  C_7
REMARK    2  A    between atoms: C_8  and  C_9
REMARK    3  A    between atoms: N_10  and  C_11
REMARK                            x       y       z     vdW  Elec       q    Type
REMARK                         _______ _______ _______ _____ _____    ______ ____
ROOT
ATOM      1  C   UNL     1       5.951  -1.992  -0.364  0.00  0.00    +0.066 A 
ATOM      2  C   UNL     1       6.034  -0.777  -1.054  0.00  0.00    +0.030 A 
ATOM      3  C   UNL     1       7.214  -0.066  -1.062  0.00  0.00    +0.030 A 
ATOM      4  C   UNL     1       8.325  -0.554  -0.386  0.00  0.00    +0.067 A 
ATOM      5  C   UNL     1       8.249  -1.767   0.305  0.00  0.00    +0.069 A 
ATOM      6  C   UNL     1       7.065  -2.482   0.321  0.00  0.00    +0.055 A 
ATOM      7  N   UNL     1       9.503  -1.986   0.872  0.00  0.00    -0.306 N 
ATOM      8  H   UNL     1       9.756  -2.751   1.413  0.00  0.00    +0.170 HD
ATOM      9  C   UNL     1      10.303  -0.955   0.541  0.00  0.00    +0.325 A 
ATOM     10  O   UNL     1      11.467  -0.836   0.877  0.00  0.00    -0.247 OA
ATOM     11  N   UNL     1       9.621  -0.076  -0.216  0.00  0.00    -0.306 N 
ATOM     12  H   UNL     1       9.974   0.750  -0.582  0.00  0.00    +0.170 HD
ENDROOT
BRANCH   1  14
ATOM     13  C   UNL     1       3.647  -2.077  -0.146  0.00  0.00    +0.111 C 
ATOM     14  N   UNL     1       4.780  -2.696  -0.357  0.00  0.00    -0.255 NA
BRANCH  13  16
ATOM     15  C   UNL     1       1.278  -2.187   0.189  0.00  0.00    +0.011 C 
ATOM     16  C   UNL     1       2.435  -2.804  -0.139  0.00  0.00    +0.020 C 
BRANCH  15  21
ATOM     17  C   UNL     1       2.307   0.889   2.071  0.00  0.00    +0.001 A 
ATOM     18  C   UNL     1       1.340   1.791   1.661  0.00  0.00    +0.001 A 
ATOM     19  C   UNL     1       0.353   1.402   0.773  0.00  0.00    +0.020 A 
ATOM     20  C   UNL     1       0.325   0.109   0.289  0.00  0.00    +0.048 A 
ATOM     21  C   UNL     1       1.299  -0.808   0.700  0.00  0.00    -0.007 A 
ATOM     22  C   UNL     1       2.294  -0.406   1.598  0.00  0.00    +0.009 A 
ATOM     23 CL   UNL     1      -0.914  -0.377  -0.826  0.00  0.00    -0.083 Cl
ENDBRANCH  15  21
ENDBRANCH  13  16
ENDBRANCH   1  14
TORSDOF 3
