REMARK  Name = ZINC32721155
REMARK  11 active torsions:
REMARK  status: ('A' for Active; 'I' for Inactive)
REMARK    1  A    between atoms: C_1  and  O_2
REMARK    2  A    between atoms: O_2  and  C_3
REMARK    3  A    between atoms: C_5  and  C_11
REMARK    4  A    between atoms: C_7  and  O_9
REMARK    5  A    between atoms: O_9  and  C_10
REMARK    6  A    between atoms: N_13  and  C_14
REMARK    7  A    between atoms: C_14  and  C_15
REMARK    8  A    between atoms: N_17  and  C_18
REMARK    9  A    between atoms: C_18  and  C_19
REMARK   10  A    between atoms: C_19  and  N_20
REMARK   11  A    between atoms: C_24  and  C_25
REMARK                            x       y       z     vdW  Elec       q    Type
REMARK                         _______ _______ _______ _____ _____    ______ ____
ROOT
ATOM      1  C   UNL     1       0.871   0.262  -0.938  0.00  0.00    +0.230 C 
ATOM      2  O   UNL     1       0.597  -0.250   0.127  0.00  0.00    -0.274 OA
ATOM      3  N   UNL     1       1.179  -0.511  -1.998  0.00  0.00    -0.313 N 
ATOM      4  H   UNL     1       1.427  -0.046  -2.964  0.00  0.00    +0.149 HD
ENDROOT
BRANCH   1   5
ATOM      5  C   UNL     1       0.866   1.763  -1.076  0.00  0.00    +0.200 C 
BRANCH   5   8
ATOM      6  C   UNL     1       0.433   3.711   0.323  0.00  0.00    +0.245 C 
ATOM      7  O   UNL     1       0.672   4.417  -0.637  0.00  0.00    -0.270 OA
ATOM      8  N   UNL     1       0.502   2.370   0.207  0.00  0.00    -0.303 N 
ATOM      9  H   UNL     1       0.285   1.731   1.076  0.00  0.00    +0.150 HD
BRANCH   6  12
ATOM     10  C   UNL     1      -0.351   6.281   2.954  0.00  0.00    +0.124 A 
ATOM     11  C   UNL     1      -0.006   5.712   1.739  0.00  0.00    +0.059 A 
ATOM     12  C   UNL     1       0.066   4.324   1.617  0.00  0.00    +0.044 A 
ATOM     13  C   UNL     1      -0.215   3.515   2.719  0.00  0.00    +0.059 A 
ATOM     14  C   UNL     1      -0.553   4.093   3.932  0.00  0.00    +0.124 A 
ATOM     15  C   UNL     1      -0.624   5.474   4.048  0.00  0.00    +0.091 A 
BRANCH  10  17
ATOM     16  C   UNL     1      -0.782   8.153   4.355  0.00  0.00    +0.277 C 
ATOM     17  O   UNL     1      -0.421   7.633   3.074  0.00  0.00    -0.495 OA
ENDBRANCH  10  17
BRANCH  14  18
ATOM     18  O   UNL     1      -0.822   3.307   5.007  0.00  0.00    -0.495 OA
ATOM     19  C   UNL     1      -1.170   3.969   6.225  0.00  0.00    +0.277 C 
ENDBRANCH  14  18
ENDBRANCH   6  12
ENDBRANCH   5   8
ENDBRANCH   1   5
BRANCH   3  20
ATOM     20  C   UNL     1       1.184  -1.970  -1.864  0.00  0.00    +0.123 C 
BRANCH  20  21
ATOM     21  C   UNL     1       1.564  -2.603  -3.204  0.00  0.00    +0.136 C 
BRANCH  21  22
ATOM     22  N   UNL     1       1.569  -4.062  -3.070  0.00  0.00    -0.227 N 
ATOM     23  C   UNL     1       0.458  -4.737  -3.312  0.00  0.00    +0.260 C 
ATOM     24  O   UNL     1      -0.571  -4.177  -3.643  0.00  0.00    -0.269 OA
ATOM     25  C   UNL     1       0.528  -6.204  -3.159  0.00  0.00    +0.080 C 
ATOM     26  C   UNL     1      -0.439  -7.139  -3.337  0.00  0.00    +0.028 C 
ATOM     27  S   UNL     1       2.236  -6.409  -2.674  0.00  0.00    -0.026 S 
ATOM     28  C   UNL     1       2.708  -4.687  -2.708  0.00  0.00    +0.286 C 
ATOM     29  O   UNL     1       3.793  -4.196  -2.462  0.00  0.00    -0.262 OA
BRANCH  26  30
ATOM     30  C   UNL     1      -0.097  -8.567  -3.291  0.00  0.00    -0.020 A 
ATOM     31  C   UNL     1       1.244  -8.967  -3.247  0.00  0.00    +0.012 A 
ATOM     32  C   UNL     1       1.561 -10.306  -3.196  0.00  0.00    +0.050 A 
ATOM     33  C   UNL     1       0.555 -11.264  -3.202  0.00  0.00    +0.166 A 
ATOM     34  C   UNL     1      -0.784 -10.873  -3.251  0.00  0.00    +0.167 A 
ATOM     35  C   UNL     1      -1.111  -9.533  -3.295  0.00  0.00    +0.057 A 
ATOM     36  O   UNL     1      -1.565 -11.993  -3.246  0.00  0.00    -0.453 OA
ATOM     37  C   UNL     1      -0.686 -13.076  -3.606  0.00  0.00    +0.466 C 
ATOM     38  O   UNL     1       0.609 -12.627  -3.165  0.00  0.00    -0.453 OA
ENDBRANCH  26  30
ENDBRANCH  21  22
ENDBRANCH  20  21
ENDBRANCH   3  20
TORSDOF 9
