REMARK  Name = ZINC04684487
REMARK  6 active torsions:
REMARK  status: ('A' for Active; 'I' for Inactive)
REMARK    1  A    between atoms: C_1  and  C_2
REMARK    2  A    between atoms: C_7  and  N_12
REMARK    3  A    between atoms: C_9  and  C_11
REMARK    4  A    between atoms: N_12  and  C_13
REMARK    5  A    between atoms: C_16  and  N_22
REMARK    6  A    between atoms: C_18  and  N_19
REMARK                            x       y       z     vdW  Elec       q    Type
REMARK                         _______ _______ _______ _____ _____    ______ ____
ROOT
ATOM      1  C   UNL     1      -0.154   4.163   0.015  0.00  0.00    +0.058 A 
ATOM      2  C   UNL     1      -1.289   3.369  -0.085  0.00  0.00    +0.027 A 
ATOM      3  C   UNL     1      -1.171   1.994  -0.088  0.00  0.00    +0.026 A 
ATOM      4  C   UNL     1       0.082   1.404   0.020  0.00  0.00    +0.046 A 
ATOM      5  C   UNL     1       1.216   2.198   0.119  0.00  0.00    +0.058 A 
ATOM      6  C   UNL     1       1.099   3.574   0.117  0.00  0.00    +0.149 A 
ENDROOT
BRANCH   4   7
ATOM      7  N   UNL     1       0.201   0.006   0.023  0.00  0.00    -0.210 N 
ATOM      8  C   UNL     1       0.795  -0.592  -1.021  0.00  0.00    +0.226 C 
ATOM      9  O   UNL     1       1.203   0.084  -1.940  0.00  0.00    -0.275 OA
ATOM     10  C   UNL     1       0.970  -2.087  -1.070  0.00  0.00    +0.097 C 
ATOM     11  C   UNL     1      -0.169  -2.750  -0.288  0.00  0.00    +0.018 C 
ATOM     12  C   UNL     1      -0.180  -2.181   1.135  0.00  0.00    +0.097 C 
ATOM     13  C   UNL     1      -0.288  -0.681   1.066  0.00  0.00    +0.226 C 
ATOM     14  O   UNL     1      -0.827  -0.081   1.972  0.00  0.00    -0.275 OA
ENDBRANCH   4   7
BRANCH   6  15
ATOM     15  N   UNL     1       2.309   4.420   0.223  0.00  0.00    +0.058 N 
ATOM     16  O   UNL     1       3.414   3.908   0.198  0.00  0.00    -0.126 OA
ATOM     17  O   UNL     1       2.200   5.627   0.337  0.00  0.00    -0.126 OA
ENDBRANCH   6  15
BRANCH   1  18
ATOM     18  N   UNL     1      -0.273   5.557   0.012  0.00  0.00    -0.339 N 
ATOM     19  H   UNL     1       0.522   6.111  -0.021  0.00  0.00    +0.146 HD
BRANCH  18  25
ATOM     20  C   UNL     1      -2.749   9.635   1.308  0.00  0.00    +0.008 C 
ATOM     21  C   UNL     1      -2.866   8.232   0.709  0.00  0.00    -0.009 C 
ATOM     22  C   UNL     1      -3.436   8.327  -0.707  0.00  0.00    +0.003 C 
ATOM     23  C   UNL     1      -3.553   6.924  -1.306  0.00  0.00    +0.002 C 
ATOM     24  C   UNL     1      -2.168   6.274  -1.356  0.00  0.00    +0.022 C 
ATOM     25  C   UNL     1      -1.598   6.179   0.060  0.00  0.00    +0.074 C 
ATOM     26  C   UNL     1      -1.482   7.582   0.659  0.00  0.00    +0.009 C 
ATOM     27  C   UNL     1      -0.911   7.486   2.075  0.00  0.00    +0.009 C 
ENDBRANCH  18  25
ENDBRANCH   1  18
TORSDOF 4
