REMARK  Name = ZINC13810802
REMARK  2 active torsions:
REMARK  status: ('A' for Active; 'I' for Inactive)
REMARK    1  A    between atoms: C_4  and  C_7
REMARK    2  A    between atoms: C_10  and  C_22
REMARK                            x       y       z     vdW  Elec       q    Type
REMARK                         _______ _______ _______ _____ _____    ______ ____
ROOT
ATOM      1  C   UNL     1       3.711  -0.707  -0.038  0.00  0.00    +0.122 C 
ATOM      2  C   UNL     1       3.817  -1.598   1.205  0.00  0.00    +0.057 C 
ATOM      3  C   UNL     1       5.019  -2.539   1.066  0.00  0.00    +0.106 C 
ATOM      4  N   UNL     1       4.790  -3.426  -0.090  0.00  0.00    -0.309 N 
ATOM      5  C   UNL     1       4.295  -2.828  -1.239  0.00  0.00    +0.175 A 
ATOM      6  N   UNL     1       3.788  -1.547  -1.236  0.00  0.00    -0.306 N 
ATOM      7  C   UNL     1       3.398  -1.263  -2.515  0.00  0.00    +0.069 A 
ATOM      8  C   UNL     1       2.828  -0.140  -3.101  0.00  0.00    +0.028 A 
ATOM      9  C   UNL     1       2.558  -0.203  -4.459  0.00  0.00    +0.002 A 
ATOM     10  C   UNL     1       2.840  -1.331  -5.210  0.00  0.00    +0.002 A 
ATOM     11  C   UNL     1       3.407  -2.462  -4.651  0.00  0.00    +0.028 A 
ATOM     12  C   UNL     1       3.688  -2.420  -3.281  0.00  0.00    +0.065 A 
ATOM     13  N   UNL     1       4.229  -3.333  -2.442  0.00  0.00    -0.327 N 
ATOM     14  H   UNL     1       4.975  -4.378  -0.048  0.00  0.00    +0.149 HD
ATOM     15  H   UNL     1       4.524  -4.221  -2.695  0.00  0.00    +0.169 HD
ENDROOT
BRANCH   3  16
ATOM     16  C   UNL     1       6.272  -1.731   0.847  0.00  0.00    -0.026 A 
ATOM     17  C   UNL     1       6.559  -1.228  -0.409  0.00  0.00    +0.007 A 
ATOM     18  C   UNL     1       7.708  -0.487  -0.611  0.00  0.00    +0.022 A 
ATOM     19  C   UNL     1       8.571  -0.247   0.443  0.00  0.00    +0.059 A 
ATOM     20  C   UNL     1       8.283  -0.750   1.700  0.00  0.00    +0.060 A 
ATOM     21  C   UNL     1       7.130  -1.488   1.902  0.00  0.00    +0.027 A 
ATOM     22 CL   UNL     1       9.366  -0.451   3.024  0.00  0.00    -0.082 Cl
ATOM     23 CL   UNL     1      10.015   0.683   0.189  0.00  0.00    -0.082 Cl
ENDBRANCH   3  16
BRANCH   1  27
ATOM     24  C   UNL     1      -0.017   1.378   0.010  0.00  0.00    +0.000 A 
ATOM     25  C   UNL     1       1.171   2.086   0.002  0.00  0.00    +0.000 A 
ATOM     26  C   UNL     1       2.377   1.411  -0.013  0.00  0.00    +0.005 A 
ATOM     27  C   UNL     1       2.396   0.029  -0.020  0.00  0.00    -0.025 A 
ATOM     28  C   UNL     1       1.208  -0.679  -0.012  0.00  0.00    +0.005 A 
ATOM     29  C   UNL     1       0.002  -0.004   0.002  0.00  0.00    +0.000 A 
ENDBRANCH   1  27
TORSDOF 2
