REMARK  Name = ZINC34781829
REMARK  11 active torsions:
REMARK  status: ('A' for Active; 'I' for Inactive)
REMARK    1  A    between atoms: C_1  and  C_2
REMARK    2  A    between atoms: C_3  and  C_31
REMARK    3  A    between atoms: C_4  and  C_13
REMARK    4  A    between atoms: C_16  and  N_19
REMARK    5  A    between atoms: N_22  and  C_23
REMARK    6  A    between atoms: C_26  and  C_29
REMARK    7  A    between atoms: C_31  and  O_33
REMARK    8  A    between atoms: O_33  and  C_34
REMARK    9  A    between atoms: C_34  and  C_35
REMARK   10  A    between atoms: C_35  and  C_36
REMARK   11  A    between atoms: C_35  and  C_37
REMARK                            x       y       z     vdW  Elec       q    Type
REMARK                         _______ _______ _______ _____ _____    ______ ____
ROOT
ATOM      1  C   UNL     1      -1.105  -2.000  -1.741  0.00  0.00    -0.022 A 
ATOM      2  C   UNL     1      -0.125  -1.853  -2.706  0.00  0.00    +0.007 A 
ATOM      3  C   UNL     1      -0.300  -2.404  -3.960  0.00  0.00    +0.024 A 
ATOM      4  C   UNL     1      -1.461  -3.108  -4.252  0.00  0.00    +0.035 A 
ATOM      5  C   UNL     1      -2.443  -3.255  -3.281  0.00  0.00    +0.024 A 
ATOM      6  C   UNL     1      -2.260  -2.705  -2.027  0.00  0.00    +0.007 A 
ENDROOT
BRANCH   1  10
ATOM      7  C   UNL     1      -0.569   2.441  -0.737  0.00  0.00    +0.066 C 
ATOM      8  C   UNL     1      -0.237   0.976  -0.619  0.00  0.00    +0.053 C 
ATOM      9  C   UNL     1      -1.240   0.074  -0.419  0.00  0.00    +0.082 C 
ATOM     10  C   UNL     1      -0.912  -1.397  -0.374  0.00  0.00    +0.145 C 
ATOM     11  N   UNL     1       0.492  -1.559   0.045  0.00  0.00    -0.298 N 
ATOM     12  C   UNL     1       0.819  -2.675   0.925  0.00  0.00    +0.109 C 
ATOM     13  C   UNL     1       2.133  -3.351   0.567  0.00  0.00    +0.030 C 
ATOM     14  C   UNL     1       3.289  -2.367   0.798  0.00  0.00    +0.079 C 
ATOM     15  S   UNL     1       3.129  -1.041  -0.437  0.00  0.00    -0.090 S 
ATOM     16  C   UNL     1       1.411  -0.644  -0.373  0.00  0.00    +0.157 C 
ATOM     17  N   UNL     1       1.028   0.581  -0.716  0.00  0.00    -0.230 NA
BRANCH   9  18
ATOM     18  C   UNL     1      -2.565   0.511  -0.257  0.00  0.00    +0.339 C 
ATOM     19  O   UNL     1      -2.823   1.701  -0.295  0.00  0.00    -0.245 OA
BRANCH  18  20
ATOM     20  O   UNL     1      -3.553  -0.389  -0.060  0.00  0.00    -0.461 OA
BRANCH  20  21
ATOM     21  C   UNL     1      -4.877   0.126   0.097  0.00  0.00    +0.235 C 
BRANCH  21  22
ATOM     22  C   UNL     1      -5.853  -1.033   0.308  0.00  0.00    +0.020 C 
ATOM     23  C   UNL     1      -5.533  -1.735   1.629  0.00  0.00    +0.010 C 
ATOM     24  C   UNL     1      -7.284  -0.494   0.351  0.00  0.00    +0.010 C 
ENDBRANCH  21  22
ENDBRANCH  20  21
ENDBRANCH  18  20
ENDBRANCH   9  18
ENDBRANCH   1  10
BRANCH   4  25
ATOM     25  N   UNL     1      -1.641  -3.668  -5.522  0.00  0.00    -0.269 N 
ATOM     26  C   UNL     1      -0.579  -4.127  -6.212  0.00  0.00    +0.308 C 
ATOM     27  O   UNL     1       0.522  -4.142  -5.696  0.00  0.00    -0.252 OA
ATOM     28  N   UNL     1      -0.737  -4.570  -7.476  0.00  0.00    -0.269 N 
ATOM     29  H   UNL     1      -2.530  -3.725  -5.905  0.00  0.00    +0.156 HD
ATOM     30  H   UNL     1      -1.598  -4.489  -7.914  0.00  0.00    +0.156 HD
BRANCH  28  31
ATOM     31  C   UNL     1       0.339  -5.145  -8.153  0.00  0.00    +0.035 A 
ATOM     32  C   UNL     1       1.283  -5.889  -7.452  0.00  0.00    +0.024 A 
ATOM     33  C   UNL     1       2.346  -6.458  -8.117  0.00  0.00    +0.020 A 
ATOM     34  C   UNL     1       2.476  -6.287  -9.498  0.00  0.00    +0.052 A 
ATOM     35  C   UNL     1       1.526  -5.539 -10.199  0.00  0.00    +0.020 A 
ATOM     36  C   UNL     1       0.462  -4.978  -9.528  0.00  0.00    +0.024 A 
BRANCH  34  37
ATOM     37  C   UNL     1       3.580  -6.877 -10.193  0.00  0.00    +0.099 C 
ATOM     38  N   UNL     1       4.456  -7.345 -10.745  0.00  0.00    -0.191 NA
ENDBRANCH  34  37
ENDBRANCH  28  31
ENDBRANCH   4  25
TORSDOF 8
