REMARK  Name = ZINC64226569
REMARK  11 active torsions:
REMARK  status: ('A' for Active; 'I' for Inactive)
REMARK    1  A    between atoms: C_1  and  C_2
REMARK    2  A    between atoms: C_2  and  C_3
REMARK    3  A    between atoms: C_2  and  N_14
REMARK    4  A    between atoms: C_6  and  S_9
REMARK    5  A    between atoms: S_9  and  N_12
REMARK    6  A    between atoms: N_12  and  C_13
REMARK    7  A    between atoms: C_21  and  C_22
REMARK    8  A    between atoms: C_22  and  C_23
REMARK    9  A    between atoms: C_23  and  C_24
REMARK   10  A    between atoms: C_23  and  C_25
REMARK   11  A    between atoms: C_23  and  C_26
REMARK                            x       y       z     vdW  Elec       q    Type
REMARK                         _______ _______ _______ _____ _____    ______ ____
ROOT
ATOM      1  C   UNL     1       0.240   1.467  -0.655  0.00  0.00    +0.033 C 
ATOM      2  C   UNL     1       0.288  -0.059  -0.767  0.00  0.00    +0.102 C 
ENDROOT
BRANCH   2   3
ATOM      3  N   UNL     1       0.775  -0.626   0.492  0.00  0.00    -0.293 N 
ATOM      4  C   UNL     1       2.100  -0.730   0.717  0.00  0.00    +0.303 C 
ATOM      5  O   UNL     1       2.891  -0.353  -0.127  0.00  0.00    -0.253 OA
ATOM      6  N   UNL     1       2.548  -1.252   1.875  0.00  0.00    -0.283 N 
ATOM      7  C   UNL     1       1.708  -1.653   3.019  0.00  0.00    +0.109 C 
ATOM      8  C   UNL     1       2.651  -1.584   4.247  0.00  0.00    +0.021 C 
ATOM      9  C   UNL     1       3.988  -2.088   3.642  0.00  0.00    +0.024 C 
ATOM     10  C   UNL     1       3.955  -1.522   2.206  0.00  0.00    +0.078 C 
ATOM     11  H   UNL     1       0.144  -0.927   1.165  0.00  0.00    +0.151 HD
BRANCH  10  12
ATOM     12  C   UNL     1       4.532  -2.547   1.227  0.00  0.00    +0.028 C 
BRANCH  12  13
ATOM     13  C   UNL     1       6.039  -2.681   1.459  0.00  0.00    -0.036 C 
ATOM     14  C   UNL     1       6.290  -3.295   2.838  0.00  0.00    +0.010 C 
ATOM     15  C   UNL     1       6.642  -3.584   0.381  0.00  0.00    +0.010 C 
ATOM     16  C   UNL     1       6.690  -1.298   1.389  0.00  0.00    +0.010 C 
ENDBRANCH  12  13
ENDBRANCH  10  12
ENDBRANCH   2   3
BRANCH   2  17
ATOM     17  C   UNL     1      -1.095  -0.585  -1.054  0.00  0.00    -0.027 A 
ATOM     18  C   UNL     1      -2.010  -0.718  -0.026  0.00  0.00    +0.007 A 
ATOM     19  C   UNL     1      -3.279  -1.201  -0.289  0.00  0.00    +0.029 A 
ATOM     20  C   UNL     1      -3.632  -1.549  -1.579  0.00  0.00    +0.105 A 
ATOM     21  C   UNL     1      -2.717  -1.415  -2.607  0.00  0.00    +0.029 A 
ATOM     22  C   UNL     1      -1.450  -0.928  -2.345  0.00  0.00    +0.007 A 
BRANCH  20  23
ATOM     23  S   UNL     1      -5.248  -2.165  -1.914  0.00  0.00    +0.058 S 
ATOM     24  O   UNL     1      -5.152  -2.932  -3.106  0.00  0.00    -0.153 OA
ATOM     25  O   UNL     1      -5.736  -2.710  -0.695  0.00  0.00    -0.153 OA
BRANCH  23  26
ATOM     26  N   UNL     1      -6.206  -0.861  -2.266  0.00  0.00    -0.193 NA
ATOM     27  C   UNL     1      -5.942  -0.060  -3.464  0.00  0.00    +0.127 C 
ATOM     28  H   UNL     1      -6.943  -0.628  -1.679  0.00  0.00    +0.148 HD
ENDBRANCH  23  26
ENDBRANCH  20  23
ENDBRANCH   2  17
TORSDOF 6
