REMARK  Name = ZINC08843451
REMARK  11 active torsions:
REMARK  status: ('A' for Active; 'I' for Inactive)
REMARK    1  A    between atoms: C_1  and  C_2
REMARK    2  A    between atoms: C_7  and  N_8
REMARK    3  A    between atoms: C_9  and  C_11
REMARK    4  A    between atoms: C_13  and  C_33
REMARK    5  A    between atoms: C_15  and  C_23
REMARK    6  A    between atoms: C_17  and  C_21
REMARK    7  A    between atoms: C_17  and  O_22
REMARK    8  A    between atoms: N_25  and  C_26
REMARK    9  A    between atoms: C_31  and  C_32
REMARK   10  A    between atoms: N_36  and  C_39
REMARK   11  A    between atoms: C_37  and  C_38
REMARK                            x       y       z     vdW  Elec       q    Type
REMARK                         _______ _______ _______ _____ _____    ______ ____
ROOT
ATOM      1  C   UNL     1       3.547  -1.811   1.043  0.00  0.00    +0.150 C 
ATOM      2  C   UNL     1       2.906  -2.355  -0.238  0.00  0.00    +0.056 C 
ATOM      3  C   UNL     1       1.411  -2.033  -0.234  0.00  0.00    +0.116 C 
ATOM      4  C   UNL     1       0.728  -2.754   0.929  0.00  0.00    +0.082 C 
ATOM      5  C   UNL     1       1.286  -2.225   2.254  0.00  0.00    +0.110 C 
ATOM      6  C   UNL     1       2.792  -2.366   2.231  0.00  0.00    +0.148 C 
ATOM      7  O   UNL     1       3.377  -2.909   3.138  0.00  0.00    -0.296 OA
ATOM      8  C   UNL     1      -0.780  -2.499   0.873  0.00  0.00    +0.042 C 
ENDROOT
BRANCH   2   9
ATOM      9  C   UNL     1       3.555  -1.712  -1.437  0.00  0.00    -0.002 A 
ATOM     10  C   UNL     1       3.719  -0.339  -1.647  0.00  0.00    +0.138 A 
ATOM     11  N   UNL     1       4.324  -0.171  -2.794  0.00  0.00    -0.179 NA
ATOM     12  N   UNL     1       4.565  -1.433  -3.352  0.00  0.00    -0.271 N 
ATOM     13  C   UNL     1       4.089  -2.362  -2.497  0.00  0.00    +0.039 A 
ATOM     14  C   UNL     1       4.139  -3.856  -2.690  0.00  0.00    +0.065 C 
ATOM     15  C   UNL     1       5.223  -1.698  -4.633  0.00  0.00    +0.172 C 
ENDBRANCH   2   9
BRANCH   1  17
ATOM     16  N   UNL     1       5.748  -1.896   2.169  0.00  0.00    -0.285 N 
ATOM     17  C   UNL     1       4.988  -2.245   1.111  0.00  0.00    +0.228 C 
ATOM     18  O   UNL     1       5.465  -2.909   0.215  0.00  0.00    -0.275 OA
ATOM     19  H   UNL     1       5.349  -1.428   2.919  0.00  0.00    +0.155 HD
BRANCH  16  26
ATOM     20  C   UNL     1       7.512  -0.146   3.554  0.00  0.00    +0.045 C 
ATOM     21  C   UNL     1       8.008  -1.382   2.848  0.00  0.00    -0.029 A 
ATOM     22  C   UNL     1       9.352  -1.696   2.866  0.00  0.00    +0.005 A 
ATOM     23  C   UNL     1       9.809  -2.827   2.214  0.00  0.00    +0.000 A 
ATOM     24  C   UNL     1       8.919  -3.650   1.547  0.00  0.00    +0.002 A 
ATOM     25  C   UNL     1       7.573  -3.344   1.530  0.00  0.00    +0.023 A 
ATOM     26  C   UNL     1       7.112  -2.209   2.184  0.00  0.00    +0.036 A 
ENDBRANCH  16  26
ENDBRANCH   1  17
BRANCH   3  27
ATOM     27  C   UNL     1       1.219  -0.545  -0.084  0.00  0.00    +0.224 C 
ATOM     28  O   UNL     1       1.625   0.021   0.909  0.00  0.00    -0.275 OA
ATOM     29  N   UNL     1       0.597   0.156  -1.052  0.00  0.00    -0.285 N 
ATOM     30  H   UNL     1       0.251  -0.301  -1.835  0.00  0.00    +0.155 HD
BRANCH  29  31
ATOM     31  C   UNL     1       0.449   1.542  -0.928  0.00  0.00    +0.036 A 
ATOM     32  C   UNL     1       0.435   2.130   0.331  0.00  0.00    +0.023 A 
ATOM     33  C   UNL     1       0.289   3.498   0.450  0.00  0.00    +0.002 A 
ATOM     34  C   UNL     1       0.158   4.282  -0.682  0.00  0.00    +0.000 A 
ATOM     35  C   UNL     1       0.171   3.699  -1.936  0.00  0.00    +0.005 A 
ATOM     36  C   UNL     1       0.322   2.332  -2.062  0.00  0.00    -0.029 A 
ATOM     37  C   UNL     1       0.342   1.699  -3.429  0.00  0.00    +0.045 C 
ENDBRANCH  29  31
ENDBRANCH   3  27
BRANCH   4  38
ATOM     38  O   UNL     1       0.977  -4.157   0.832  0.00  0.00    -0.388 OA
ATOM     39  H   UNL     1       0.573  -4.678   1.539  0.00  0.00    +0.210 HD
ENDBRANCH   4  38
TORSDOF 6
