REMARK  Name = ZINC46585935
REMARK  11 active torsions:
REMARK  status: ('A' for Active; 'I' for Inactive)
REMARK    1  A    between atoms: C_1  and  C_2
REMARK    2  A    between atoms: C_4  and  C_30
REMARK    3  A    between atoms: C_8  and  N_29
REMARK    4  A    between atoms: C_9  and  C_11
REMARK    5  A    between atoms: C_11  and  O_13
REMARK    6  A    between atoms: O_13  and  C_14
REMARK    7  A    between atoms: C_14  and  C_15
REMARK    8  A    between atoms: N_17  and  C_18
REMARK    9  A    between atoms: N_17  and  C_22
REMARK   10  A    between atoms: C_18  and  C_19
REMARK   11  A    between atoms: C_19  and  C_20
REMARK                            x       y       z     vdW  Elec       q    Type
REMARK                         _______ _______ _______ _____ _____    ______ ____
ROOT
ATOM      1  C   UNL     1       1.979  -0.745   4.319  0.00  0.00    +0.348 C 
ATOM      2  O   UNL     1       2.116   0.412   4.672  0.00  0.00    -0.244 OA
ENDROOT
BRANCH   1  11
ATOM      3  C   UNL     1      -1.696   1.372   0.766  0.00  0.00    +0.044 C 
ATOM      4  C   UNL     1      -1.521  -0.123   0.688  0.00  0.00    -0.037 A 
ATOM      5  C   UNL     1      -2.240  -0.864  -0.221  0.00  0.00    +0.025 A 
ATOM      6  C   UNL     1      -2.078  -2.239  -0.290  0.00  0.00    +0.014 A 
ATOM      7  N   UNL     1      -1.231  -2.853   0.513  0.00  0.00    -0.353 N 
ATOM      8  C   UNL     1      -0.520  -2.189   1.399  0.00  0.00    +0.088 A 
ATOM      9  C   UNL     1      -0.609  -0.786   1.546  0.00  0.00    +0.030 A 
ATOM     10  C   UNL     1       0.254  -0.216   2.569  0.00  0.00    +0.055 A 
ATOM     11  C   UNL     1       1.067  -1.067   3.287  0.00  0.00    +0.119 A 
ATOM     12  S   UNL     1       0.683  -2.671   2.612  0.00  0.00    -0.062 S 
ATOM     13  C   UNL     1      -2.873  -3.037  -1.291  0.00  0.00    +0.063 C 
ATOM     14  H   UNL     1      -1.131  -3.816   0.450  0.00  0.00    +0.166 HD
BRANCH  10  15
ATOM     15  N   UNL     1       0.258   1.149   2.816  0.00  0.00    -0.356 N 
ATOM     16  H   UNL     1       0.106   1.774   2.090  0.00  0.00    +0.142 HD
ATOM     17  H   UNL     1       0.414   1.479   3.715  0.00  0.00    +0.142 HD
ENDBRANCH  10  15
ENDBRANCH   1  11
BRANCH   1  18
ATOM     18  O   UNL     1       2.697  -1.721   4.914  0.00  0.00    -0.451 OA
BRANCH  18  19
ATOM     19  C   UNL     1       3.599  -1.324   5.949  0.00  0.00    +0.328 C 
BRANCH  19  20
ATOM     20  C   UNL     1       4.308  -2.539   6.491  0.00  0.00    +0.258 C 
ATOM     21  O   UNL     1       4.064  -3.637   6.035  0.00  0.00    -0.272 OA
ATOM     22  N   UNL     1       5.212  -2.406   7.481  0.00  0.00    -0.265 N 
BRANCH  22  23
ATOM     23  C   UNL     1       5.870  -3.535   7.985  0.00  0.00    +0.072 A 
ATOM     24  C   UNL     1       7.071  -3.947   7.424  0.00  0.00    +0.026 A 
ATOM     25  C   UNL     1       7.719  -5.061   7.923  0.00  0.00    +0.002 A 
ATOM     26  C   UNL     1       7.173  -5.766   8.980  0.00  0.00    +0.003 A 
ATOM     27  C   UNL     1       5.976  -5.359   9.541  0.00  0.00    +0.040 A 
ATOM     28  C   UNL     1       5.326  -4.241   9.051  0.00  0.00    +0.145 A 
ATOM     29  F   UNL     1       4.160  -3.841   9.603  0.00  0.00    -0.204 F 
ENDBRANCH  22  23
BRANCH  22  30
ATOM     30  C   UNL     1       5.506  -1.080   8.031  0.00  0.00    +0.128 C 
BRANCH  30  31
ATOM     31  C   UNL     1       4.562  -0.793   9.201  0.00  0.00    +0.138 C 
BRANCH  31  32
ATOM     32  C   UNL     1       4.858   0.539   9.753  0.00  0.00    +0.064 C 
ATOM     33  N   UNL     1       5.086   1.567  10.180  0.00  0.00    -0.197 NA
ENDBRANCH  31  32
ENDBRANCH  30  31
ENDBRANCH  22  30
ENDBRANCH  19  20
ENDBRANCH  18  19
ENDBRANCH   1  18
TORSDOF 9
