REMARK  Name = ZINC39481017
REMARK  8 active torsions:
REMARK  status: ('A' for Active; 'I' for Inactive)
REMARK    1  A    between atoms: C_1  and  C_2
REMARK    2  A    between atoms: C_5  and  N_24
REMARK    3  A    between atoms: C_6  and  N_8
REMARK    4  A    between atoms: C_12  and  S_15
REMARK    5  A    between atoms: S_15  and  C_18
REMARK    6  A    between atoms: N_24  and  S_25
REMARK    7  A    between atoms: S_25  and  C_28
REMARK    8  A    between atoms: C_33  and  O_34
REMARK                            x       y       z     vdW  Elec       q    Type
REMARK                         _______ _______ _______ _____ _____    ______ ____
ROOT
ATOM      1  C   UNL     1       1.561   1.133   0.361  0.00  0.00    +0.044 C 
ATOM      2  C   UNL     1       1.228  -0.332   0.242  0.00  0.00    -0.049 A 
ATOM      3  C   UNL     1       0.974  -0.883  -1.000  0.00  0.00    +0.005 A 
ATOM      4  C   UNL     1       0.668  -2.226  -1.116  0.00  0.00    +0.026 A 
ATOM      5  C   UNL     1       0.615  -3.025   0.016  0.00  0.00    +0.069 A 
ATOM      6  C   UNL     1       0.871  -2.469   1.269  0.00  0.00    +0.053 A 
ATOM      7  C   UNL     1       1.182  -1.122   1.376  0.00  0.00    +0.028 A 
ENDROOT
BRANCH   6   8
ATOM      8  N   UNL     1       0.818  -3.271   2.417  0.00  0.00    -0.324 N 
ATOM      9  C   UNL     1       2.018  -3.966   2.907  0.00  0.00    +0.120 C 
ATOM     10  C   UNL     1       1.671  -5.444   3.118  0.00  0.00    +0.101 C 
ATOM     11  N   UNL     1       0.493  -5.548   3.989  0.00  0.00    -0.292 NA
ATOM     12  C   UNL     1      -0.688  -4.937   3.364  0.00  0.00    +0.220 C 
ATOM     13  C   UNL     1      -0.437  -3.434   3.166  0.00  0.00    +0.147 C 
ATOM     14  H   UNL     1       0.313  -6.508   4.241  0.00  0.00    +0.124 HD
BRANCH  12  15
ATOM     15  S   UNL     1      -2.131  -5.172   4.437  0.00  0.00    +0.014 S 
ATOM     16  O   UNL     1      -1.841  -4.722   5.753  0.00  0.00    -0.168 OA
ATOM     17  O   UNL     1      -3.312  -4.747   3.770  0.00  0.00    -0.168 OA
BRANCH  15  18
ATOM     18  C   UNL     1      -2.304  -6.919   4.588  0.00  0.00    +0.090 A 
ATOM     19  C   UNL     1      -3.080  -7.618   3.682  0.00  0.00    +0.027 A 
ATOM     20  C   UNL     1      -3.216  -8.988   3.800  0.00  0.00    +0.002 A 
ATOM     21  C   UNL     1      -2.574  -9.661   4.824  0.00  0.00    +0.000 A 
ATOM     22  C   UNL     1      -1.797  -8.962   5.729  0.00  0.00    +0.002 A 
ATOM     23  C   UNL     1      -1.659  -7.592   5.609  0.00  0.00    +0.027 A 
ENDBRANCH  15  18
ENDBRANCH  12  15
ENDBRANCH   6   8
BRANCH   5  24
ATOM     24  N   UNL     1       0.304  -4.386  -0.099  0.00  0.00    -0.214 N 
ATOM     25  H   UNL     1      -0.216  -4.824   0.592  0.00  0.00    +0.174 HD
BRANCH  24  26
ATOM     26  S   UNL     1       0.827  -5.246  -1.414  0.00  0.00    +0.076 S 
ATOM     27  O   UNL     1       2.195  -4.911  -1.601  0.00  0.00    -0.150 OA
ATOM     28  O   UNL     1       0.389  -6.584  -1.224  0.00  0.00    -0.150 OA
BRANCH  26  29
ATOM     29  C   UNL     1      -0.040  -4.628  -2.818  0.00  0.00    +0.150 A 
ATOM     30  C   UNL     1       0.653  -4.016  -3.845  0.00  0.00    +0.032 A 
ATOM     31  C   UNL     1      -0.026  -3.530  -4.946  0.00  0.00    +0.002 A 
ATOM     32  C   UNL     1      -1.401  -3.656  -5.024  0.00  0.00    +0.004 A 
ATOM     33  C   UNL     1      -2.099  -4.268  -4.001  0.00  0.00    +0.047 A 
ATOM     34  C   UNL     1      -1.419  -4.761  -2.897  0.00  0.00    +0.143 A 
BRANCH  34  35
ATOM     35  O   UNL     1      -2.102  -5.368  -1.891  0.00  0.00    -0.505 OA
ATOM     36  H   UNL     1      -2.414  -4.761  -1.206  0.00  0.00    +0.292 HD
ENDBRANCH  34  35
ENDBRANCH  26  29
ENDBRANCH  24  26
ENDBRANCH   5  24
TORSDOF 7
