REMARK  Name = ZINC63287843
REMARK  9 active torsions:
REMARK  status: ('A' for Active; 'I' for Inactive)
REMARK    1  A    between atoms: C_2  and  C_3
REMARK    2  A    between atoms: C_3  and  N_4
REMARK    3  A    between atoms: N_4  and  C_5
REMARK    4  A    between atoms: N_4  and  C_15
REMARK    5  A    between atoms: C_5  and  C_6
REMARK    6  A    between atoms: C_10  and  N_12
REMARK    7  A    between atoms: C_15  and  C_16
REMARK    8  A    between atoms: C_18  and  C_21
REMARK    9  A    between atoms: C_21  and  C_22
REMARK                            x       y       z     vdW  Elec       q    Type
REMARK                         _______ _______ _______ _____ _____    ______ ____
ROOT
ATOM      1  N   UNL     1      -1.197  -1.725  -1.130  0.00  0.00    -0.286 NA
ENDROOT
BRANCH   1   2
ATOM      2  C   UNL     1      -1.537  -0.969   0.082  0.00  0.00    +0.112 C 
BRANCH   2   4
ATOM      3  C   UNL     1      -1.544  -1.974   2.307  0.00  0.00    +0.005 C 
ATOM      4  C   UNL     1      -2.095  -1.908   1.120  0.00  0.00    -0.019 C 
ENDBRANCH   2   4
ENDBRANCH   1   2
BRANCH   1   5
ATOM      5  C   UNL     1      -2.397  -2.320  -1.734  0.00  0.00    +0.120 C 
BRANCH   5   6
ATOM      6  C   UNL     1      -3.301  -1.224  -2.238  0.00  0.00    -0.031 A 
ATOM      7  C   UNL     1      -4.263  -0.685  -1.404  0.00  0.00    +0.005 A 
ATOM      8  C   UNL     1      -5.093   0.320  -1.866  0.00  0.00    +0.003 A 
ATOM      9  C   UNL     1      -4.960   0.786  -3.161  0.00  0.00    +0.033 A 
ATOM     10  C   UNL     1      -3.997   0.247  -3.994  0.00  0.00    +0.126 A 
ATOM     11  C   UNL     1      -3.165  -0.755  -3.530  0.00  0.00    +0.037 A 
BRANCH  10  12
ATOM     12  N   UNL     1      -3.855   0.746  -5.380  0.00  0.00    +0.056 N 
ATOM     13  O   UNL     1      -4.581   1.624  -5.784  0.00  0.00    -0.126 OA
ATOM     14  O   UNL     1      -3.013   0.275  -6.108  0.00  0.00    -0.126 OA
ENDBRANCH  10  12
ENDBRANCH   5   6
ENDBRANCH   1   5
BRANCH   1  15
ATOM     15  C   UNL     1      -0.187  -2.753  -0.843  0.00  0.00    +0.184 C 
BRANCH  15  16
ATOM     16  C   UNL     1       1.161  -2.101  -0.678  0.00  0.00    +0.241 A 
ATOM     17  N   UNL     1       1.636  -1.597   0.427  0.00  0.00    -0.195 NA
ATOM     18  C   UNL     1       2.860  -1.099   0.216  0.00  0.00    +0.176 A 
ATOM     19  N   UNL     1       3.180  -1.283  -1.032  0.00  0.00    -0.061 NA
ATOM     20  O   UNL     1       2.080  -1.945  -1.639  0.00  0.00    -0.337 OA
BRANCH  18  21
ATOM     21  C   UNL     1       3.726  -0.435   1.255  0.00  0.00    +0.114 C 
BRANCH  21  22
ATOM     22  C   UNL     1       4.583  -1.473   1.932  0.00  0.00    -0.040 A 
ATOM     23  C   UNL     1       4.120  -2.122   3.061  0.00  0.00    +0.004 A 
ATOM     24  C   UNL     1       4.907  -3.074   3.683  0.00  0.00    +0.000 A 
ATOM     25  C   UNL     1       6.156  -3.377   3.175  0.00  0.00    +0.000 A 
ATOM     26  C   UNL     1       6.619  -2.728   2.046  0.00  0.00    +0.000 A 
ATOM     27  C   UNL     1       5.831  -1.779   1.422  0.00  0.00    +0.004 A 
ENDBRANCH  21  22
ENDBRANCH  18  21
ENDBRANCH  15  16
ENDBRANCH   1  15
TORSDOF 9
