REMARK  Name = ZINC31042713
REMARK  9 active torsions:
REMARK  status: ('A' for Active; 'I' for Inactive)
REMARK    1  A    between atoms: C_1  and  N_2
REMARK    2  A    between atoms: N_2  and  C_3
REMARK    3  A    between atoms: N_2  and  C_15
REMARK    4  A    between atoms: C_3  and  C_4
REMARK    5  A    between atoms: N_6  and  C_7
REMARK    6  A    between atoms: C_12  and  S_13
REMARK    7  A    between atoms: S_13  and  C_14
REMARK    8  A    between atoms: C_15  and  C_16
REMARK    9  A    between atoms: N_21  and  C_24
REMARK                            x       y       z     vdW  Elec       q    Type
REMARK                         _______ _______ _______ _____ _____    ______ ____
ROOT
ATOM      1  C   UNL     1       2.478   0.277   1.219  0.00  0.00    -0.095 C 
ATOM      2  N   UNL     1       2.410   1.042  -0.033  0.00  0.00    +0.389 N 
ATOM      3  H   UNL     1       2.245   0.330  -0.855  0.00  0.00    -0.081 HD
ENDROOT
BRANCH   2   4
ATOM      4  C   UNL     1       1.280   1.981  -0.015  0.00  0.00    +0.019 C 
BRANCH   4   5
ATOM      5  C   UNL     1      -0.014   1.209   0.005  0.00  0.00    +0.201 C 
ATOM      6  O   UNL     1       0.003  -0.004   0.005  0.00  0.00    -0.278 OA
ATOM      7  N   UNL     1      -1.191   1.867   0.018  0.00  0.00    -0.286 N 
ATOM      8  H   UNL     1      -1.207   2.963   0.110  0.00  0.00    +0.155 HD
BRANCH   7   9
ATOM      9  C   UNL     1      -2.393   1.154  -0.086  0.00  0.00    +0.047 A 
ATOM     10  C   UNL     1      -2.413  -0.090  -0.698  0.00  0.00    +0.024 A 
ATOM     11  C   UNL     1      -3.599  -0.794  -0.794  0.00  0.00    +0.002 A 
ATOM     12  C   UNL     1      -4.770  -0.256  -0.292  0.00  0.00    +0.001 A 
ATOM     13  C   UNL     1      -4.761   0.986   0.314  0.00  0.00    +0.016 A 
ATOM     14  C   UNL     1      -3.574   1.697   0.420  0.00  0.00    +0.029 A 
BRANCH  14  15
ATOM     15  S   UNL     1      -3.559   3.281   1.192  0.00  0.00    -0.127 S 
ATOM     16  C   UNL     1      -5.286   3.550   1.676  0.00  0.00    +0.090 C 
ENDBRANCH  14  15
ENDBRANCH   7   9
ENDBRANCH   4   5
ENDBRANCH   2   4
BRANCH   2  17
ATOM     17  C   UNL     1       3.674   1.744  -0.291  0.00  0.00    +0.019 C 
BRANCH  17  18
ATOM     18  C   UNL     1       4.765   0.736  -0.545  0.00  0.00    +0.199 C 
ATOM     19  O   UNL     1       4.514  -0.450  -0.515  0.00  0.00    -0.278 OA
ATOM     20  N   UNL     1       6.020   1.153  -0.807  0.00  0.00    -0.300 N 
ATOM     21  C   UNL     1       6.344   2.587  -0.855  0.00  0.00    +0.126 C 
ATOM     22  C   UNL     1       7.559   2.837   0.054  0.00  0.00    +0.124 C 
ATOM     23  N   UNL     1       8.652   1.940  -0.342  0.00  0.00    -0.327 N 
ATOM     24  C   UNL     1       8.283   0.531  -0.147  0.00  0.00    +0.124 C 
ATOM     25  C   UNL     1       7.100   0.187  -1.058  0.00  0.00    +0.126 C 
BRANCH  23  26
ATOM     26  C   UNL     1       9.829   2.249   0.348  0.00  0.00    +0.030 A 
ATOM     27  C   UNL     1      10.475   1.272   1.094  0.00  0.00    +0.026 A 
ATOM     28  C   UNL     1      11.639   1.578   1.771  0.00  0.00    +0.040 A 
ATOM     29  C   UNL     1      12.156   2.861   1.715  0.00  0.00    +0.124 A 
ATOM     30  C   UNL     1      11.511   3.839   0.976  0.00  0.00    +0.040 A 
ATOM     31  C   UNL     1      10.349   3.535   0.293  0.00  0.00    +0.026 A 
ATOM     32  F   UNL     1      13.293   3.160   2.382  0.00  0.00    -0.205 F 
ENDBRANCH  23  26
ENDBRANCH  17  18
ENDBRANCH   2  17
TORSDOF 7
