REMARK  Name = ZINC09908301
REMARK  10 active torsions:
REMARK  status: ('A' for Active; 'I' for Inactive)
REMARK    1  A    between atoms: C_1  and  C_2
REMARK    2  A    between atoms: C_4  and  C_29
REMARK    3  A    between atoms: C_5  and  O_9
REMARK    4  A    between atoms: O_9  and  C_10
REMARK    5  A    between atoms: C_10  and  C_11
REMARK    6  A    between atoms: N_13  and  N_14
REMARK    7  A    between atoms: C_15  and  C_16
REMARK    8  A    between atoms: C_17  and  C_28
REMARK    9  A    between atoms: N_19  and  C_22
REMARK   10  A    between atoms: C_20  and  O_21
REMARK                            x       y       z     vdW  Elec       q    Type
REMARK                         _______ _______ _______ _____ _____    ______ ____
ROOT
ATOM      1  N   UNL     1       2.078  -8.467   0.026  0.00  0.00    -0.187 NA
ATOM      2  C   UNL     1       3.109  -9.233  -0.166  0.00  0.00    +0.145 C 
ENDROOT
BRANCH   2   3
ATOM      3  C   UNL     1       4.464  -8.657  -0.170  0.00  0.00    +0.079 A 
ATOM      4  C   UNL     1       5.417  -8.760  -1.208  0.00  0.00    +0.073 A 
ATOM      5  N   UNL     1       6.493  -8.121  -0.840  0.00  0.00    -0.168 NA
ATOM      6  N   UNL     1       6.291  -7.582   0.435  0.00  0.00    -0.200 N 
ATOM      7  C   UNL     1       5.043  -7.907   0.842  0.00  0.00    +0.225 A 
ATOM      8  C   UNL     1       5.223  -9.484  -2.516  0.00  0.00    +0.068 C 
BRANCH   6   9
ATOM      9  C   UNL     1       7.222  -6.829   1.164  0.00  0.00    +0.069 A 
ATOM     10  C   UNL     1       6.790  -5.795   1.985  0.00  0.00    +0.028 A 
ATOM     11  C   UNL     1       7.709  -5.055   2.702  0.00  0.00    +0.002 A 
ATOM     12  C   UNL     1       9.058  -5.343   2.604  0.00  0.00    +0.000 A 
ATOM     13  C   UNL     1       9.491  -6.371   1.788  0.00  0.00    +0.002 A 
ATOM     14  C   UNL     1       8.576  -7.119   1.072  0.00  0.00    +0.028 A 
ENDBRANCH   6   9
BRANCH   7  15
ATOM     15  O   UNL     1       4.467  -7.566   2.021  0.00  0.00    -0.492 OA
ATOM     16  H   UNL     1       4.549  -8.241   2.709  0.00  0.00    +0.294 HD
ENDBRANCH   7  15
ENDBRANCH   2   3
BRANCH   1  19
ATOM     17  C   UNL     1       1.165  -6.276   0.208  0.00  0.00    +0.270 C 
ATOM     18  O   UNL     1       0.051  -6.757   0.234  0.00  0.00    -0.270 OA
ATOM     19  N   UNL     1       2.243  -7.078   0.105  0.00  0.00    -0.204 N 
ATOM     20  H   UNL     1       3.134  -6.693   0.085  0.00  0.00    +0.177 HD
BRANCH  17  21
ATOM     21  C   UNL     1       1.342  -4.782   0.293  0.00  0.00    +0.326 C 
BRANCH  21  22
ATOM     22  O   UNL     1       0.062  -4.155   0.396  0.00  0.00    -0.481 OA
BRANCH  22  27
ATOM     23  C   UNL     1      -0.015   1.466   0.750  0.00  0.00    +0.044 C 
ATOM     24  C   UNL     1       0.006  -0.037   0.655  0.00  0.00    -0.049 A 
ATOM     25  C   UNL     1      -0.043  -0.652  -0.582  0.00  0.00    +0.010 A 
ATOM     26  C   UNL     1      -0.024  -2.031  -0.672  0.00  0.00    -0.007 A 
ATOM     27  C   UNL     1       0.044  -2.799   0.481  0.00  0.00    +0.138 A 
ATOM     28  C   UNL     1       0.094  -2.180   1.722  0.00  0.00    +0.060 A 
ATOM     29  C   UNL     1       0.080  -0.800   1.806  0.00  0.00    +0.022 A 
ATOM     30 BR   UNL     1       0.186  -3.223   3.297  0.00  0.00    -0.047 Br
ATOM     31  C   UNL     1      -0.079  -2.699  -2.021  0.00  0.00    +0.047 C 
ENDBRANCH  22  27
ENDBRANCH  21  22
ENDBRANCH  17  21
ENDBRANCH   1  19
TORSDOF 7
