REMARK  Name = ZINC35747324
REMARK  14 active torsions:
REMARK  status: ('A' for Active; 'I' for Inactive)
REMARK    1  A    between atoms: C_1  and  O_2
REMARK    2  A    between atoms: O_2  and  C_3
REMARK    3  A    between atoms: C_3  and  C_4
REMARK    4  A    between atoms: C_4  and  C_6
REMARK    5  A    between atoms: C_4  and  O_33
REMARK    6  A    between atoms: C_6  and  N_7
REMARK    7  A    between atoms: N_7  and  C_8
REMARK    8  A    between atoms: N_7  and  C_30
REMARK    9  A    between atoms: C_8  and  C_9
REMARK   10  A    between atoms: C_15  and  C_20
REMARK   11  A    between atoms: C_23  and  O_28
REMARK   12  A    between atoms: C_24  and  O_26
REMARK   13  A    between atoms: O_26  and  C_27
REMARK   14  A    between atoms: O_28  and  C_29
REMARK                            x       y       z     vdW  Elec       q    Type
REMARK                         _______ _______ _______ _____ _____    ______ ____
ROOT
ATOM      1  C   UNL     1       1.480  -6.136  -3.494  0.00  0.00    +0.094 A 
ATOM      2  N   UNL     1       2.015  -6.800  -4.551  0.00  0.00    -0.312 N 
ATOM      3  H   UNL     1       2.473  -6.300  -5.245  0.00  0.00    +0.170 HD
ATOM      4  C   UNL     1       1.921  -8.138  -4.656  0.00  0.00    +0.260 A 
ATOM      5  O   UNL     1       2.406  -8.720  -5.611  0.00  0.00    -0.267 OA
ATOM      6  C   UNL     1       1.242  -8.868  -3.628  0.00  0.00    +0.080 A 
ATOM      7  C   UNL     1       1.012 -10.303  -3.515  0.00  0.00    +0.004 A 
ATOM      8  C   UNL     1       0.336 -10.772  -2.438  0.00  0.00    +0.056 A 
ATOM      9  S   UNL     1      -0.032  -9.297  -1.508  0.00  0.00    -0.076 S 
ATOM     10  C   UNL     1       0.723  -8.097  -2.576  0.00  0.00    +0.116 A 
ATOM     11  N   UNL     1       0.860  -6.774  -2.539  0.00  0.00    -0.229 NA
ENDROOT
BRANCH   7  12
ATOM     12  C   UNL     1       1.507 -11.233  -4.559  0.00  0.00    -0.013 A 
ATOM     13  C   UNL     1       1.245 -10.976  -5.904  0.00  0.00    +0.012 A 
ATOM     14  C   UNL     1       1.707 -11.842  -6.874  0.00  0.00    +0.050 A 
ATOM     15  C   UNL     1       2.432 -12.968  -6.515  0.00  0.00    +0.162 A 
ATOM     16  C   UNL     1       2.697 -13.229  -5.174  0.00  0.00    +0.162 A 
ATOM     17  C   UNL     1       2.241 -12.361  -4.197  0.00  0.00    +0.058 A 
BRANCH  16  18
ATOM     18  O   UNL     1       3.409 -14.334  -4.824  0.00  0.00    -0.491 OA
ATOM     19  C   UNL     1       3.644 -14.539  -3.429  0.00  0.00    +0.277 C 
ENDBRANCH  16  18
BRANCH  15  20
ATOM     20  O   UNL     1       2.884 -13.819  -7.475  0.00  0.00    -0.491 OA
ATOM     21  C   UNL     1       2.575 -13.490  -8.831  0.00  0.00    +0.277 C 
ENDBRANCH  15  20
ENDBRANCH   7  12
BRANCH   1  22
ATOM     22  C   UNL     1       1.611  -4.636  -3.420  0.00  0.00    -0.003 C 
BRANCH  22  23
ATOM     23  N   UNL     1       0.965  -4.149  -2.193  0.00  0.00    +0.388 N 
ATOM     24  H   UNL     1       0.010  -4.472  -2.165  0.00  0.00    -0.081 HD
BRANCH  23  25
ATOM     25  C   UNL     1       1.690  -4.661  -1.022  0.00  0.00    -0.068 C 
ATOM     26  C   UNL     1       0.932  -5.594  -0.075  0.00  0.00    -0.017 C 
ATOM     27  C   UNL     1       1.250  -4.161   0.355  0.00  0.00    -0.017 C 
ENDBRANCH  23  25
BRANCH  23  28
ATOM     28  C   UNL     1       0.987  -2.680  -2.179  0.00  0.00    -0.044 C 
BRANCH  28  29
ATOM     29  C   UNL     1       0.109  -2.146  -3.312  0.00  0.00    +0.124 C 
BRANCH  29  30
ATOM     30  O   UNL     1      -1.235  -2.595  -3.126  0.00  0.00    -0.391 OA
ATOM     31  H   UNL     1      -1.635  -2.305  -2.294  0.00  0.00    +0.210 HD
ENDBRANCH  29  30
BRANCH  29  32
ATOM     32  C   UNL     1       0.141  -0.616  -3.304  0.00  0.00    +0.188 C 
BRANCH  32  34
ATOM     33  C   UNL     1      -0.615   1.307  -4.519  0.00  0.00    +0.194 C 
ATOM     34  O   UNL     1      -0.583  -0.119  -4.431  0.00  0.00    -0.381 OA
ENDBRANCH  32  34
ENDBRANCH  29  32
ENDBRANCH  28  29
ENDBRANCH  23  28
ENDBRANCH  22  23
ENDBRANCH   1  22
TORSDOF 11
