REMARK  Name = ZINC28616776
REMARK  9 active torsions:
REMARK  status: ('A' for Active; 'I' for Inactive)
REMARK    1  A    between atoms: C_1  and  C_2
REMARK    2  A    between atoms: C_2  and  C_4
REMARK    3  A    between atoms: C_2  and  N_9
REMARK    4  A    between atoms: C_10  and  C_12
REMARK    5  A    between atoms: C_12  and  O_13
REMARK    6  A    between atoms: O_13  and  C_14
REMARK    7  A    between atoms: C_16  and  C_30
REMARK    8  A    between atoms: C_21  and  C_23
REMARK    9  A    between atoms: C_23  and  N_24
REMARK                            x       y       z     vdW  Elec       q    Type
REMARK                         _______ _______ _______ _____ _____    ______ ____
ROOT
ATOM      1  C   UNL     1       6.168   1.306   2.347  0.00  0.00    +0.227 A 
ATOM      2  C   UNL     1       7.039   0.488   1.583  0.00  0.00    +0.077 A 
ATOM      3  C   UNL     1       8.449   0.679   1.256  0.00  0.00    +0.010 A 
ATOM      4  C   UNL     1       9.075  -0.255   0.499  0.00  0.00    +0.057 A 
ATOM      5  S   UNL     1       7.796  -1.455   0.177  0.00  0.00    -0.076 S 
ATOM      6  C   UNL     1       6.461  -0.687   1.056  0.00  0.00    +0.116 A 
ATOM      7  N   UNL     1       5.197  -0.989   1.277  0.00  0.00    -0.227 NA
ATOM      8  C   UNL     1       4.435  -0.185   1.993  0.00  0.00    +0.118 A 
ATOM      9  N   UNL     1       4.912   0.931   2.515  0.00  0.00    -0.199 NA
ENDROOT
BRANCH   3  10
ATOM     10  C   UNL     1       9.181   1.868   1.742  0.00  0.00    +0.021 A 
ATOM     11  C   UNL     1      10.385   1.934   2.390  0.00  0.00    +0.016 A 
ATOM     12  C   UNL     1      10.875   3.172   2.751  0.00  0.00    +0.008 A 
ATOM     13  C   UNL     1      10.152   4.281   2.456  0.00  0.00    +0.046 A 
ATOM     14  S   UNL     1       8.727   3.591   1.632  0.00  0.00    -0.097 S 
ENDBRANCH   3  10
BRANCH   1  15
ATOM     15  O   UNL     1       6.619   2.458   2.898  0.00  0.00    -0.466 OA
BRANCH  15  16
ATOM     16  C   UNL     1       5.680   3.226   3.654  0.00  0.00    +0.326 C 
BRANCH  16  18
ATOM     17  N   UNL     1       5.661   5.343   4.933  0.00  0.00    -0.303 N 
ATOM     18  C   UNL     1       6.357   4.463   4.186  0.00  0.00    +0.251 C 
ATOM     19  O   UNL     1       7.527   4.667   3.942  0.00  0.00    -0.272 OA
ATOM     20  H   UNL     1       4.599   5.159   5.154  0.00  0.00    +0.149 HD
BRANCH  17  22
ATOM     21  C   UNL     1       7.027   6.215   6.765  0.00  0.00    +0.036 C 
ATOM     22  C   UNL     1       6.318   6.546   5.450  0.00  0.00    +0.136 C 
BRANCH  22  23
ATOM     23  C   UNL     1       5.287   7.618   5.691  0.00  0.00    +0.125 A 
ATOM     24  C   UNL     1       5.439   8.929   5.433  0.00  0.00    +0.046 A 
ATOM     25  C   UNL     1       4.232   9.564   5.806  0.00  0.00    +0.041 A 
ATOM     26  C   UNL     1       3.417   8.603   6.279  0.00  0.00    +0.195 A 
ATOM     27  O   UNL     1       4.061   7.427   6.207  0.00  0.00    -0.466 OA
ENDBRANCH  22  23
ENDBRANCH  17  22
ENDBRANCH  16  18
ENDBRANCH  15  16
ENDBRANCH   1  15
BRANCH   8  28
ATOM     28  C   UNL     1       2.991  -0.550   2.226  0.00  0.00    -0.001 C 
BRANCH  28  29
ATOM     29  N   UNL     1       2.163   0.021   1.155  0.00  0.00    +0.384 N 
ATOM     30  C   UNL     1       0.793  -0.505   1.212  0.00  0.00    -0.078 C 
ATOM     31  C   UNL     1       0.002  -0.004   0.002  0.00  0.00    -0.019 C 
ATOM     32  C   UNL     1      -0.019   1.527   0.010  0.00  0.00    -0.004 C 
ATOM     33  C   UNL     1       1.421   2.049  -0.001  0.00  0.00    -0.019 C 
ATOM     34  C   UNL     1       2.171   1.488   1.210  0.00  0.00    -0.078 C 
ATOM     35  H   UNL     1       2.598  -0.281   0.191  0.00  0.00    -0.081 HD
ENDBRANCH  28  29
ENDBRANCH   8  28
TORSDOF 8
