REMARK  Name = ZINC63744065
REMARK  12 active torsions:
REMARK  status: ('A' for Active; 'I' for Inactive)
REMARK    1  A    between atoms: C_1  and  C_2
REMARK    2  A    between atoms: C_4  and  C_35
REMARK    3  A    between atoms: C_9  and  N_21
REMARK    4  A    between atoms: N_10  and  C_11
REMARK    5  A    between atoms: C_11  and  C_13
REMARK    6  A    between atoms: C_16  and  O_19
REMARK    7  A    between atoms: O_19  and  C_20
REMARK    8  A    between atoms: N_21  and  C_22
REMARK    9  A    between atoms: C_22  and  C_23
REMARK   10  A    between atoms: C_23  and  C_24
REMARK   11  A    between atoms: C_28  and  O_33
REMARK   12  A    between atoms: O_33  and  C_34
REMARK                            x       y       z     vdW  Elec       q    Type
REMARK                         _______ _______ _______ _____ _____    ______ ____
ROOT
ATOM      1  C   UNL     1      -0.380  -6.664   5.783  0.00  0.00    +0.066 C 
ATOM      2  C   UNL     1      -0.377  -6.131   4.373  0.00  0.00    +0.044 A 
ATOM      3  C   UNL     1      -0.358  -7.002   3.294  0.00  0.00    +0.046 A 
ATOM      4  C   UNL     1      -0.357  -6.470   2.014  0.00  0.00    +0.044 A 
ATOM      5  N   UNL     1      -0.373  -5.156   1.861  0.00  0.00    -0.217 NA
ATOM      6  C   UNL     1      -0.391  -4.352   2.914  0.00  0.00    +0.231 A 
ATOM      7  N   UNL     1      -0.398  -4.828   4.150  0.00  0.00    -0.217 NA
ATOM      8  N   UNL     1      -0.409  -2.978   2.717  0.00  0.00    -0.295 N 
ATOM      9  C   UNL     1      -0.312  -2.132   3.787  0.00  0.00    +0.218 C 
ATOM     10  N   UNL     1      -0.085  -2.619   4.997  0.00  0.00    -0.141 NA
ATOM     11  C   UNL     1      -0.336  -7.377   0.811  0.00  0.00    +0.066 C 
ATOM     12  H   UNL     1      -0.489  -2.618   1.820  0.00  0.00    +0.172 HD
ENDROOT
BRANCH  10  13
ATOM     13  C   UNL     1       0.100  -1.786   6.030  0.00  0.00    +0.270 C 
ATOM     14  O   UNL     1      -0.033  -0.585   5.877  0.00  0.00    -0.268 OA
BRANCH  13  15
ATOM     15  C   UNL     1       0.467  -2.325   7.358  0.00  0.00    +0.039 A 
ATOM     16  C   UNL     1       0.742  -3.686   7.509  0.00  0.00    +0.017 A 
ATOM     17  C   UNL     1       1.083  -4.185   8.747  0.00  0.00    +0.046 A 
ATOM     18  C   UNL     1       1.154  -3.335   9.845  0.00  0.00    +0.120 A 
ATOM     19  C   UNL     1       0.881  -1.980   9.698  0.00  0.00    +0.046 A 
ATOM     20  C   UNL     1       0.544  -1.474   8.462  0.00  0.00    +0.017 A 
BRANCH  18  21
ATOM     21  O   UNL     1       1.490  -3.830  11.063  0.00  0.00    -0.495 OA
ATOM     22  C   UNL     1       1.544  -2.902  12.148  0.00  0.00    +0.277 C 
ENDBRANCH  18  21
ENDBRANCH  13  15
ENDBRANCH  10  13
BRANCH   9  23
ATOM     23  N   UNL     1      -0.448  -0.787   3.608  0.00  0.00    -0.252 NA
BRANCH  23  24
ATOM     24  C   UNL     1      -0.807  -0.256   2.291  0.00  0.00    +0.149 C 
BRANCH  24  25
ATOM     25  C   UNL     1      -0.775   1.273   2.331  0.00  0.00    +0.056 C 
BRANCH  25  26
ATOM     26  C   UNL     1      -1.262   1.820   1.014  0.00  0.00    -0.040 C 
ATOM     27  C   UNL     1      -2.517   2.223   0.717  0.00  0.00    -0.001 A 
ATOM     28  C   UNL     1      -3.757   2.270   1.503  0.00  0.00    +0.013 A 
ATOM     29  C   UNL     1      -4.885   2.735   0.923  0.00  0.00    +0.046 A 
ATOM     30  C   UNL     1      -4.900   3.173  -0.415  0.00  0.00    +0.122 A 
ATOM     31  C   UNL     1      -3.793   3.159  -1.200  0.00  0.00    +0.071 A 
ATOM     32  C   UNL     1      -2.558   2.691  -0.688  0.00  0.00    +0.046 A 
ATOM     33  N   UNL     1      -1.370   2.579  -1.238  0.00  0.00    -0.380 N 
ATOM     34  C   UNL     1      -0.443   2.035  -0.239  0.00  0.00    +0.144 C 
ATOM     35  H   UNL     1      -1.143   2.820  -2.150  0.00  0.00    +0.160 HD
BRANCH  30  36
ATOM     36  O   UNL     1      -6.066   3.627  -0.939  0.00  0.00    -0.495 OA
ATOM     37  C   UNL     1      -7.207   3.626  -0.079  0.00  0.00    +0.277 C 
ENDBRANCH  30  36
ENDBRANCH  25  26
ENDBRANCH  24  25
ENDBRANCH  23  24
ENDBRANCH   9  23
TORSDOF 8
