REMARK  Name = ZINC35135571
REMARK  5 active torsions:
REMARK  status: ('A' for Active; 'I' for Inactive)
REMARK    1  A    between atoms: C_1  and  C_2
REMARK    2  A    between atoms: C_6  and  N_9
REMARK    3  A    between atoms: C_7  and  C_8
REMARK    4  A    between atoms: C_10  and  N_12
REMARK    5  A    between atoms: C_17  and  C_19
REMARK                            x       y       z     vdW  Elec       q    Type
REMARK                         _______ _______ _______ _____ _____    ______ ____
ROOT
ATOM      1  N   UNL     1       0.052  -2.797   2.392  0.00  0.00    -0.268 N 
ATOM      2  C   UNL     1       0.562  -4.044   2.435  0.00  0.00    +0.330 C 
ATOM      3  O   UNL     1       1.093  -4.520   1.446  0.00  0.00    -0.250 OA
ATOM      4  H   UNL     1      -0.297  -2.388   3.199  0.00  0.00    +0.156 HD
ENDROOT
BRANCH   1  10
ATOM      5  C   UNL     1      -0.048   1.493  -0.006  0.00  0.00    +0.044 C 
ATOM      6  C   UNL     1      -0.025  -0.014  -0.009  0.00  0.00    -0.046 A 
ATOM      7  C   UNL     1      -0.030  -0.703  -1.208  0.00  0.00    +0.004 A 
ATOM      8  C   UNL     1      -0.007  -2.085  -1.214  0.00  0.00    +0.002 A 
ATOM      9  C   UNL     1       0.019  -2.783  -0.022  0.00  0.00    +0.023 A 
ATOM     10  C   UNL     1       0.025  -2.094   1.183  0.00  0.00    +0.038 A 
ATOM     11  C   UNL     1       0.008  -0.705   1.186  0.00  0.00    -0.026 A 
ATOM     12  C   UNL     1       0.020   0.047   2.492  0.00  0.00    +0.046 C 
ENDBRANCH   1  10
BRANCH   2  13
ATOM     13  N   UNL     1       0.487  -4.758   3.562  0.00  0.00    -0.139 NA
ATOM     14  C   UNL     1       0.991  -5.989   3.604  0.00  0.00    +0.165 A 
ATOM     15  N   UNL     1       1.619  -6.681   2.614  0.00  0.00    -0.342 N 
ATOM     16  H   UNL     1       1.749  -6.283   1.739  0.00  0.00    +0.167 HD
ATOM     17  C   UNL     1       2.062  -7.941   2.874  0.00  0.00    +0.095 A 
ATOM     18  C   UNL     1       1.849  -8.425   4.102  0.00  0.00    +0.006 A 
ATOM     19  S   UNL     1       1.013  -7.065   4.896  0.00  0.00    -0.058 S 
ATOM     20  C   UNL     1       2.223  -9.770   4.670  0.00  0.00    +0.053 C 
ENDBRANCH   2  13
TORSDOF 2
