REMARK  Name = ZINC64079261
REMARK  12 active torsions:
REMARK  status: ('A' for Active; 'I' for Inactive)
REMARK    1  A    between atoms: C_1  and  C_2
REMARK    2  A    between atoms: C_5  and  C_7
REMARK    3  A    between atoms: N_9  and  C_10
REMARK    4  A    between atoms: C_10  and  C_11
REMARK    5  A    between atoms: N_13  and  C_14
REMARK    6  A    between atoms: C_14  and  C_15
REMARK    7  A    between atoms: C_15  and  C_17
REMARK    8  A    between atoms: C_15  and  C_27
REMARK    9  A    between atoms: C_21  and  O_25
REMARK   10  A    between atoms: C_22  and  O_23
REMARK   11  A    between atoms: O_23  and  C_24
REMARK   12  A    between atoms: O_25  and  C_26
REMARK                            x       y       z     vdW  Elec       q    Type
REMARK                         _______ _______ _______ _____ _____    ______ ____
ROOT
ATOM      1  C   UNL     1       0.805  -7.785   6.738  0.00  0.00    +0.068 C 
ENDROOT
BRANCH   1   2
ATOM      2  C   UNL     1       1.201  -8.484   8.013  0.00  0.00    -0.033 C 
ATOM      3  C   UNL     1       0.446  -8.639   9.124  0.00  0.00    -0.000 A 
ATOM      4  C   UNL     1      -0.919  -8.219   9.465  0.00  0.00    +0.010 A 
ATOM      5  C   UNL     1      -1.414  -8.527  10.685  0.00  0.00    +0.001 A 
ATOM      6  C   UNL     1      -0.659  -9.234  11.630  0.00  0.00    +0.002 A 
ATOM      7  C   UNL     1       0.602  -9.654  11.390  0.00  0.00    +0.026 A 
ATOM      8  C   UNL     1       1.222  -9.385  10.139  0.00  0.00    +0.043 A 
ATOM      9  N   UNL     1       2.412  -9.680   9.674  0.00  0.00    -0.380 N 
ATOM     10  C   UNL     1       2.522  -9.159   8.307  0.00  0.00    +0.145 C 
ATOM     11  H   UNL     1       3.103 -10.166  10.152  0.00  0.00    +0.160 HD
ENDBRANCH   1   2
BRANCH   1  12
ATOM     12  C   UNL     1       0.866  -8.761   5.591  0.00  0.00    +0.007 A 
ATOM     13  C   UNL     1       2.078  -9.310   5.214  0.00  0.00    +0.008 A 
ATOM     14  C   UNL     1       2.138 -10.205   4.163  0.00  0.00    +0.004 A 
ATOM     15  C   UNL     1       0.986 -10.554   3.482  0.00  0.00    +0.049 A 
ATOM     16  C   UNL     1      -0.231 -10.008   3.854  0.00  0.00    +0.162 A 
ATOM     17  C   UNL     1      -0.292  -9.111   4.917  0.00  0.00    +0.165 A 
BRANCH  17  18
ATOM     18  O   UNL     1      -1.486  -8.576   5.289  0.00  0.00    -0.491 OA
ATOM     19  C   UNL     1      -1.934  -7.426   4.569  0.00  0.00    +0.277 C 
ENDBRANCH  17  18
BRANCH  16  20
ATOM     20  O   UNL     1      -1.365 -10.351   3.185  0.00  0.00    -0.491 OA
ATOM     21  C   UNL     1      -1.227 -11.280   2.109  0.00  0.00    +0.277 C 
ENDBRANCH  16  20
ENDBRANCH   1  12
BRANCH   1  22
ATOM     22  C   UNL     1       1.765  -6.624   6.472  0.00  0.00    +0.117 C 
BRANCH  22  25
ATOM     23  C   UNL     1       1.952  -4.748   4.929  0.00  0.00    +0.230 C 
ATOM     24  O   UNL     1       2.893  -4.345   5.579  0.00  0.00    -0.274 OA
ATOM     25  N   UNL     1       1.317  -5.880   5.292  0.00  0.00    -0.313 N 
ATOM     26  H   UNL     1       0.564  -6.202   4.773  0.00  0.00    +0.149 HD
BRANCH  23  27
ATOM     27  C   UNL     1       1.491  -3.982   3.716  0.00  0.00    +0.200 C 
BRANCH  27  30
ATOM     28  C   UNL     1       2.108  -1.959   2.506  0.00  0.00    +0.217 C 
ATOM     29  O   UNL     1       1.204  -2.183   1.729  0.00  0.00    -0.275 OA
ATOM     30  N   UNL     1       2.336  -2.799   3.535  0.00  0.00    -0.306 N 
ATOM     31  H   UNL     1       3.060  -2.621   4.155  0.00  0.00    +0.149 HD
BRANCH  28  35
ATOM     32  C   UNL     1       2.881   1.675   1.324  0.00  0.00    +0.008 C 
ATOM     33  C   UNL     1       2.668   0.172   1.132  0.00  0.00    -0.002 C 
ATOM     34  C   UNL     1       3.911  -0.720   1.106  0.00  0.00    +0.017 C 
ATOM     35  C   UNL     1       2.978  -0.743   2.319  0.00  0.00    +0.078 C 
ENDBRANCH  28  35
ENDBRANCH  27  30
ENDBRANCH  23  27
ENDBRANCH  22  25
ENDBRANCH   1  22
TORSDOF 9
