REMARK  Name = ZINC15482215
REMARK  7 active torsions:
REMARK  status: ('A' for Active; 'I' for Inactive)
REMARK    1  A    between atoms: C_1  and  C_2
REMARK    2  A    between atoms: N_10  and  N_14
REMARK    3  A    between atoms: C_15  and  C_17
REMARK    4  A    between atoms: C_17  and  N_58
REMARK    5  A    between atoms: C_18  and  N_58
REMARK    6  A    between atoms: C_19  and  C_20
REMARK    7  A    between atoms: C_19  and  N_58
REMARK                            x       y       z     vdW  Elec       q    Type
REMARK                         _______ _______ _______ _____ _____    ______ ____
ROOT
ATOM      1  N   UNL     1       0.306  11.079   3.199  0.00  0.00    -0.225 N 
ATOM      2  C   UNL     1       0.563   9.789   2.904  0.00  0.00    +0.213 C 
ATOM      3  O   UNL     1       0.609   8.962   3.789  0.00  0.00    -0.276 OA
ATOM      4  H   UNL     1       0.269  11.741   2.490  0.00  0.00    +0.173 HD
ENDROOT
BRANCH   1  14
ATOM      5  C   UNL     1      -0.373  13.495  10.728  0.00  0.00    +0.007 C 
ATOM      6  C   UNL     1       0.315  13.309   9.374  0.00  0.00    -0.014 C 
ATOM      7  C   UNL     1       0.438  11.815   9.066  0.00  0.00    +0.006 C 
ATOM      8  C   UNL     1       1.137  11.629   7.717  0.00  0.00    +0.035 C 
ATOM      9  C   UNL     1       0.334  12.326   6.625  0.00  0.00    +0.114 C 
ATOM     10  C   UNL     1       0.182  13.812   6.931  0.00  0.00    +0.035 C 
ATOM     11  C   UNL     1      -0.513  13.989   8.283  0.00  0.00    +0.006 C 
ATOM     12  C   UNL     1       0.995  12.130   5.279  0.00  0.00    +0.263 C 
ATOM     13  O   UNL     1       2.102  12.493   4.946  0.00  0.00    -0.271 OA
ATOM     14  N   UNL     1       0.093  11.464   4.529  0.00  0.00    -0.137 N 
ATOM     15  C   UNL     1      -1.034  11.223   5.210  0.00  0.00    +0.326 C 
ATOM     16  O   UNL     1      -1.994  10.642   4.744  0.00  0.00    -0.251 OA
ATOM     17  N   UNL     1      -0.982  11.694   6.471  0.00  0.00    -0.284 N 
ATOM     18  H   UNL     1      -1.679  11.632   7.143  0.00  0.00    +0.151 HD
ENDBRANCH   1  14
BRANCH   2  19
ATOM     19  C   UNL     1       0.793   9.375   1.473  0.00  0.00    +0.020 C 
BRANCH  19  21
ATOM     20  C   UNL     1       2.314   7.594   2.086  0.00  0.00    -0.095 C 
ATOM     21  N   UNL     1       1.029   7.916   1.431  0.00  0.00    +0.386 N 
ATOM     22  H   UNL     1       0.270   7.441   1.934  0.00  0.00    -0.081 HD
BRANCH  21  23
ATOM     23  C   UNL     1       1.044   7.447   0.030  0.00  0.00    -0.043 C 
BRANCH  23  24
ATOM     24  C   UNL     1       1.064   5.940   0.022  0.00  0.00    -0.063 A 
ATOM     25  C   UNL     1       2.286   5.270   0.008  0.00  0.00    +0.002 A 
ATOM     26  C   UNL     1       2.340   3.910  -0.000  0.00  0.00    +0.009 A 
ATOM     27  C   UNL     1       1.147   3.167   0.008  0.00  0.00    -0.018 A 
ATOM     28  C   UNL     1       1.163   1.762   0.000  0.00  0.00    +0.008 A 
ATOM     29  C   UNL     1      -0.013   1.076   0.008  0.00  0.00    +0.001 A 
ATOM     30  C   UNL     1      -1.235   1.746   0.017  0.00  0.00    +0.001 A 
ATOM     31  C   UNL     1      -1.288   3.106   0.030  0.00  0.00    +0.008 A 
ATOM     32  C   UNL     1      -0.096   3.849   0.023  0.00  0.00    -0.018 A 
ATOM     33  C   UNL     1      -0.111   5.254   0.030  0.00  0.00    +0.010 A 
ENDBRANCH  23  24
ENDBRANCH  21  23
ENDBRANCH  19  21
ENDBRANCH   2  19
TORSDOF 5
