REMARK  Name = ZINC65398195
REMARK  3 active torsions:
REMARK  status: ('A' for Active; 'I' for Inactive)
REMARK    1  A    between atoms: C_1  and  C_2
REMARK    2  A    between atoms: C_9  and  C_13
REMARK    3  A    between atoms: C_16  and  C_26
REMARK                            x       y       z     vdW  Elec       q    Type
REMARK                         _______ _______ _______ _____ _____    ______ ____
ROOT
ATOM      1  C   UNL     1       0.325  -3.131   3.186  0.00  0.00    +0.191 C 
ATOM      2  N   UNL     1       0.092  -1.812   3.825  0.00  0.00    -0.279 NA
ATOM      3  C   UNL     1      -0.082  -2.173   5.259  0.00  0.00    +0.144 C 
ATOM      4  N   UNL     1       0.867  -3.304   5.422  0.00  0.00    -0.220 NA
ATOM      5  N   UNL     1       0.787  -4.029   4.256  0.00  0.00    -0.230 N 
ATOM      6  C   UNL     1       1.089  -5.378   4.112  0.00  0.00    +0.136 A 
ATOM      7  C   UNL     1       1.512  -6.112   5.217  0.00  0.00    +0.045 A 
ATOM      8  C   UNL     1       1.809  -7.453   5.060  0.00  0.00    +0.005 A 
ATOM      9  C   UNL     1       1.674  -8.019   3.799  0.00  0.00    +0.020 A 
ATOM     10  C   UNL     1       1.250  -7.232   2.747  0.00  0.00    +0.113 A 
ATOM     11  N   UNL     1       0.968  -5.956   2.927  0.00  0.00    -0.239 NA
ATOM     12  H   UNL     1       0.887  -1.204   3.699  0.00  0.00    +0.125 HD
ATOM     13  H   UNL     1       0.619  -3.871   6.219  0.00  0.00    +0.146 HD
ENDROOT
BRANCH   1  21
ATOM     14  C   UNL     1      -0.019   1.526   0.010  0.00  0.00    +0.008 C 
ATOM     15  C   UNL     1       0.002  -0.004   0.002  0.00  0.00    -0.010 C 
ATOM     16  C   UNL     1       0.721  -0.499  -1.256  0.00  0.00    +0.010 C 
ATOM     17  C   UNL     1       0.541  -2.015  -1.391  0.00  0.00    +0.057 C 
ATOM     18  C   UNL     1       0.916  -2.663  -0.076  0.00  0.00    +0.065 C 
ATOM     19  C   UNL     1       1.002  -1.982   1.071  0.00  0.00    -0.017 C 
ATOM     20  C   UNL     1       0.747  -0.514   1.244  0.00  0.00    +0.038 C 
ATOM     21  C   UNL     1       1.397  -3.009   2.102  0.00  0.00    +0.192 C 
ATOM     22  N   UNL     1       1.486  -4.248   1.305  0.00  0.00    -0.176 NA
ATOM     23  N   UNL     1       1.208  -3.965   0.135  0.00  0.00    -0.158 NA
ENDBRANCH   1  21
BRANCH   3  24
ATOM     24  C   UNL     1       0.302  -1.001   6.165  0.00  0.00    +0.022 C 
ATOM     25  C   UNL     1      -0.707  -0.574   7.232  0.00  0.00    +0.007 C 
ATOM     26  C   UNL     1      -0.480   0.304   6.000  0.00  0.00    +0.007 C 
ENDBRANCH   3  24
TORSDOF 2
