REMARK  Name = ZINC39670064
REMARK  6 active torsions:
REMARK  status: ('A' for Active; 'I' for Inactive)
REMARK    1  A    between atoms: C_1  and  C_2
REMARK    2  A    between atoms: C_7  and  C_11
REMARK    3  A    between atoms: C_11  and  N_12
REMARK    4  A    between atoms: C_13  and  C_15
REMARK    5  A    between atoms: C_26  and  C_28
REMARK    6  A    between atoms: C_32  and  C_34
REMARK                            x       y       z     vdW  Elec       q    Type
REMARK                         _______ _______ _______ _____ _____    ______ ____
ROOT
ATOM      1  C   UNL     1       2.836  -7.696   3.159  0.00  0.00    +0.100 C 
ATOM      2  C   UNL     1       3.906  -7.862   2.057  0.00  0.00    +0.121 C 
ATOM      3  N   UNL     1       4.791  -8.942   2.553  0.00  0.00    -0.296 N 
ATOM      4  C   UNL     1       3.866  -9.917   3.180  0.00  0.00    +0.115 C 
ATOM      5  C   UNL     1       2.812  -9.047   3.893  0.00  0.00    -0.004 C 
ATOM      6  C   UNL     1       1.433  -9.688   3.776  0.00  0.00    -0.010 C 
ATOM      7  C   UNL     1       1.417 -11.002   4.563  0.00  0.00    -0.082 C 
ATOM      8  N   UNL     1       1.737 -10.735   5.970  0.00  0.00    +0.379 N 
ATOM      9  C   UNL     1       3.101 -10.205   6.082  0.00  0.00    -0.082 C 
ATOM     10  C   UNL     1       3.188  -8.858   5.360  0.00  0.00    -0.010 C 
ATOM     11  C   UNL     1       6.133  -9.019   2.458  0.00  0.00    +0.247 C 
ATOM     12  O   UNL     1       6.767  -8.076   2.028  0.00  0.00    -0.270 OA
ATOM     13  H   UNL     1       1.084 -10.060   6.340  0.00  0.00    -0.086 HD
ATOM     14  H   UNL     1       1.666 -11.592   6.498  0.00  0.00    -0.086 HD
ENDROOT
BRANCH  11  15
ATOM     15  C   UNL     1       6.833 -10.251   2.876  0.00  0.00    +0.038 A 
ATOM     16  C   UNL     1       6.138 -11.460   2.954  0.00  0.00    +0.016 A 
ATOM     17  C   UNL     1       6.796 -12.606   3.344  0.00  0.00    +0.039 A 
ATOM     18  C   UNL     1       8.146 -12.561   3.659  0.00  0.00    +0.135 A 
ATOM     19  C   UNL     1       8.840 -11.364   3.583  0.00  0.00    +0.091 A 
ATOM     20  C   UNL     1       8.193 -10.212   3.188  0.00  0.00    +0.028 A 
ATOM     21  F   UNL     1       8.786 -13.688   4.042  0.00  0.00    -0.205 F 
BRANCH  19  22
ATOM     22  C   UNL     1      10.307 -11.322   3.927  0.00  0.00    +0.420 C 
ATOM     23  F   UNL     1      10.784 -10.016   3.777  0.00  0.00    -0.166 F 
ATOM     24  F   UNL     1      10.487 -11.735   5.252  0.00  0.00    -0.166 F 
ATOM     25  F   UNL     1      11.011 -12.177   3.073  0.00  0.00    -0.166 F 
ENDBRANCH  19  22
ENDBRANCH  11  15
BRANCH   1  27
ATOM     26  N   UNL     1       0.588  -6.664   3.215  0.00  0.00    -0.309 N 
ATOM     27  C   UNL     1       1.490  -7.409   2.545  0.00  0.00    +0.219 C 
ATOM     28  O   UNL     1       1.218  -7.848   1.448  0.00  0.00    -0.275 OA
ATOM     29  H   UNL     1       0.806  -6.312   4.092  0.00  0.00    +0.149 HD
BRANCH  26  30
ATOM     30  C   UNL     1      -0.720  -6.385   2.617  0.00  0.00    +0.159 C 
BRANCH  30  37
ATOM     31  C   UNL     1      -5.095  -3.573   7.891  0.00  0.00    +0.044 C 
ATOM     32  C   UNL     1      -4.162  -3.676   6.711  0.00  0.00    -0.046 A 
ATOM     33  C   UNL     1      -3.740  -2.516   6.041  0.00  0.00    +0.021 A 
ATOM     34  C   UNL     1      -2.905  -2.605   4.985  0.00  0.00    +0.093 A 
ATOM     35  N   UNL     1      -2.459  -3.820   4.553  0.00  0.00    -0.308 N 
ATOM     36  C   UNL     1      -1.627  -4.191   3.531  0.00  0.00    +0.115 A 
ATOM     37  C   UNL     1      -1.533  -5.538   3.562  0.00  0.00    +0.051 A 
ATOM     38  N   UNL     1      -2.281  -5.995   4.570  0.00  0.00    -0.342 N 
ATOM     39  C   UNL     1      -2.853  -4.970   5.186  0.00  0.00    +0.116 A 
ATOM     40  C   UNL     1      -3.721  -4.893   6.294  0.00  0.00    +0.048 A 
ATOM     41  H   UNL     1      -2.389  -6.928   4.812  0.00  0.00    +0.167 HD
ENDBRANCH  30  37
ENDBRANCH  26  30
ENDBRANCH   1  27
TORSDOF 5
