REMARK  Name = ZINC04834143
REMARK  9 active torsions:
REMARK  status: ('A' for Active; 'I' for Inactive)
REMARK    1  A    between atoms: C_1  and  C_2
REMARK    2  A    between atoms: C_2  and  C_18
REMARK    3  A    between atoms: N_3  and  N_4
REMARK    4  A    between atoms: N_4  and  S_5
REMARK    5  A    between atoms: S_5  and  C_8
REMARK    6  A    between atoms: C_11  and  C_14
REMARK    7  A    between atoms: C_14  and  C_15
REMARK    8  A    between atoms: C_14  and  C_16
REMARK    9  A    between atoms: C_14  and  C_17
REMARK                            x       y       z     vdW  Elec       q    Type
REMARK                         _______ _______ _______ _____ _____    ______ ____
ROOT
ATOM      1  S   UNL     1       1.147   3.847   0.011  0.00  0.00    +0.086 S 
ATOM      2  O   UNL     1       2.382   4.273  -0.549  0.00  0.00    -0.149 OA
ATOM      3  O   UNL     1      -0.109   4.239  -0.526  0.00  0.00    -0.149 OA
ENDROOT
BRANCH   1   4
ATOM      4  C   UNL     1       1.171   2.086   0.002  0.00  0.00    +0.110 A 
ATOM      5  C   UNL     1      -0.017   1.378   0.010  0.00  0.00    +0.029 A 
ATOM      6  C   UNL     1       0.002  -0.004   0.002  0.00  0.00    +0.006 A 
ATOM      7  C   UNL     1       1.208  -0.679  -0.014  0.00  0.00    -0.042 A 
ATOM      8  C   UNL     1       2.396   0.029  -0.021  0.00  0.00    +0.006 A 
ATOM      9  C   UNL     1       2.377   1.411  -0.014  0.00  0.00    +0.029 A 
BRANCH   7  10
ATOM     10  C   UNL     1       1.229  -2.186  -0.022  0.00  0.00    -0.013 C 
ATOM     11  C   UNL     1       0.502  -2.699  -1.267  0.00  0.00    +0.015 C 
ATOM     12  C   UNL     1       2.678  -2.676  -0.039  0.00  0.00    +0.015 C 
ATOM     13  C   UNL     1       0.527  -2.712   1.232  0.00  0.00    +0.015 C 
ENDBRANCH   7  10
ENDBRANCH   1   4
BRANCH   1  14
ATOM     14  N   UNL     1       1.155   4.329   1.596  0.00  0.00    -0.136 N 
ATOM     15  H   UNL     1       0.424   4.862   1.944  0.00  0.00    +0.197 HD
BRANCH  14  18
ATOM     16  C   UNL     1       1.089   5.172   4.216  0.00  0.00    +0.068 C 
ATOM     17  C   UNL     1       2.225   4.344   3.674  0.00  0.00    +0.065 C 
ATOM     18  N   UNL     1       2.219   3.966   2.433  0.00  0.00    -0.171 NA
BRANCH  17  19
ATOM     19  C   UNL     1       3.345   3.962   4.555  0.00  0.00    -0.002 A 
ATOM     20  C   UNL     1       3.358   4.372   5.890  0.00  0.00    +0.011 A 
ATOM     21  C   UNL     1       4.405   4.007   6.710  0.00  0.00    +0.020 A 
ATOM     22  C   UNL     1       5.448   3.246   6.209  0.00  0.00    +0.041 A 
ATOM     23  C   UNL     1       5.444   2.841   4.885  0.00  0.00    +0.020 A 
ATOM     24  C   UNL     1       4.400   3.195   4.056  0.00  0.00    +0.011 A 
ATOM     25 CL   UNL     1       6.765   2.796   7.246  0.00  0.00    -0.084 Cl
ENDBRANCH  17  19
ENDBRANCH  14  18
ENDBRANCH   1  14
TORSDOF 5
