REMARK  Name = ZINC04985239
REMARK  16 active torsions:
REMARK  status: ('A' for Active; 'I' for Inactive)
REMARK    1  A    between atoms: C_1  and  C_2
REMARK    2  A    between atoms: C_2  and  C_3
REMARK    3  A    between atoms: C_3  and  N_4
REMARK    4  A    between atoms: N_4  and  C_5
REMARK    5  A    between atoms: C_5  and  N_7
REMARK    6  A    between atoms: N_7  and  C_8
REMARK    7  A    between atoms: N_7  and  C_23
REMARK    8  A    between atoms: C_8  and  C_9
REMARK    9  A    between atoms: C_13  and  C_22
REMARK   10  A    between atoms: C_23  and  C_24
REMARK   11  A    between atoms: C_24  and  C_25
REMARK   12  A    between atoms: C_24  and  C_26
REMARK   13  A    between atoms: C_24  and  C_27
REMARK   14  A    between atoms: C_27  and  N_28
REMARK   15  A    between atoms: N_28  and  C_29
REMARK   16  A    between atoms: N_28  and  C_30
REMARK                            x       y       z     vdW  Elec       q    Type
REMARK                         _______ _______ _______ _____ _____    ______ ____
ROOT
ATOM      1  N   UNL     1      -1.976  -3.006   0.153  0.00  0.00    -0.308 N 
ENDROOT
BRANCH   1   2
ATOM      2  C   UNL     1      -1.474  -1.757   0.217  0.00  0.00    +0.133 C 
ATOM      3  S   UNL     1      -2.523  -0.423   0.439  0.00  0.00    -0.019 S 
BRANCH   2   4
ATOM      4  N   UNL     1      -0.145  -1.559   0.106  0.00  0.00    -0.326 N 
ATOM      5  H   UNL     1       0.449  -2.315  -0.020  0.00  0.00    +0.148 HD
BRANCH   4   6
ATOM      6  C   UNL     1       0.401  -0.201   0.175  0.00  0.00    +0.103 C 
BRANCH   6   8
ATOM      7  C   UNL     1       2.492   1.163   0.096  0.00  0.00    +0.005 C 
ATOM      8  C   UNL     1       1.922  -0.255   0.023  0.00  0.00    +0.015 C 
ENDBRANCH   6   8
ENDBRANCH   4   6
ENDBRANCH   2   4
ENDBRANCH   1   2
BRANCH   1   9
ATOM      9  C   UNL     1      -3.420  -3.222   0.274  0.00  0.00    +0.145 C 
BRANCH   9  10
ATOM     10  C   UNL     1      -4.052  -3.168  -1.094  0.00  0.00    +0.016 A 
ATOM     11  C   UNL     1      -4.269  -4.314  -1.780  0.00  0.00    +0.019 A 
ATOM     12  C   UNL     1      -4.885  -4.240  -3.107  0.00  0.00    +0.001 A 
ATOM     13  C   UNL     1      -5.131  -5.396  -3.854  0.00  0.00    +0.013 A 
ATOM     14  C   UNL     1      -5.707  -5.296  -5.088  0.00  0.00    -0.050 A 
ATOM     15  C   UNL     1      -6.052  -4.056  -5.608  0.00  0.00    +0.005 A 
ATOM     16  C   UNL     1      -5.819  -2.904  -4.889  0.00  0.00    +0.029 A 
ATOM     17  C   UNL     1      -5.233  -2.981  -3.630  0.00  0.00    +0.077 A 
ATOM     18  N   UNL     1      -4.990  -1.846  -2.888  0.00  0.00    -0.192 N 
ATOM     19  C   UNL     1      -4.421  -1.922  -1.650  0.00  0.00    +0.184 A 
ATOM     20  N   UNL     1      -4.327  -0.678  -1.200  0.00  0.00    -0.108 NA
ATOM     21  N   UNL     1      -4.799   0.146  -2.065  0.00  0.00    -0.022 NA
ATOM     22  N   UNL     1      -5.212  -0.479  -3.114  0.00  0.00    -0.039 NA
ATOM     23  C   UNL     1      -5.971  -6.543  -5.893  0.00  0.00    +0.044 C 
ENDBRANCH   9  10
ENDBRANCH   1   9
BRANCH   1  24
ATOM     24  C   UNL     1      -1.078  -4.148  -0.038  0.00  0.00    +0.111 C 
BRANCH  24  25
ATOM     25  C   UNL     1      -0.627  -4.675   1.326  0.00  0.00    -0.034 C 
ATOM     26  C   UNL     1       0.110  -3.567   2.082  0.00  0.00    +0.010 C 
ATOM     27  C   UNL     1      -1.850  -5.117   2.132  0.00  0.00    +0.010 C 
BRANCH  25  28
ATOM     28  C   UNL     1       0.311  -5.867   1.127  0.00  0.00    -0.072 C 
BRANCH  28  29
ATOM     29  N   UNL     1       0.636  -6.458   2.432  0.00  0.00    +0.376 N 
ATOM     30  C   UNL     1      -0.412  -7.415   2.811  0.00  0.00    -0.097 C 
ATOM     31  C   UNL     1       1.927  -7.153   2.347  0.00  0.00    -0.097 C 
ATOM     32  H   UNL     1       0.692  -5.728   3.127  0.00  0.00    -0.083 HD
ENDBRANCH  28  29
ENDBRANCH  25  28
ENDBRANCH  24  25
ENDBRANCH   1  24
TORSDOF 10
