REMARK  Name = ZINC35033592
REMARK  15 active torsions:
REMARK  status: ('A' for Active; 'I' for Inactive)
REMARK    1  A    between atoms: C_1  and  C_2
REMARK    2  A    between atoms: C_2  and  C_3
REMARK    3  A    between atoms: C_3  and  C_5
REMARK    4  A    between atoms: C_3  and  N_20
REMARK    5  A    between atoms: N_15  and  C_16
REMARK    6  A    between atoms: C_16  and  C_17
REMARK    7  A    between atoms: C_17  and  O_18
REMARK    8  A    between atoms: O_18  and  C_19
REMARK    9  A    between atoms: N_20  and  C_21
REMARK   10  A    between atoms: C_21  and  C_22
REMARK   11  A    between atoms: C_22  and  N_23
REMARK   12  A    between atoms: N_23  and  C_24
REMARK   13  A    between atoms: N_23  and  C_25
REMARK   14  A    between atoms: C_26  and  C_28
REMARK   15  A    between atoms: C_31  and  N_34
REMARK                            x       y       z     vdW  Elec       q    Type
REMARK                         _______ _______ _______ _____ _____    ______ ____
ROOT
ATOM      1  C   UNL     1       0.707  -1.255  -1.457  0.00  0.00    +0.142 C 
ENDROOT
BRANCH   1   2
ATOM      2  C   UNL     1       1.121  -2.503  -2.192  0.00  0.00    +0.134 A 
ATOM      3  N   UNL     1       0.289  -3.499  -2.233  0.00  0.00    -0.232 NA
ATOM      4  C   UNL     1       0.593  -4.654  -2.877  0.00  0.00    +0.078 A 
ATOM      5  C   UNL     1      -0.302  -5.725  -2.921  0.00  0.00    +0.028 A 
ATOM      6  C   UNL     1       0.048  -6.879  -3.586  0.00  0.00    +0.002 A 
ATOM      7  C   UNL     1       1.282  -6.991  -4.215  0.00  0.00    +0.001 A 
ATOM      8  C   UNL     1       2.181  -5.949  -4.185  0.00  0.00    +0.015 A 
ATOM      9  C   UNL     1       1.847  -4.772  -3.517  0.00  0.00    +0.065 A 
ATOM     10  C   UNL     1       2.766  -3.626  -3.452  0.00  0.00    +0.262 A 
ATOM     11  O   UNL     1       3.861  -3.663  -3.982  0.00  0.00    -0.267 OA
ATOM     12  N   UNL     1       2.344  -2.527  -2.784  0.00  0.00    -0.292 N 
BRANCH  12  13
ATOM     13  C   UNL     1       3.217  -1.354  -2.693  0.00  0.00    +0.154 C 
BRANCH  13  14
ATOM     14  C   UNL     1       3.984  -1.390  -1.369  0.00  0.00    +0.181 C 
BRANCH  14  15
ATOM     15  O   UNL     1       4.848  -2.529  -1.350  0.00  0.00    -0.381 OA
ATOM     16  C   UNL     1       5.614  -2.657  -0.151  0.00  0.00    +0.194 C 
ENDBRANCH  14  15
ENDBRANCH  13  14
ENDBRANCH  12  13
ENDBRANCH   1   2
BRANCH   1  17
ATOM     17  N   UNL     1      -0.453  -0.658  -2.123  0.00  0.00    -0.289 N 
ATOM     18  C   UNL     1      -0.339   0.540  -2.729  0.00  0.00    +0.247 C 
ATOM     19  O   UNL     1      -1.321   1.076  -3.204  0.00  0.00    -0.270 OA
BRANCH  18  20
ATOM     20  C   UNL     1       0.980   1.202  -2.817  0.00  0.00    +0.037 A 
ATOM     21  C   UNL     1       1.848   1.182  -1.725  0.00  0.00    +0.015 A 
ATOM     22  C   UNL     1       3.078   1.800  -1.814  0.00  0.00    +0.033 A 
ATOM     23  C   UNL     1       3.451   2.441  -2.983  0.00  0.00    +0.126 A 
ATOM     24  C   UNL     1       2.595   2.464  -4.069  0.00  0.00    +0.033 A 
ATOM     25  C   UNL     1       1.365   1.844  -3.995  0.00  0.00    +0.015 A 
BRANCH  23  26
ATOM     26  N   UNL     1       4.772   3.103  -3.071  0.00  0.00    +0.056 N 
ATOM     27  O   UNL     1       5.522   3.084  -2.123  0.00  0.00    -0.126 OA
ATOM     28  O   UNL     1       5.100   3.663  -4.091  0.00  0.00    -0.126 OA
ENDBRANCH  23  26
ENDBRANCH  18  20
BRANCH  17  29
ATOM     29  C   UNL     1      -1.737  -1.363  -2.129  0.00  0.00    +0.090 C 
BRANCH  29  30
ATOM     30  C   UNL     1      -2.610  -0.844  -0.984  0.00  0.00    -0.060 C 
BRANCH  30  31
ATOM     31  N   UNL     1      -3.897  -1.552  -0.990  0.00  0.00    +0.377 N 
ATOM     32  C   UNL     1      -3.676  -2.974  -0.696  0.00  0.00    -0.097 C 
ATOM     33  C   UNL     1      -4.779  -0.972   0.031  0.00  0.00    -0.097 C 
ATOM     34  H   UNL     1      -4.327  -1.459  -1.898  0.00  0.00    -0.083 HD
ENDBRANCH  30  31
ENDBRANCH  29  30
ENDBRANCH  17  29
ENDBRANCH   1  17
BRANCH   1  36
ATOM     35  C   UNL     1       0.057  -0.329   0.771  0.00  0.00    +0.006 C 
ATOM     36  C   UNL     1       0.341  -1.611  -0.015  0.00  0.00    +0.027 C 
ENDBRANCH   1  36
TORSDOF 11
