REMARK  Name = ZINC38547626
REMARK  9 active torsions:
REMARK  status: ('A' for Active; 'I' for Inactive)
REMARK    1  A    between atoms: C_1  and  C_2
REMARK    2  A    between atoms: C_5  and  C_8
REMARK    3  A    between atoms: C_8  and  C_10
REMARK    4  A    between atoms: C_8  and  N_25
REMARK    5  A    between atoms: C_11  and  C_24
REMARK    6  A    between atoms: C_12  and  C_23
REMARK    7  A    between atoms: C_14  and  N_15
REMARK    8  A    between atoms: C_16  and  C_18
REMARK    9  A    between atoms: C_28  and  C_32
REMARK                            x       y       z     vdW  Elec       q    Type
REMARK                         _______ _______ _______ _____ _____    ______ ____
ROOT
ATOM      1  C   UNL     1       0.048  -4.233  -0.050  0.00  0.00    +0.135 C 
ENDROOT
BRANCH   1   2
ATOM      2  N   UNL     1      -0.801  -4.798   1.001  0.00  0.00    -0.320 N 
ATOM      3  C   UNL     1      -2.153  -5.014   0.761  0.00  0.00    +0.097 A 
ATOM      4  C   UNL     1      -2.692  -4.696  -0.481  0.00  0.00    +0.045 A 
ATOM      5  C   UNL     1      -4.039  -4.917  -0.707  0.00  0.00    -0.046 A 
ATOM      6  C   UNL     1      -4.804  -5.449   0.323  0.00  0.00    +0.021 A 
ATOM      7  C   UNL     1      -4.204  -5.740   1.531  0.00  0.00    +0.084 A 
ATOM      8  N   UNL     1      -2.915  -5.525   1.716  0.00  0.00    -0.350 N 
ATOM      9  C   UNL     1      -4.662  -4.586  -2.038  0.00  0.00    +0.044 C 
ATOM     10  H   UNL     1      -0.420  -5.021   1.865  0.00  0.00    +0.148 HD
ATOM     11  H   UNL     1      -2.517  -5.743   2.573  0.00  0.00    +0.166 HD
ENDBRANCH   1   2
BRANCH   1  16
ATOM     12  C   UNL     1      -0.722   1.490  -0.278  0.00  0.00    +0.044 C 
ATOM     13  C   UNL     1      -0.521  -0.002  -0.219  0.00  0.00    -0.050 A 
ATOM     14  C   UNL     1      -0.153  -0.696  -1.356  0.00  0.00    +0.004 A 
ATOM     15  C   UNL     1       0.032  -2.065  -1.302  0.00  0.00    +0.006 A 
ATOM     16  C   UNL     1      -0.152  -2.740  -0.109  0.00  0.00    -0.023 A 
ATOM     17  C   UNL     1      -0.520  -2.046   1.028  0.00  0.00    +0.006 A 
ATOM     18  C   UNL     1      -0.700  -0.677   0.975  0.00  0.00    +0.004 A 
ENDBRANCH   1  16
BRANCH   1  19
ATOM     19  C   UNL     1       1.493  -4.534   0.255  0.00  0.00    +0.009 A 
ATOM     20  C   UNL     1       2.351  -4.954  -0.745  0.00  0.00    -0.033 A 
ATOM     21  C   UNL     1       3.644  -5.216  -0.436  0.00  0.00    -0.008 A 
ATOM     22  S   UNL     1       3.687  -4.869   1.314  0.00  0.00    -0.078 S 
ATOM     23  C   UNL     1       1.979  -4.392   1.520  0.00  0.00    +0.078 A 
ATOM     24  C   UNL     1       4.758  -5.681  -1.338  0.00  0.00    +0.052 C 
ATOM     25  C   UNL     1       1.854  -5.118  -2.158  0.00  0.00    +0.045 C 
BRANCH  23  26
ATOM     26  N   UNL     1       1.314  -3.982   2.677  0.00  0.00    -0.273 N 
ATOM     27  C   UNL     1       1.958  -3.983   3.861  0.00  0.00    +0.284 C 
ATOM     28  O   UNL     1       3.120  -4.341   3.922  0.00  0.00    -0.266 OA
ATOM     29  H   UNL     1       0.388  -3.697   2.629  0.00  0.00    +0.156 HD
BRANCH  27  30
ATOM     30  C   UNL     1       1.259  -3.553   5.076  0.00  0.00    +0.189 A 
ATOM     31  C   UNL     1       1.792  -3.500   6.332  0.00  0.00    +0.054 A 
ATOM     32  C   UNL     1       0.777  -3.033   7.182  0.00  0.00    +0.042 A 
ATOM     33  C   UNL     1      -0.317  -2.825   6.417  0.00  0.00    +0.196 A 
ATOM     34  O   UNL     1      -0.021  -3.134   5.148  0.00  0.00    -0.458 OA
ENDBRANCH  27  30
ENDBRANCH  23  26
ENDBRANCH   1  19
TORSDOF 5
