REMARK  Name = ZINC09385661
REMARK  12 active torsions:
REMARK  status: ('A' for Active; 'I' for Inactive)
REMARK    1  A    between atoms: C_1  and  C_2
REMARK    2  A    between atoms: C_2  and  N_59
REMARK    3  A    between atoms: C_3  and  C_4
REMARK    4  A    between atoms: C_3  and  N_59
REMARK    5  A    between atoms: C_5  and  C_6
REMARK    6  A    between atoms: C_5  and  N_59
REMARK    7  A    between atoms: C_6  and  N_7
REMARK    8  A    between atoms: C_13  and  N_17
REMARK    9  A    between atoms: C_20  and  C_22
REMARK   10  A    between atoms: C_26  and  S_28
REMARK   11  A    between atoms: S_28  and  C_31
REMARK   12  A    between atoms: C_31  and  C_32
REMARK                            x       y       z     vdW  Elec       q    Type
REMARK                         _______ _______ _______ _____ _____    ______ ____
ROOT
ATOM      1  N   UNL     1       5.988   1.638  -0.596  0.00  0.00    -0.248 N 
ATOM      2  C   UNL     1       4.657   1.329  -0.373  0.00  0.00    +0.168 A 
ATOM      3  N   UNL     1       3.602   2.100  -0.492  0.00  0.00    -0.224 NA
ATOM      4  C   UNL     1       2.350   1.661  -0.240  0.00  0.00    +0.080 A 
ATOM      5  C   UNL     1       1.137   2.382  -0.329  0.00  0.00    +0.031 A 
ATOM      6  C   UNL     1      -0.059   1.780  -0.036  0.00  0.00    +0.035 A 
ATOM      7  C   UNL     1      -0.125   0.451   0.355  0.00  0.00    +0.127 A 
ATOM      8  C   UNL     1       1.042  -0.285   0.452  0.00  0.00    +0.050 A 
ATOM      9  C   UNL     1       2.244   0.309   0.161  0.00  0.00    +0.043 A 
ATOM     10  S   UNL     1       3.939  -0.223   0.146  0.00  0.00    -0.052 S 
ATOM     11  C   UNL     1       6.937   0.698  -0.419  0.00  0.00    +0.252 C 
ATOM     12  O   UNL     1       6.641  -0.384   0.048  0.00  0.00    -0.270 OA
ENDROOT
BRANCH  11  13
ATOM     13  C   UNL     1       8.338   0.983  -0.792  0.00  0.00    +0.039 A 
ATOM     14  C   UNL     1       8.828   2.289  -0.735  0.00  0.00    +0.013 A 
ATOM     15  C   UNL     1      10.137   2.548  -1.085  0.00  0.00    +0.003 A 
ATOM     16  C   UNL     1      10.964   1.516  -1.492  0.00  0.00    +0.027 A 
ATOM     17  C   UNL     1      10.486   0.220  -1.550  0.00  0.00    +0.089 A 
ATOM     18  C   UNL     1       9.180  -0.054  -1.199  0.00  0.00    +0.040 A 
BRANCH  17  19
ATOM     19  S   UNL     1      11.549  -1.087  -2.069  0.00  0.00    -0.003 S 
ATOM     20  O   UNL     1      10.676  -2.075  -2.599  0.00  0.00    -0.169 OA
ATOM     21  O   UNL     1      12.519  -0.458  -2.896  0.00  0.00    -0.169 OA
BRANCH  19  22
ATOM     22  C   UNL     1      12.324  -1.690  -0.544  0.00  0.00    +0.168 C 
ATOM     23  C   UNL     1      13.278  -2.839  -0.877  0.00  0.00    +0.028 C 
ENDBRANCH  19  22
ENDBRANCH  17  19
ENDBRANCH  11  13
BRANCH   7  24
ATOM     24  N   UNL     1      -1.431  -0.173   0.665  0.00  0.00    +0.056 N 
ATOM     25  O   UNL     1      -2.455   0.481   0.578  0.00  0.00    -0.126 OA
ATOM     26  O   UNL     1      -1.482  -1.341   1.008  0.00  0.00    -0.126 OA
ENDBRANCH   7  24
BRANCH   1  27
ATOM     27  C   UNL     1       6.365   2.988  -1.023  0.00  0.00    +0.097 C 
BRANCH  27  28
ATOM     28  C   UNL     1       6.415   3.913   0.195  0.00  0.00    -0.059 C 
BRANCH  28  29
ATOM     29  N   UNL     1       6.939   5.228  -0.230  0.00  0.00    +0.380 N 
ATOM     30  H   UNL     1       7.746   5.082  -0.848  0.00  0.00    -0.082 HD
BRANCH  29  32
ATOM     31  C   UNL     1       6.528   7.222  -1.587  0.00  0.00    -0.017 C 
ATOM     32  C   UNL     1       5.897   5.972  -0.970  0.00  0.00    -0.082 C 
ENDBRANCH  29  32
BRANCH  29  33
ATOM     33  C   UNL     1       7.372   6.005   0.950  0.00  0.00    -0.082 C 
ATOM     34  C   UNL     1       8.730   5.474   1.415  0.00  0.00    -0.017 C 
ENDBRANCH  29  33
ENDBRANCH  28  29
ENDBRANCH  27  28
ENDBRANCH   1  27
TORSDOF 9
