REMARK  Name = ZINC45971999
REMARK  3 active torsions:
REMARK  status: ('A' for Active; 'I' for Inactive)
REMARK    1  A    between atoms: C_6  and  C_10
REMARK    2  A    between atoms: N_12  and  N_13
REMARK    3  A    between atoms: N_13  and  C_14
REMARK                            x       y       z     vdW  Elec       q    Type
REMARK                         _______ _______ _______ _____ _____    ______ ____
ROOT
ATOM      1  C   UNL     1       3.636  -3.368  -0.053  0.00  0.00    +0.280 C 
ATOM      2  O   UNL     1       4.852  -3.360  -0.065  0.00  0.00    -0.267 OA
ATOM      3  N   UNL     1       2.970  -4.540  -0.053  0.00  0.00    -0.231 N 
ATOM      4  H   UNL     1       2.000  -4.546  -0.043  0.00  0.00    +0.173 HD
ENDROOT
BRANCH   1  10
ATOM      5  C   UNL     1      -0.016   1.355   0.009  0.00  0.00    +0.005 A 
ATOM      6  C   UNL     1       1.195   2.068   0.002  0.00  0.00    +0.018 A 
ATOM      7  C   UNL     1       2.372   1.412  -0.013  0.00  0.00    +0.093 A 
ATOM      8  N   UNL     1       2.408   0.045  -0.021  0.00  0.00    -0.306 N 
ATOM      9  C   UNL     1       3.439  -0.845  -0.036  0.00  0.00    +0.125 A 
ATOM     10  C   UNL     1       2.890  -2.095  -0.038  0.00  0.00    +0.146 A 
ATOM     11  N   UNL     1       1.550  -1.965  -0.024  0.00  0.00    -0.223 NA
ATOM     12  C   UNL     1       1.242  -0.679  -0.014  0.00  0.00    +0.138 A 
ATOM     13  C   UNL     1       0.002  -0.004   0.002  0.00  0.00    +0.047 A 
ENDBRANCH   1  10
BRANCH   3  14
ATOM     14  N   UNL     1       3.678  -5.749  -0.067  0.00  0.00    -0.264 N 
ATOM     15  H   UNL     1       4.648  -5.742  -0.077  0.00  0.00    +0.170 HD
BRANCH  14  16
ATOM     16  C   UNL     1       2.987  -6.964  -0.068  0.00  0.00    +0.045 A 
ATOM     17  C   UNL     1       1.598  -6.974  -0.059  0.00  0.00    +0.027 A 
ATOM     18  C   UNL     1       0.917  -8.176  -0.059  0.00  0.00    +0.040 A 
ATOM     19  C   UNL     1       1.618  -9.370  -0.068  0.00  0.00    +0.124 A 
ATOM     20  C   UNL     1       3.003  -9.362  -0.076  0.00  0.00    +0.040 A 
ATOM     21  C   UNL     1       3.688  -8.163  -0.082  0.00  0.00    +0.027 A 
ATOM     22  F   UNL     1       0.950 -10.544  -0.067  0.00  0.00    -0.205 F 
ENDBRANCH  14  16
ENDBRANCH   3  14
TORSDOF 3
