REMARK  Name = ZINC65920518
REMARK  4 active torsions:
REMARK  status: ('A' for Active; 'I' for Inactive)
REMARK    1  A    between atoms: N_4  and  C_6
REMARK    2  A    between atoms: C_7  and  C_15
REMARK    3  A    between atoms: N_17  and  N_18
REMARK    4  A    between atoms: N_21  and  C_22
REMARK                            x       y       z     vdW  Elec       q    Type
REMARK                         _______ _______ _______ _____ _____    ______ ____
ROOT
ATOM      1  C   UNL     1      -0.494  -2.823  -0.021  0.00  0.00    +0.263 C 
ATOM      2  O   UNL     1      -1.107  -2.790  -1.071  0.00  0.00    -0.269 OA
ATOM      3  N   UNL     1      -1.161  -2.802   1.150  0.00  0.00    -0.229 N 
ATOM      4  H   UNL     1      -0.673  -2.828   1.987  0.00  0.00    +0.173 HD
ENDROOT
BRANCH   1   6
ATOM      5  C   UNL     1       1.742  -1.734  -0.024  0.00  0.00    +0.097 A 
ATOM      6  C   UNL     1       0.972  -2.885  -0.028  0.00  0.00    +0.073 A 
ATOM      7  C   UNL     1       1.675  -4.155  -0.040  0.00  0.00    -0.023 A 
ATOM      8  C   UNL     1       3.021  -4.041  -0.045  0.00  0.00    -0.004 A 
ATOM      9  S   UNL     1       3.324  -2.299  -0.043  0.00  0.00    -0.075 S 
ATOM     10  C   UNL     1       4.018  -5.159  -0.056  0.00  0.00    +0.043 C 
ATOM     11  C   UNL     1       3.290  -6.458   0.321  0.00  0.00    +0.005 C 
ATOM     12  C   UNL     1       2.009  -6.567  -0.511  0.00  0.00    +0.005 C 
ATOM     13  C   UNL     1       0.996  -5.517  -0.047  0.00  0.00    +0.037 C 
BRANCH   5  17
ATOM     14  C   UNL     1      -0.016   1.344   0.009  0.00  0.00    +0.019 A 
ATOM     15  C   UNL     1       1.323   1.786  -0.001  0.00  0.00    +0.019 A 
ATOM     16  C   UNL     1       2.111   0.692  -0.014  0.00  0.00    +0.092 A 
ATOM     17  N   UNL     1       1.306  -0.413  -0.013  0.00  0.00    -0.317 N 
ATOM     18  C   UNL     1       0.002  -0.004   0.002  0.00  0.00    +0.092 A 
ENDBRANCH   5  17
ENDBRANCH   1   6
BRANCH   3  19
ATOM     19  N   UNL     1      -2.561  -2.743   1.157  0.00  0.00    -0.218 N 
ATOM     20  C   UNL     1      -3.229  -2.722   2.328  0.00  0.00    +0.316 C 
ATOM     21  O   UNL     1      -4.444  -2.671   2.334  0.00  0.00    -0.251 OA
ATOM     22  N   UNL     1      -2.550  -2.758   3.491  0.00  0.00    -0.295 N 
ATOM     23  H   UNL     1      -3.050  -2.717   0.320  0.00  0.00    +0.174 HD
ATOM     24  H   UNL     1      -1.581  -2.799   3.486  0.00  0.00    +0.151 HD
BRANCH  22  25
ATOM     25  C   UNL     1      -3.276  -2.736   4.764  0.00  0.00    +0.074 C 
ATOM     26  C   UNL     1      -3.524  -1.279   5.205  0.00  0.00    +0.022 C 
ATOM     27  C   UNL     1      -3.359  -1.315   6.745  0.00  0.00    +0.002 C 
ATOM     28  C   UNL     1      -2.187  -2.308   6.940  0.00  0.00    +0.002 C 
ATOM     29  C   UNL     1      -2.426  -3.391   5.867  0.00  0.00    +0.022 C 
ENDBRANCH  22  25
ENDBRANCH   3  19
TORSDOF 4
