REMARK  Name = ZINC16434872
REMARK  14 active torsions:
REMARK  status: ('A' for Active; 'I' for Inactive)
REMARK    1  A    between atoms: C_1  and  C_2
REMARK    2  A    between atoms: C_5  and  N_8
REMARK    3  A    between atoms: C_9  and  N_17
REMARK    4  A    between atoms: C_11  and  C_13
REMARK    5  A    between atoms: C_13  and  C_14
REMARK    6  A    between atoms: C_13  and  C_15
REMARK    7  A    between atoms: C_13  and  C_16
REMARK    8  A    between atoms: C_18  and  C_20
REMARK    9  A    between atoms: C_20  and  N_21
REMARK   10  A    between atoms: N_21  and  C_22
REMARK   11  A    between atoms: C_22  and  C_23
REMARK   12  A    between atoms: C_23  and  C_24
REMARK   13  A    between atoms: C_23  and  C_25
REMARK   14  A    between atoms: N_28  and  C_29
REMARK                            x       y       z     vdW  Elec       q    Type
REMARK                         _______ _______ _______ _____ _____    ______ ____
ROOT
ATOM      1  N   UNL     1      -8.889   3.005   2.750  0.00  0.00    -0.269 N 
ATOM      2  C   UNL     1      -8.004   2.501   1.868  0.00  0.00    +0.236 C 
ATOM      3  O   UNL     1      -7.802   3.072   0.817  0.00  0.00    -0.274 OA
ATOM      4  H   UNL     1      -9.050   2.549   3.590  0.00  0.00    +0.156 HD
ENDROOT
BRANCH   1   6
ATOM      5  N   UNL     1     -10.495   4.800   3.244  0.00  0.00    -0.218 N 
ATOM      6  C   UNL     1      -9.574   4.183   2.454  0.00  0.00    +0.129 A 
ATOM      7  C   UNL     1      -9.448   4.925   1.319  0.00  0.00    +0.069 A 
ATOM      8  C   UNL     1     -10.309   6.021   1.425  0.00  0.00    +0.071 A 
ATOM      9  N   UNL     1     -10.932   5.950   2.574  0.00  0.00    -0.169 NA
BRANCH   5  14
ATOM     10  C   UNL     1     -12.245   3.033   8.345  0.00  0.00    +0.044 C 
ATOM     11  C   UNL     1     -11.780   3.502   6.991  0.00  0.00    -0.050 A 
ATOM     12  C   UNL     1     -11.668   4.855   6.730  0.00  0.00    +0.005 A 
ATOM     13  C   UNL     1     -11.243   5.288   5.490  0.00  0.00    +0.028 A 
ATOM     14  C   UNL     1     -10.927   4.363   4.504  0.00  0.00    +0.067 A 
ATOM     15  C   UNL     1     -11.045   3.005   4.767  0.00  0.00    +0.028 A 
ATOM     16  C   UNL     1     -11.466   2.578   6.011  0.00  0.00    +0.005 A 
ENDBRANCH   5  14
BRANCH   8  17
ATOM     17  C   UNL     1     -10.490   7.102   0.391  0.00  0.00    +0.006 C 
ATOM     18  C   UNL     1     -11.318   6.558  -0.775  0.00  0.00    +0.017 C 
ATOM     19  C   UNL     1     -11.215   8.293   1.020  0.00  0.00    +0.017 C 
ATOM     20  C   UNL     1      -9.120   7.551  -0.122  0.00  0.00    +0.017 C 
ENDBRANCH   8  17
ENDBRANCH   1   6
BRANCH   2  21
ATOM     21  C   UNL     1      -7.264   1.227   2.188  0.00  0.00    +0.205 C 
BRANCH  21  22
ATOM     22  N   UNL     1      -6.368   0.892   1.079  0.00  0.00    -0.277 N 
ATOM     23  C   UNL     1      -5.103   1.358   1.069  0.00  0.00    +0.303 C 
ATOM     24  O   UNL     1      -4.706   2.058   1.981  0.00  0.00    -0.253 OA
ATOM     25  N   UNL     1      -4.279   1.049   0.049  0.00  0.00    -0.294 N 
ATOM     26  H   UNL     1      -4.595   0.491  -0.679  0.00  0.00    +0.151 HD
BRANCH  25  27
ATOM     27  C   UNL     1      -2.904   1.556   0.038  0.00  0.00    +0.037 C 
ATOM     28  C   UNL     1      -2.188   1.063  -1.221  0.00  0.00    +0.029 C 
ATOM     29  C   UNL     1      -0.753   1.593  -1.232  0.00  0.00    -0.008 C 
ATOM     30  C   UNL     1      -0.013   1.086   0.008  0.00  0.00    +0.007 C 
ATOM     31  C   UNL     1      -0.729   1.579   1.267  0.00  0.00    -0.008 C 
ATOM     32  C   UNL     1      -2.164   1.050   1.278  0.00  0.00    +0.029 C 
ATOM     33  C   UNL     1      -0.750   3.109   1.275  0.00  0.00    +0.007 C 
ATOM     34  C   UNL     1      -1.490   3.616   0.036  0.00  0.00    -0.008 C 
ATOM     35  C   UNL     1      -0.773   3.123  -1.223  0.00  0.00    +0.007 C 
ATOM     36  C   UNL     1      -2.925   3.086   0.047  0.00  0.00    +0.029 C 
ENDBRANCH  25  27
BRANCH  22  37
ATOM     37  C   UNL     1      -6.846   0.049  -0.020  0.00  0.00    +0.113 C 
BRANCH  37  38
ATOM     38  C   UNL     1      -6.573  -1.420   0.308  0.00  0.00    +0.000 C 
ATOM     39  C   UNL     1      -7.183  -2.308  -0.779  0.00  0.00    +0.009 C 
ATOM     40  C   UNL     1      -5.063  -1.657   0.372  0.00  0.00    +0.009 C 
ENDBRANCH  37  38
ENDBRANCH  22  37
ENDBRANCH  21  22
ENDBRANCH   2  21
TORSDOF 8
