REMARK  Name = ZINC03661553
REMARK  5 active torsions:
REMARK  status: ('A' for Active; 'I' for Inactive)
REMARK    1  A    between atoms: C_4  and  C_7
REMARK    2  A    between atoms: C_9  and  C_18
REMARK    3  A    between atoms: N_11  and  C_12
REMARK    4  A    between atoms: N_20  and  N_21
REMARK    5  A    between atoms: C_22  and  C_23
REMARK                            x       y       z     vdW  Elec       q    Type
REMARK                         _______ _______ _______ _____ _____    ______ ____
ROOT
ATOM      1  C   UNL     1       3.575  -0.822  -0.742  0.00  0.00    +0.164 A 
ATOM      2  N   UNL     1       4.755  -0.247  -0.861  0.00  0.00    -0.202 NA
ATOM      3  C   UNL     1       5.683  -1.206  -0.709  0.00  0.00    +0.239 A 
ATOM      4  N   UNL     1       5.066  -2.349  -0.501  0.00  0.00    -0.139 NA
ATOM      5  N   UNL     1       3.793  -2.146  -0.510  0.00  0.00    -0.212 N 
ENDROOT
BRANCH   1   9
ATOM      6  C   UNL     1      -0.204   1.100  -1.013  0.00  0.00    +0.000 A 
ATOM      7  C   UNL     1      -0.075  -0.065  -0.278  0.00  0.00    +0.001 A 
ATOM      8  C   UNL     1       1.149  -0.694  -0.187  0.00  0.00    +0.011 A 
ATOM      9  C   UNL     1       2.259  -0.152  -0.837  0.00  0.00    +0.019 A 
ATOM     10  C   UNL     1       2.122   1.023  -1.576  0.00  0.00    +0.011 A 
ATOM     11  C   UNL     1       0.892   1.642  -1.660  0.00  0.00    +0.001 A 
ENDBRANCH   1   9
BRANCH   5  12
ATOM     12  C   UNL     1       2.805  -3.120  -0.318  0.00  0.00    +0.068 A 
ATOM     13  C   UNL     1       1.695  -3.159  -1.151  0.00  0.00    +0.028 A 
ATOM     14  C   UNL     1       0.722  -4.120  -0.959  0.00  0.00    +0.002 A 
ATOM     15  C   UNL     1       0.853  -5.043   0.062  0.00  0.00    +0.000 A 
ATOM     16  C   UNL     1       1.957  -5.007   0.894  0.00  0.00    +0.002 A 
ATOM     17  C   UNL     1       2.936  -4.052   0.703  0.00  0.00    +0.028 A 
ENDBRANCH   5  12
BRANCH   3  18
ATOM     18  C   UNL     1       7.147  -1.011  -0.767  0.00  0.00    +0.301 C 
ATOM     19  O   UNL     1       7.605   0.098  -0.967  0.00  0.00    -0.265 OA
ATOM     20  N   UNL     1       7.975  -2.061  -0.599  0.00  0.00    -0.223 N 
ATOM     21  H   UNL     1       7.609  -2.946  -0.439  0.00  0.00    +0.175 HD
BRANCH  20  22
ATOM     22  N   UNL     1       9.362  -1.876  -0.653  0.00  0.00    -0.311 N 
ATOM     23  C   UNL     1      10.185  -2.922  -0.486  0.00  0.00    +0.111 C 
ATOM     24  H   UNL     1       9.728  -0.992  -0.813  0.00  0.00    +0.184 HD
BRANCH  23  25
ATOM     25  C   UNL     1      11.562  -2.764  -0.668  0.00  0.00    +0.041 A 
ATOM     26  C   UNL     1      12.454  -3.822  -0.385  0.00  0.00    +0.033 A 
ATOM     27  C   UNL     1      13.790  -3.649  -0.569  0.00  0.00    +0.043 A 
ATOM     28  C   UNL     1      14.310  -2.443  -1.034  0.00  0.00    +0.039 A 
ATOM     29  C   UNL     1      13.504  -1.385  -1.326  0.00  0.00    +0.066 A 
ATOM     30  C   UNL     1      12.112  -1.497  -1.165  0.00  0.00    +0.201 A 
ATOM     31  O   UNL     1      11.375  -0.556  -1.427  0.00  0.00    -0.286 OA
ATOM     32 BR   UNL     1      14.257   0.232  -1.954  0.00  0.00    -0.046 Br
ATOM     33 CL   UNL     1      14.872  -4.960  -0.216  0.00  0.00    -0.083 Cl
ENDBRANCH  23  25
ENDBRANCH  20  22
ENDBRANCH   3  18
TORSDOF 5
