REMARK  Name = ZINC33051525
REMARK  9 active torsions:
REMARK  status: ('A' for Active; 'I' for Inactive)
REMARK    1  A    between atoms: C_1  and  C_2
REMARK    2  A    between atoms: C_2  and  C_3
REMARK    3  A    between atoms: C_8  and  N_9
REMARK    4  A    between atoms: C_15  and  C_41
REMARK    5  A    between atoms: N_17  and  C_35
REMARK    6  A    between atoms: C_24  and  C_26
REMARK    7  A    between atoms: C_29  and  C_32
REMARK    8  A    between atoms: C_32  and  C_33
REMARK    9  A    between atoms: C_32  and  C_34
REMARK                            x       y       z     vdW  Elec       q    Type
REMARK                         _______ _______ _______ _____ _____    ______ ____
ROOT
ATOM      1  N   UNL     1       6.190   1.417  -0.939  0.00  0.00    -0.269 N 
ATOM      2  C   UNL     1       5.442   0.577  -1.680  0.00  0.00    +0.308 C 
ATOM      3  O   UNL     1       5.825   0.232  -2.781  0.00  0.00    -0.252 OA
ATOM      4  N   UNL     1       4.269   0.118  -1.201  0.00  0.00    -0.268 N 
ATOM      5  C   UNL     1       3.761   0.511   0.135  0.00  0.00    +0.151 C 
ATOM      6  C   UNL     1       2.278   0.739   0.116  0.00  0.00    +0.035 A 
ATOM      7  C   UNL     1       1.571   1.932   0.225  0.00  0.00    +0.067 A 
ATOM      8  N   UNL     1       0.288   1.657   0.206  0.00  0.00    -0.169 NA
ATOM      9  N   UNL     1       0.133   0.266   0.083  0.00  0.00    -0.215 N 
ATOM     10  C   UNL     1       1.365  -0.271   0.004  0.00  0.00    +0.146 A 
ATOM     11  N   UNL     1       1.784  -1.589  -0.210  0.00  0.00    -0.303 N 
ATOM     12  C   UNL     1       1.371  -2.748   0.355  0.00  0.00    +0.093 A 
ATOM     13  C   UNL     1       2.145  -3.745  -0.131  0.00  0.00    +0.020 A 
ATOM     14  C   UNL     1       3.053  -3.171  -1.048  0.00  0.00    +0.025 A 
ATOM     15  C   UNL     1       2.794  -1.855  -1.100  0.00  0.00    +0.050 A 
ATOM     16  C   UNL     1       3.413  -0.807  -1.979  0.00  0.00    +0.155 C 
ATOM     17  C   UNL     1       2.176   3.308   0.343  0.00  0.00    +0.068 C 
ATOM     18  H   UNL     1       5.875   1.680   0.082  0.00  0.00    +0.156 HD
ENDROOT
BRANCH   1  24
ATOM     19  C   UNL     1       7.856   3.166  -0.990  0.00  0.00    -0.026 A 
ATOM     20  C   UNL     1       9.019   3.695  -1.514  0.00  0.00    +0.005 A 
ATOM     21  C   UNL     1       9.698   3.023  -2.514  0.00  0.00    +0.000 A 
ATOM     22  C   UNL     1       9.215   1.818  -2.992  0.00  0.00    +0.002 A 
ATOM     23  C   UNL     1       8.055   1.281  -2.469  0.00  0.00    +0.023 A 
ATOM     24  C   UNL     1       7.368   1.957  -1.468  0.00  0.00    +0.038 A 
BRANCH  19  26
ATOM     25  C   UNL     1       7.547   3.354   1.463  0.00  0.00    +0.009 C 
ATOM     26  C   UNL     1       7.117   3.899   0.100  0.00  0.00    +0.033 C 
ENDBRANCH  19  26
ENDBRANCH   1  24
BRANCH  16  27
ATOM     27  C   UNL     1       2.318  -0.018  -2.650  0.00  0.00    -0.021 A 
ATOM     28  C   UNL     1       1.114  -0.626  -2.952  0.00  0.00    +0.006 A 
ATOM     29  C   UNL     1       0.108   0.099  -3.563  0.00  0.00    +0.004 A 
ATOM     30  C   UNL     1       0.311   1.429  -3.882  0.00  0.00    -0.045 A 
ATOM     31  C   UNL     1       1.517   2.035  -3.586  0.00  0.00    +0.004 A 
ATOM     32  C   UNL     1       2.521   1.311  -2.969  0.00  0.00    +0.006 A 
BRANCH  30  33
ATOM     33  C   UNL     1      -0.784   2.217  -4.554  0.00  0.00    +0.013 C 
ATOM     34  C   UNL     1      -1.135   1.565  -5.893  0.00  0.00    +0.012 C 
ATOM     35  C   UNL     1      -2.023   2.237  -3.656  0.00  0.00    +0.012 C 
ENDBRANCH  30  33
ENDBRANCH  16  27
BRANCH   9  36
ATOM     36  C   UNL     1      -1.080  -0.434   0.048  0.00  0.00    +0.068 A 
ATOM     37  C   UNL     1      -1.209  -1.564  -0.749  0.00  0.00    +0.028 A 
ATOM     38  C   UNL     1      -2.405  -2.255  -0.777  0.00  0.00    +0.002 A 
ATOM     39  C   UNL     1      -3.477  -1.816  -0.021  0.00  0.00    +0.000 A 
ATOM     40  C   UNL     1      -3.353  -0.688   0.769  0.00  0.00    +0.002 A 
ATOM     41  C   UNL     1      -2.158   0.004   0.806  0.00  0.00    +0.028 A 
ENDBRANCH   9  36
TORSDOF 5
