REMARK  Name = ZINC14475892
REMARK  6 active torsions:
REMARK  status: ('A' for Active; 'I' for Inactive)
REMARK    1  A    between atoms: C_1  and  N_2
REMARK    2  A    between atoms: N_5  and  S_8
REMARK    3  A    between atoms: S_8  and  C_11
REMARK    4  A    between atoms: C_24  and  C_27
REMARK    5  A    between atoms: C_29  and  N_34
REMARK    6  A    between atoms: C_32  and  O_33
REMARK                            x       y       z     vdW  Elec       q    Type
REMARK                         _______ _______ _______ _____ _____    ______ ____
ROOT
ATOM      1  C   UNL     1       3.693  -3.114  -0.187  0.00  0.00    +0.106 A 
ATOM      2  C   UNL     1       4.262  -2.816  -1.412  0.00  0.00    +0.030 A 
ATOM      3  C   UNL     1       5.519  -2.249  -1.465  0.00  0.00    +0.025 A 
ATOM      4  C   UNL     1       6.212  -1.975  -0.289  0.00  0.00    +0.031 A 
ATOM      5  C   UNL     1       5.639  -2.262   0.936  0.00  0.00    -0.018 A 
ATOM      6  C   UNL     1       4.375  -2.834   0.980  0.00  0.00    +0.034 A 
ATOM      7  C   UNL     1       6.328  -1.955   2.236  0.00  0.00    +0.049 C 
ATOM      8  C   UNL     1       5.352  -1.179   3.107  0.00  0.00    -0.023 C 
ATOM      9  C   UNL     1       5.636   0.098   3.092  0.00  0.00    -0.030 C 
ATOM     10  C   UNL     1       6.846   0.373   2.224  0.00  0.00    +0.033 C 
ATOM     11  C   UNL     1       7.526  -1.024   2.075  0.00  0.00    +0.029 C 
ATOM     12  C   UNL     1       8.303  -1.165   0.800  0.00  0.00    +0.108 C 
ATOM     13  N   UNL     1       7.484  -1.418  -0.369  0.00  0.00    -0.336 N 
ATOM     14  H   UNL     1       7.846  -1.212  -1.245  0.00  0.00    +0.147 HD
ENDROOT
BRANCH  12  15
ATOM     15  C   UNL     1       9.058   0.116   0.557  0.00  0.00    +0.017 A 
ATOM     16  C   UNL     1       8.514   1.096  -0.251  0.00  0.00    +0.041 A 
ATOM     17  C   UNL     1       9.207   2.272  -0.474  0.00  0.00    +0.127 A 
ATOM     18  C   UNL     1      10.444   2.470   0.110  0.00  0.00    +0.036 A 
ATOM     19  C   UNL     1      10.992   1.493   0.917  0.00  0.00    +0.048 A 
ATOM     20  C   UNL     1      10.297   0.314   1.148  0.00  0.00    +0.122 A 
BRANCH  17  21
ATOM     21  N   UNL     1       8.622   3.320  -1.340  0.00  0.00    +0.056 N 
ATOM     22  O   UNL     1       7.540   3.148  -1.851  0.00  0.00    -0.126 OA
ATOM     23  O   UNL     1       9.226   4.349  -1.536  0.00  0.00    -0.126 OA
ENDBRANCH  17  21
BRANCH  20  24
ATOM     24  O   UNL     1      10.832  -0.647   1.947  0.00  0.00    -0.506 OA
ATOM     25  H   UNL     1      11.380  -1.289   1.476  0.00  0.00    +0.292 HD
ENDBRANCH  20  24
ENDBRANCH  12  15
BRANCH   1  26
ATOM     26  S   UNL     1       2.092  -3.845  -0.115  0.00  0.00    +0.061 S 
ATOM     27  O   UNL     1       2.009  -4.521   1.132  0.00  0.00    -0.153 OA
ATOM     28  O   UNL     1       1.892  -4.508  -1.356  0.00  0.00    -0.153 OA
BRANCH  26  33
ATOM     29  C   UNL     1      -0.018   1.465   0.010  0.00  0.00    +0.105 C 
ATOM     30  N   UNL     1       0.002  -0.004   0.002  0.00  0.00    -0.303 NA
ATOM     31  C   UNL     1       0.592  -0.516  -1.242  0.00  0.00    +0.101 C 
ATOM     32  C   UNL     1       0.430  -2.039  -1.292  0.00  0.00    +0.125 C 
ATOM     33  N   UNL     1       0.991  -2.608  -0.057  0.00  0.00    -0.174 NA
ATOM     34  C   UNL     1       0.549  -2.051   1.230  0.00  0.00    +0.125 C 
ATOM     35  C   UNL     1       0.706  -0.527   1.180  0.00  0.00    +0.101 C 
ENDBRANCH  26  33
ENDBRANCH   1  26
TORSDOF 5
