REMARK  Name = ZINC38547707
REMARK  11 active torsions:
REMARK  status: ('A' for Active; 'I' for Inactive)
REMARK    1  A    between atoms: C_1  and  C_2
REMARK    2  A    between atoms: C_3  and  C_34
REMARK    3  A    between atoms: C_5  and  N_26
REMARK    4  A    between atoms: C_6  and  C_7
REMARK    5  A    between atoms: C_7  and  C_9
REMARK    6  A    between atoms: C_7  and  N_19
REMARK    7  A    between atoms: C_11  and  O_17
REMARK    8  A    between atoms: C_14  and  O_15
REMARK    9  A    between atoms: O_15  and  C_16
REMARK   10  A    between atoms: O_17  and  C_18
REMARK   11  A    between atoms: C_27  and  C_29
REMARK                            x       y       z     vdW  Elec       q    Type
REMARK                         _______ _______ _______ _____ _____    ______ ____
ROOT
ATOM      1  C   UNL     1       0.302   0.030   2.463  0.00  0.00    +0.138 C 
ENDROOT
BRANCH   1   2
ATOM      2  N   UNL     1      -0.544  -0.578   3.493  0.00  0.00    -0.319 N 
ATOM      3  C   UNL     1      -1.065   0.205   4.517  0.00  0.00    +0.097 A 
ATOM      4  C   UNL     1      -0.783   1.567   4.554  0.00  0.00    +0.041 A 
ATOM      5  C   UNL     1      -1.307   2.334   5.578  0.00  0.00    +0.005 A 
ATOM      6  C   UNL     1      -2.099   1.712   6.534  0.00  0.00    +0.018 A 
ATOM      7  C   UNL     1      -2.338   0.356   6.436  0.00  0.00    +0.084 A 
ATOM      8  N   UNL     1      -1.829  -0.351   5.444  0.00  0.00    -0.350 N 
ATOM      9  H   UNL     1      -0.741  -1.528   3.461  0.00  0.00    +0.148 HD
ATOM     10  H   UNL     1      -2.015  -1.302   5.396  0.00  0.00    +0.166 HD
ENDBRANCH   1   2
BRANCH   1  16
ATOM     11  C   UNL     1      -0.124   1.194  -0.174  0.00  0.00    +0.045 C 
ATOM     12  C   UNL     1       0.098  -0.289  -0.019  0.00  0.00    -0.033 A 
ATOM     13  C   UNL     1       0.107  -1.099  -1.105  0.00  0.00    -0.008 A 
ATOM     14  S   UNL     1       0.401  -2.700  -0.373  0.00  0.00    -0.078 S 
ATOM     15  C   UNL     1       0.492  -2.186   1.334  0.00  0.00    +0.078 A 
ATOM     16  C   UNL     1       0.300  -0.840   1.233  0.00  0.00    +0.009 A 
ATOM     17  C   UNL     1      -0.082  -0.740  -2.556  0.00  0.00    +0.052 C 
BRANCH  15  18
ATOM     18  N   UNL     1       0.709  -2.960   2.476  0.00  0.00    -0.273 N 
ATOM     19  C   UNL     1       0.913  -4.287   2.361  0.00  0.00    +0.284 C 
ATOM     20  O   UNL     1       0.908  -4.811   1.262  0.00  0.00    -0.266 OA
ATOM     21  H   UNL     1       0.713  -2.542   3.351  0.00  0.00    +0.156 HD
BRANCH  19  22
ATOM     22  C   UNL     1       1.141  -5.100   3.560  0.00  0.00    +0.189 A 
ATOM     23  C   UNL     1       1.365  -6.447   3.586  0.00  0.00    +0.054 A 
ATOM     24  C   UNL     1       1.529  -6.803   4.933  0.00  0.00    +0.042 A 
ATOM     25  C   UNL     1       1.400  -5.672   5.662  0.00  0.00    +0.196 A 
ATOM     26  O   UNL     1       1.172  -4.647   4.830  0.00  0.00    -0.458 OA
ENDBRANCH  19  22
ENDBRANCH  15  18
ENDBRANCH   1  16
BRANCH   1  27
ATOM     27  C   UNL     1       1.711   0.161   2.983  0.00  0.00    +0.022 A 
ATOM     28  C   UNL     1       2.162  -0.686   3.977  0.00  0.00    +0.055 A 
ATOM     29  C   UNL     1       3.458  -0.566   4.455  0.00  0.00    +0.121 A 
ATOM     30  C   UNL     1       4.301   0.405   3.936  0.00  0.00    +0.049 A 
ATOM     31  C   UNL     1       3.851   1.251   2.942  0.00  0.00    +0.049 A 
ATOM     32  C   UNL     1       2.556   1.128   2.460  0.00  0.00    +0.126 A 
BRANCH  32  33
ATOM     33  O   UNL     1       2.114   1.958   1.478  0.00  0.00    -0.495 OA
ATOM     34  C   UNL     1       3.038   2.930   0.986  0.00  0.00    +0.277 C 
ENDBRANCH  32  33
BRANCH  29  35
ATOM     35  O   UNL     1       3.901  -1.400   5.434  0.00  0.00    -0.495 OA
ATOM     36  C   UNL     1       5.247  -1.219   5.879  0.00  0.00    +0.277 C 
ENDBRANCH  29  35
ENDBRANCH   1  27
TORSDOF 7
