REMARK  Name = ZINC17076715
REMARK  3 active torsions:
REMARK  status: ('A' for Active; 'I' for Inactive)
REMARK    1  A    between atoms: C_6  and  C_7
REMARK    2  A    between atoms: C_13  and  C_15
REMARK    3  A    between atoms: C_22  and  C_24
REMARK                            x       y       z     vdW  Elec       q    Type
REMARK                         _______ _______ _______ _____ _____    ______ ____
ROOT
ATOM      1  C   UNL     1      -3.749  -4.557  -2.322  0.00  0.00    +0.080 A 
ATOM      2  C   UNL     1      -4.099  -3.971  -3.507  0.00  0.00    +0.076 A 
ATOM      3  S   UNL     1      -2.985  -2.572  -3.526  0.00  0.00    -0.060 S 
ATOM      4  C   UNL     1      -2.176  -2.910  -1.968  0.00  0.00    +0.165 A 
ATOM      5  N   UNL     1      -2.792  -4.014  -1.586  0.00  0.00    -0.225 NA
ATOM      6  N   UNL     1      -1.163  -2.203  -1.332  0.00  0.00    -0.264 N 
ATOM      7  C   UNL     1      -0.660  -1.089  -1.899  0.00  0.00    +0.223 C 
ATOM      8  O   UNL     1      -1.091  -0.704  -2.966  0.00  0.00    -0.275 OA
ATOM      9  H   UNL     1      -0.819  -2.511  -0.479  0.00  0.00    +0.157 HD
ENDROOT
BRANCH   1  15
ATOM     10  C   UNL     1      -5.439  -6.362  -2.647  0.00  0.00    +0.011 A 
ATOM     11  C   UNL     1      -6.066  -7.516  -2.224  0.00  0.00    +0.020 A 
ATOM     12  C   UNL     1      -5.705  -8.102  -1.023  0.00  0.00    +0.041 A 
ATOM     13  C   UNL     1      -4.709  -7.539  -0.244  0.00  0.00    +0.020 A 
ATOM     14  C   UNL     1      -4.072  -6.388  -0.661  0.00  0.00    +0.011 A 
ATOM     15  C   UNL     1      -4.432  -5.794  -1.869  0.00  0.00    +0.001 A 
ATOM     16 CL   UNL     1      -6.504  -9.549  -0.492  0.00  0.00    -0.084 Cl
ENDBRANCH   1  15
BRANCH   7  17
ATOM     17  C   UNL     1       0.438  -0.322  -1.209  0.00  0.00    +0.097 C 
ATOM     18  C   UNL     1       1.250   0.523  -2.241  0.00  0.00    +0.025 C 
ATOM     19  C   UNL     1       0.320   1.784  -2.371  0.00  0.00    +0.016 C 
ATOM     20  C   UNL     1       0.370   2.093  -0.830  0.00  0.00    +0.027 C 
ATOM     21  C   UNL     1      -0.158   0.741  -0.254  0.00  0.00    +0.121 C 
ATOM     22  C   UNL     1       1.885   2.030  -0.601  0.00  0.00    -0.027 C 
ATOM     23  C   UNL     1       2.405   1.107  -1.418  0.00  0.00    -0.027 C 
BRANCH  21  24
ATOM     24  C   UNL     1      -1.664   0.701  -0.290  0.00  0.00    +0.360 C 
ATOM     25  O   UNL     1      -2.268   1.391  -1.077  0.00  0.00    -0.246 OA
ATOM     26  O   UNL     1      -2.335  -0.101   0.551  0.00  0.00    -0.246 OA
ENDBRANCH  21  24
ENDBRANCH   7  17
TORSDOF 3
