REMARK  Name = ZINC62805521
REMARK  4 active torsions:
REMARK  status: ('A' for Active; 'I' for Inactive)
REMARK    1  A    between atoms: C_6  and  O_7
REMARK    2  A    between atoms: O_7  and  C_8
REMARK    3  A    between atoms: C_8  and  C_9
REMARK    4  A    between atoms: N_15  and  O_16
REMARK                            x       y       z     vdW  Elec       q    Type
REMARK                         _______ _______ _______ _____ _____    ______ ____
ROOT
ATOM      1  C   UNL     1      -0.017   1.386   0.010  0.00  0.00    +0.046 A 
ATOM      2  C   UNL     1       1.168   2.089   0.002  0.00  0.00    +0.017 A 
ATOM      3  C   UNL     1       2.384   1.405  -0.013  0.00  0.00    +0.045 A 
ATOM      4  C   UNL     1       2.409   0.005  -0.021  0.00  0.00    +0.134 A 
ATOM      5  C   UNL     1       1.206  -0.690  -0.014  0.00  0.00    +0.092 A 
ATOM      6  C   UNL     1       0.002  -0.004   0.002  0.00  0.00    +0.124 A 
ATOM      7  O   UNL     1       3.682  -0.461  -0.035  0.00  0.00    -0.485 OA
ATOM      8  C   UNL     1       4.615   0.620  -0.038  0.00  0.00    +0.288 C 
ATOM      9  C   UNL     1       3.782   1.885  -0.024  0.00  0.00    +0.128 C 
ATOM     10  N   UNL     1       4.200   3.110  -0.021  0.00  0.00    -0.088 NA
ENDROOT
BRANCH  10  11
ATOM     11  O   UNL     1       5.590   3.384  -0.032  0.00  0.00    -0.409 OA
ATOM     12  H   UNL     1       5.805   4.327  -0.029  0.00  0.00    +0.328 HD
ENDBRANCH  10  11
BRANCH   6  13
ATOM     13  O   UNL     1      -1.167  -0.694   0.009  0.00  0.00    -0.486 OA
BRANCH  13  14
ATOM     14  C   UNL     1      -2.373   0.073   0.025  0.00  0.00    +0.300 C 
BRANCH  14  15
ATOM     15  C   UNL     1      -3.578  -0.871   0.032  0.00  0.00    +0.378 C 
ATOM     16  F   UNL     1      -3.549  -1.671  -1.115  0.00  0.00    -0.206 F 
ATOM     17  F   UNL     1      -3.527  -1.684   1.169  0.00  0.00    -0.206 F 
ENDBRANCH  14  15
ENDBRANCH  13  14
ENDBRANCH   6  13
TORSDOF 4
