REMARK  Name = ZINC06776756
REMARK  8 active torsions:
REMARK  status: ('A' for Active; 'I' for Inactive)
REMARK    1  A    between atoms: C_1  and  N_58
REMARK    2  A    between atoms: C_2  and  N_58
REMARK    3  A    between atoms: C_3  and  C_4
REMARK    4  A    between atoms: C_3  and  N_58
REMARK    5  A    between atoms: C_4  and  N_5
REMARK    6  A    between atoms: C_6  and  C_8
REMARK    7  A    between atoms: C_14  and  C_16
REMARK    8  A    between atoms: C_21  and  C_22
REMARK                            x       y       z     vdW  Elec       q    Type
REMARK                         _______ _______ _______ _____ _____    ______ ____
ROOT
ATOM      1  C   UNL     1      -1.040   3.719  -2.416  0.00  0.00    +0.190 C 
ATOM      2  C   UNL     1      -2.134   2.627  -2.521  0.00  0.00    +0.194 C 
ATOM      3  O   UNL     1      -1.593   1.566  -1.700  0.00  0.00    -0.354 OA
ATOM      4  C   UNL     1      -0.951   2.223  -0.596  0.00  0.00    +0.139 C 
ATOM      5  N   UNL     1      -0.572   3.579  -1.019  0.00  0.00    -0.255 N 
ATOM      6  C   UNL     1       0.070   4.508  -0.283  0.00  0.00    +0.250 C 
ATOM      7  O   UNL     1       0.373   4.268   0.870  0.00  0.00    -0.270 OA
ATOM      8  C   UNL     1       0.300   1.442  -0.191  0.00  0.00    +0.055 C 
ATOM      9  C   UNL     1       0.982   2.147   0.985  0.00  0.00    +0.004 C 
ATOM     10  C   UNL     1       0.013   2.219   2.167  0.00  0.00    +0.000 C 
ATOM     11  C   UNL     1      -1.233   3.007   1.758  0.00  0.00    +0.004 C 
ATOM     12  C   UNL     1      -1.919   2.304   0.585  0.00  0.00    +0.055 C 
ENDROOT
BRANCH   6  13
ATOM     13  C   UNL     1       0.408   5.819  -0.878  0.00  0.00    +0.049 A 
ATOM     14  C   UNL     1       0.517   5.953  -2.263  0.00  0.00    +0.013 A 
ATOM     15  C   UNL     1       0.832   7.179  -2.812  0.00  0.00    +0.001 A 
ATOM     16  C   UNL     1       1.039   8.274  -1.992  0.00  0.00    +0.001 A 
ATOM     17  C   UNL     1       0.932   8.148  -0.618  0.00  0.00    +0.013 A 
ATOM     18  C   UNL     1       0.612   6.929  -0.057  0.00  0.00    +0.067 A 
BRANCH  18  19
ATOM     19  C   UNL     1       0.490   6.795   1.439  0.00  0.00    +0.418 C 
ATOM     20  F   UNL     1       0.738   8.034   2.040  0.00  0.00    -0.166 F 
ATOM     21  F   UNL     1      -0.801   6.368   1.765  0.00  0.00    -0.166 F 
ATOM     22  F   UNL     1       1.422   5.859   1.901  0.00  0.00    -0.166 F 
ENDBRANCH  18  19
ENDBRANCH   6  13
BRANCH   1  24
ATOM     23  N   UNL     1      -1.626   5.618  -3.888  0.00  0.00    -0.315 N 
ATOM     24  C   UNL     1      -1.627   5.087  -2.649  0.00  0.00    +0.236 C 
ATOM     25  O   UNL     1      -2.100   5.710  -1.722  0.00  0.00    -0.274 OA
ATOM     26  H   UNL     1      -1.248   5.120  -4.629  0.00  0.00    +0.149 HD
BRANCH  23  27
ATOM     27  C   UNL     1      -2.197   6.949  -4.114  0.00  0.00    +0.085 C 
BRANCH  27  28
ATOM     28  C   UNL     1      -2.070   7.312  -5.595  0.00  0.00    -0.061 C 
BRANCH  28  31
ATOM     29  C   UNL     1      -2.330   9.130  -7.173  0.00  0.00    -0.097 C 
ATOM     30  C   UNL     1      -4.092   8.644  -5.585  0.00  0.00    -0.097 C 
ATOM     31  N   UNL     1      -2.630   8.664  -5.803  0.00  0.00    +0.377 N 
ATOM     32  H   UNL     1      -2.201   9.310  -5.130  0.00  0.00    -0.083 HD
ENDBRANCH  28  31
ENDBRANCH  27  28
ENDBRANCH  23  27
ENDBRANCH   1  24
TORSDOF 6
