REMARK  Name = ZINC40158454
REMARK  12 active torsions:
REMARK  status: ('A' for Active; 'I' for Inactive)
REMARK    1  A    between atoms: C_1  and  C_2
REMARK    2  A    between atoms: C_2  and  C_3
REMARK    3  A    between atoms: C_2  and  C_4
REMARK    4  A    between atoms: C_2  and  C_27
REMARK    5  A    between atoms: C_4  and  N_5
REMARK    6  A    between atoms: C_6  and  C_8
REMARK    7  A    between atoms: N_16  and  C_17
REMARK    8  A    between atoms: C_20  and  S_23
REMARK    9  A    between atoms: S_23  and  N_26
REMARK   10  A    between atoms: C_27  and  N_28
REMARK   11  A    between atoms: N_28  and  C_29
REMARK   12  A    between atoms: N_28  and  C_30
REMARK                            x       y       z     vdW  Elec       q    Type
REMARK                         _______ _______ _______ _____ _____    ______ ____
ROOT
ATOM      1  C   UNL     1      -4.684   2.650   1.452  0.00  0.00    +0.078 C 
ATOM      2  C   UNL     1      -4.317   1.777   2.654  0.00  0.00    +0.032 C 
ATOM      3  C   UNL     1      -4.206   2.656   3.904  0.00  0.00    +0.110 C 
ATOM      4  N   UNL     1      -5.457   3.409   4.065  0.00  0.00    -0.285 N 
ATOM      5  C   UNL     1      -5.950   4.211   2.937  0.00  0.00    +0.110 C 
ATOM      6  C   UNL     1      -6.041   3.314   1.698  0.00  0.00    +0.032 C 
ATOM      7  C   UNL     1      -6.141   3.364   5.226  0.00  0.00    +0.306 C 
ATOM      8  O   UNL     1      -5.680   2.768   6.180  0.00  0.00    -0.252 OA
ATOM      9  N   UNL     1      -7.335   3.981   5.329  0.00  0.00    -0.269 N 
ATOM     10  H   UNL     1      -7.676   4.505   4.587  0.00  0.00    +0.156 HD
ENDROOT
BRANCH   9  11
ATOM     11  C   UNL     1      -8.084   3.864   6.505  0.00  0.00    +0.035 A 
ATOM     12  C   UNL     1      -7.446   3.857   7.738  0.00  0.00    +0.025 A 
ATOM     13  C   UNL     1      -8.188   3.742   8.898  0.00  0.00    +0.030 A 
ATOM     14  C   UNL     1      -9.565   3.633   8.831  0.00  0.00    +0.105 A 
ATOM     15  C   UNL     1     -10.203   3.639   7.604  0.00  0.00    +0.030 A 
ATOM     16  C   UNL     1      -9.467   3.759   6.442  0.00  0.00    +0.025 A 
BRANCH  14  17
ATOM     17  S   UNL     1     -10.508   3.486  10.312  0.00  0.00    +0.056 S 
ATOM     18  O   UNL     1     -11.728   2.851   9.956  0.00  0.00    -0.153 OA
ATOM     19  O   UNL     1      -9.633   2.958  11.300  0.00  0.00    -0.153 OA
BRANCH  17  20
ATOM     20  N   UNL     1     -10.898   5.021  10.798  0.00  0.00    -0.204 NA
ATOM     21  H   UNL     1     -10.603   5.784  10.278  0.00  0.00    +0.144 HD
ATOM     22  H   UNL     1     -11.421   5.156  11.604  0.00  0.00    +0.144 HD
ENDBRANCH  17  20
ENDBRANCH  14  17
ENDBRANCH   9  11
BRANCH   1  24
ATOM     23  N   UNL     1      -3.676   1.109  -0.199  0.00  0.00    -0.315 N 
ATOM     24  C   UNL     1      -4.761   1.794   0.214  0.00  0.00    +0.216 C 
ATOM     25  O   UNL     1      -5.798   1.723  -0.410  0.00  0.00    -0.276 OA
ATOM     26  H   UNL     1      -2.847   1.166   0.300  0.00  0.00    +0.149 HD
BRANCH  23  27
ATOM     27  C   UNL     1      -3.751   0.277  -1.402  0.00  0.00    +0.108 C 
BRANCH  27  29
ATOM     28  C   UNL     1      -1.326   0.691  -1.839  0.00  0.00    +0.010 C 
ATOM     29  C   UNL     1      -2.395  -0.387  -1.648  0.00  0.00    -0.034 C 
ATOM     30  C   UNL     1      -2.029  -1.261  -0.446  0.00  0.00    +0.010 C 
BRANCH  29  31
ATOM     31  C   UNL     1      -2.472  -1.256  -2.905  0.00  0.00    -0.072 C 
BRANCH  31  32
ATOM     32  N   UNL     1      -1.178  -1.914  -3.126  0.00  0.00    +0.376 N 
ATOM     33  C   UNL     1      -1.113  -3.147  -2.330  0.00  0.00    -0.097 C 
ATOM     34  C   UNL     1      -1.032  -2.243  -4.550  0.00  0.00    -0.097 C 
ATOM     35  H   UNL     1      -0.433  -1.294  -2.846  0.00  0.00    -0.083 HD
ENDBRANCH  31  32
ENDBRANCH  29  31
ENDBRANCH  27  29
ENDBRANCH  23  27
ENDBRANCH   1  24
TORSDOF 8
