REMARK  Name = ZINC24719307
REMARK  10 active torsions:
REMARK  status: ('A' for Active; 'I' for Inactive)
REMARK    1  A    between atoms: C_1  and  C_2
REMARK    2  A    between atoms: C_2  and  C_3
REMARK    3  A    between atoms: C_3  and  C_5
REMARK    4  A    between atoms: C_8  and  O_11
REMARK    5  A    between atoms: O_11  and  C_12
REMARK    6  A    between atoms: C_12  and  C_13
REMARK    7  A    between atoms: C_13  and  C_15
REMARK    8  A    between atoms: C_13  and  O_33
REMARK    9  A    between atoms: C_15  and  N_16
REMARK   10  A    between atoms: C_23  and  C_26
REMARK                            x       y       z     vdW  Elec       q    Type
REMARK                         _______ _______ _______ _____ _____    ______ ____
ROOT
ATOM      1  N   UNL     1      -7.565   7.998  -0.046  0.00  0.00    -0.296 N 
ATOM      2  C   UNL     1      -8.140   8.333   1.137  0.00  0.00    +0.203 A 
ATOM      3  N   UNL     1      -9.352   8.819   1.185  0.00  0.00    -0.230 NA
ATOM      4  C   UNL     1     -10.062   9.000   0.075  0.00  0.00    +0.116 A 
ATOM      5  C   UNL     1      -9.551   8.683  -1.194  0.00  0.00    +0.080 A 
ATOM      6  C   UNL     1      -8.219   8.158  -1.212  0.00  0.00    +0.263 A 
ATOM      7  O   UNL     1      -7.687   7.857  -2.266  0.00  0.00    -0.267 OA
ATOM      8  C   UNL     1     -10.456   8.941  -2.307  0.00  0.00    +0.004 A 
ATOM      9  C   UNL     1     -11.683   9.452  -2.044  0.00  0.00    +0.056 A 
ATOM     10  S   UNL     1     -11.690   9.615  -0.269  0.00  0.00    -0.076 S 
ENDROOT
BRANCH   8  11
ATOM     11  C   UNL     1     -10.041   8.652  -3.700  0.00  0.00    -0.016 A 
ATOM     12  C   UNL     1      -8.821   9.126  -4.180  0.00  0.00    +0.011 A 
ATOM     13  C   UNL     1      -8.437   8.850  -5.476  0.00  0.00    +0.039 A 
ATOM     14  C   UNL     1      -9.266   8.111  -6.304  0.00  0.00    +0.123 A 
ATOM     15  C   UNL     1     -10.482   7.642  -5.834  0.00  0.00    +0.039 A 
ATOM     16  C   UNL     1     -10.872   7.909  -4.537  0.00  0.00    +0.011 A 
ATOM     17  F   UNL     1      -8.888   7.847  -7.574  0.00  0.00    -0.205 F 
ENDBRANCH   8  11
BRANCH   1  18
ATOM     18  C   UNL     1      -6.204   7.456  -0.055  0.00  0.00    +0.161 C 
BRANCH  18  19
ATOM     19  C   UNL     1      -6.261   5.932   0.063  0.00  0.00    +0.172 C 
BRANCH  19  20
ATOM     20  O   UNL     1      -6.909   5.572   1.285  0.00  0.00    -0.387 OA
ATOM     21  H   UNL     1      -7.944   5.892   1.473  0.00  0.00    +0.210 HD
ENDBRANCH  19  20
BRANCH  19  22
ATOM     22  C   UNL     1      -4.839   5.367   0.054  0.00  0.00    +0.262 C 
BRANCH  22  23
ATOM     23  O   UNL     1      -4.895   3.939   0.046  0.00  0.00    -0.489 OA
BRANCH  23  27
ATOM     24  C   UNL     1      -1.296   1.926   0.019  0.00  0.00    +0.018 A 
ATOM     25  C   UNL     1      -1.318   3.326   0.032  0.00  0.00    +0.015 A 
ATOM     26  C   UNL     1      -2.517   3.990   0.036  0.00  0.00    +0.046 A 
ATOM     27  C   UNL     1      -3.711   3.276   0.037  0.00  0.00    +0.121 A 
ATOM     28  C   UNL     1      -3.695   1.886   0.030  0.00  0.00    +0.046 A 
ATOM     29  C   UNL     1      -2.501   1.212   0.021  0.00  0.00    +0.015 A 
BRANCH  24  30
ATOM     30  C   UNL     1      -0.014   1.209   0.009  0.00  0.00    +0.163 C 
ATOM     31  O   UNL     1       0.002  -0.004   0.002  0.00  0.00    -0.292 OA
BRANCH  30  33
ATOM     32  C   UNL     1       2.457   1.002  -0.016  0.00  0.00    +0.012 C 
ATOM     33  C   UNL     1       1.280   1.980   0.001  0.00  0.00    +0.076 C 
ENDBRANCH  30  33
ENDBRANCH  24  30
ENDBRANCH  23  27
ENDBRANCH  22  23
ENDBRANCH  19  22
ENDBRANCH  18  19
ENDBRANCH   1  18
TORSDOF 9
