REMARK  Name = ZINC04033713
REMARK  8 active torsions:
REMARK  status: ('A' for Active; 'I' for Inactive)
REMARK    1  A    between atoms: C_1  and  C_2
REMARK    2  A    between atoms: C_5  and  C_26
REMARK    3  A    between atoms: C_9  and  C_14
REMARK    4  A    between atoms: C_14  and  C_15
REMARK    5  A    between atoms: C_15  and  N_16
REMARK    6  A    between atoms: N_16  and  C_17
REMARK    7  A    between atoms: C_17  and  N_19
REMARK    8  A    between atoms: N_19  and  C_20
REMARK                            x       y       z     vdW  Elec       q    Type
REMARK                         _______ _______ _______ _____ _____    ______ ____
ROOT
ATOM      1  C   UNL     1      -2.516  -0.038   0.025  0.00  0.00    +0.044 C 
ATOM      2  C   UNL     1      -1.185  -0.744   0.008  0.00  0.00    -0.041 A 
ATOM      3  C   UNL     1      -1.132  -2.109   0.002  0.00  0.00    +0.004 A 
ATOM      4  C   UNL     1       0.089  -2.769  -0.014  0.00  0.00    +0.005 A 
ATOM      5  C   UNL     1       1.272  -2.060  -0.021  0.00  0.00    -0.026 A 
ATOM      6  C   UNL     1       1.243  -0.669  -0.013  0.00  0.00    +0.052 A 
ATOM      7  C   UNL     1       0.002  -0.004   0.002  0.00  0.00    +0.002 A 
ATOM      8  C   UNL     1      -0.018   1.460   0.010  0.00  0.00    +0.019 A 
ATOM      9  C   UNL     1       1.165   2.124   0.002  0.00  0.00    +0.019 A 
ATOM     10  C   UNL     1       2.381   1.409  -0.014  0.00  0.00    +0.252 A 
ATOM     11  O   UNL     1       3.433   2.025  -0.021  0.00  0.00    -0.268 OA
ATOM     12  N   UNL     1       2.410   0.065  -0.021  0.00  0.00    -0.322 N 
ATOM     13  H   UNL     1       3.290  -0.410  -0.032  0.00  0.00    +0.169 HD
ATOM     14  C   UNL     1       2.590  -2.789  -0.037  0.00  0.00    +0.046 C 
ENDROOT
BRANCH   9  15
ATOM     15  C   UNL     1       1.179   3.631   0.010  0.00  0.00    +0.059 C 
BRANCH  15  16
ATOM     16  C   UNL     1       1.324   4.132   1.448  0.00  0.00    +0.108 C 
BRANCH  16  17
ATOM     17  N   UNL     1       1.338   5.597   1.455  0.00  0.00    -0.326 N 
ATOM     18  H   UNL     1       1.262   6.087   0.622  0.00  0.00    +0.148 HD
BRANCH  17  19
ATOM     19  C   UNL     1       1.457   6.264   2.620  0.00  0.00    +0.130 C 
ATOM     20  S   UNL     1       1.592   5.399   4.092  0.00  0.00    -0.019 S 
BRANCH  19  21
ATOM     21  N   UNL     1       1.471   7.612   2.627  0.00  0.00    -0.324 N 
ATOM     22  H   UNL     1       1.395   8.102   1.793  0.00  0.00    +0.148 HD
BRANCH  21  23
ATOM     23  C   UNL     1       1.600   8.337   3.893  0.00  0.00    +0.072 C 
ATOM     24  C   UNL     1       0.220   8.493   4.535  0.00  0.00    +0.022 C 
ATOM     25  C   UNL     1       0.356   9.251   5.858  0.00  0.00    +0.002 C 
ATOM     26  C   UNL     1       0.956  10.633   5.595  0.00  0.00    +0.000 C 
ATOM     27  C   UNL     1       2.336  10.476   4.953  0.00  0.00    +0.002 C 
ATOM     28  C   UNL     1       2.200   9.719   3.630  0.00  0.00    +0.022 C 
ENDBRANCH  21  23
ENDBRANCH  19  21
ENDBRANCH  17  19
ENDBRANCH  16  17
ENDBRANCH  15  16
ENDBRANCH   9  15
TORSDOF 6
