REMARK  Name = ZINC00803688
REMARK  10 active torsions:
REMARK  status: ('A' for Active; 'I' for Inactive)
REMARK    1  A    between atoms: C_1  and  C_2
REMARK    2  A    between atoms: C_2  and  O_3
REMARK    3  A    between atoms: O_3  and  C_4
REMARK    4  A    between atoms: C_4  and  C_6
REMARK    5  A    between atoms: C_7  and  N_32
REMARK    6  A    between atoms: C_11  and  C_13
REMARK    7  A    between atoms: C_16  and  O_23
REMARK    8  A    between atoms: O_23  and  C_24
REMARK    9  A    between atoms: C_28  and  C_30
REMARK   10  A    between atoms: C_28  and  C_31
REMARK                            x       y       z     vdW  Elec       q    Type
REMARK                         _______ _______ _______ _____ _____    ______ ____
ROOT
ATOM      1  C   UNL     1      -1.388   4.817   2.224  0.00  0.00    +0.105 C 
ATOM      2  C   UNL     1      -2.083   5.208   3.324  0.00  0.00    +0.195 C 
ATOM      3  O   UNL     1      -2.179   6.502   3.665  0.00  0.00    -0.446 OA
ATOM      4  C   UNL     1      -1.980   7.457   2.738  0.00  0.00    +0.115 C 
ATOM      5  C   UNL     1      -1.290   7.206   1.610  0.00  0.00    +0.045 C 
ATOM      6  C   UNL     1      -0.706   5.836   1.355  0.00  0.00    +0.098 C 
ATOM      7  C   UNL     1      -1.088   8.205   0.638  0.00  0.00    +0.164 C 
ATOM      8  O   UNL     1      -0.443   7.946  -0.358  0.00  0.00    -0.292 OA
ATOM      9  C   UNL     1      -1.657   9.587   0.810  0.00  0.00    +0.086 C 
ATOM     10  C   UNL     1      -2.919   9.499   1.676  0.00  0.00    -0.021 C 
ATOM     11  C   UNL     1      -2.551   8.831   3.002  0.00  0.00    +0.081 C 
ATOM     12  C   UNL     1      -3.979   8.663   0.956  0.00  0.00    +0.012 C 
ATOM     13  C   UNL     1      -3.465  10.903   1.942  0.00  0.00    +0.012 C 
ENDROOT
BRANCH   6  14
ATOM     14  C   UNL     1       0.769   5.850   1.666  0.00  0.00    -0.027 A 
ATOM     15  C   UNL     1       1.205   6.250   2.892  0.00  0.00    +0.009 A 
ATOM     16  C   UNL     1       2.562   6.267   3.202  0.00  0.00    +0.046 A 
ATOM     17  C   UNL     1       3.497   5.891   2.279  0.00  0.00    +0.128 A 
ATOM     18  C   UNL     1       3.082   5.476   0.997  0.00  0.00    +0.024 A 
ATOM     19  C   UNL     1       1.699   5.457   0.689  0.00  0.00    -0.010 A 
ATOM     20  C   UNL     1       1.284   5.043  -0.589  0.00  0.00    +0.009 A 
ATOM     21  C   UNL     1       2.214   4.668  -1.510  0.00  0.00    +0.001 A 
ATOM     22  C   UNL     1       3.574   4.687  -1.205  0.00  0.00    +0.001 A 
ATOM     23  C   UNL     1       4.011   5.082   0.022  0.00  0.00    +0.012 A 
BRANCH  17  24
ATOM     24  O   UNL     1       4.818   5.917   2.594  0.00  0.00    -0.495 OA
ATOM     25  C   UNL     1       5.162   6.349   3.913  0.00  0.00    +0.277 C 
ENDBRANCH  17  24
ENDBRANCH   6  14
BRANCH   2  26
ATOM     26  N   UNL     1      -2.697   4.263   4.101  0.00  0.00    -0.329 N 
ATOM     27  H   UNL     1      -2.565   3.320   3.913  0.00  0.00    +0.145 HD
ATOM     28  H   UNL     1      -3.265   4.535   4.839  0.00  0.00    +0.145 HD
ENDBRANCH   2  26
BRANCH   1  29
ATOM     29  C   UNL     1      -1.303   3.454   1.901  0.00  0.00    +0.341 C 
ATOM     30  O   UNL     1      -1.988   2.996   1.004  0.00  0.00    -0.245 OA
BRANCH  29  31
ATOM     31  O   UNL     1      -0.460   2.649   2.585  0.00  0.00    -0.462 OA
BRANCH  31  33
ATOM     32  C   UNL     1       0.580   0.525   3.082  0.00  0.00    +0.048 C 
ATOM     33  C   UNL     1      -0.425   1.273   2.202  0.00  0.00    +0.229 C 
ENDBRANCH  31  33
ENDBRANCH  29  31
ENDBRANCH   1  29
TORSDOF 6
