REMARK  Name = ZINC20528299
REMARK  9 active torsions:
REMARK  status: ('A' for Active; 'I' for Inactive)
REMARK    1  A    between atoms: C_1  and  C_2
REMARK    2  A    between atoms: C_5  and  N_9
REMARK    3  A    between atoms: C_7  and  C_8
REMARK    4  A    between atoms: C_10  and  C_12
REMARK    5  A    between atoms: C_12  and  S_13
REMARK    6  A    between atoms: S_13  and  C_14
REMARK    7  A    between atoms: N_18  and  N_19
REMARK    8  A    between atoms: N_20  and  N_21
REMARK    9  A    between atoms: C_22  and  C_23
REMARK                            x       y       z     vdW  Elec       q    Type
REMARK                         _______ _______ _______ _____ _____    ______ ____
ROOT
ATOM      1  C   UNL     1       0.670   3.511  -0.360  0.00  0.00    +0.210 A 
ATOM      2  N   UNL     1      -0.629   3.473  -0.182  0.00  0.00    -0.119 NA
ATOM      3  N   UNL     1      -1.033   2.132  -0.230  0.00  0.00    -0.109 NA
ATOM      4  C   UNL     1       0.033   1.395  -0.426  0.00  0.00    +0.254 A 
ATOM      5  N   UNL     1       1.113   2.229  -0.515  0.00  0.00    -0.211 N 
ATOM      6  N   UNL     1       0.060   0.011  -0.531  0.00  0.00    -0.204 N 
ATOM      7  H   UNL     1       1.015  -0.509  -0.702  0.00  0.00    +0.177 HD
ENDROOT
BRANCH   5   8
ATOM      8  N   UNL     1       2.408   1.846  -0.722  0.00  0.00    -0.294 N 
ATOM      9  H   UNL     1       2.655   0.780  -0.835  0.00  0.00    +0.163 HD
ATOM     10  H   UNL     1       3.204   2.604  -0.777  0.00  0.00    +0.163 HD
ENDBRANCH   5   8
BRANCH   6  11
ATOM     11  N   UNL     1      -1.128  -0.723  -0.420  0.00  0.00    -0.188 NA
ATOM     12  C   UNL     1      -1.102  -2.018  -0.519  0.00  0.00    +0.138 C 
BRANCH  12  13
ATOM     13  C   UNL     1      -2.352  -2.790  -0.402  0.00  0.00    -0.005 A 
ATOM     14  C   UNL     1      -3.565  -2.133  -0.180  0.00  0.00    +0.011 A 
ATOM     15  C   UNL     1      -4.732  -2.862  -0.077  0.00  0.00    +0.020 A 
ATOM     16  C   UNL     1      -4.701  -4.242  -0.183  0.00  0.00    +0.041 A 
ATOM     17  C   UNL     1      -3.502  -4.900  -0.397  0.00  0.00    +0.020 A 
ATOM     18  C   UNL     1      -2.329  -4.183  -0.507  0.00  0.00    +0.011 A 
ATOM     19 CL   UNL     1      -6.173  -5.152  -0.046  0.00  0.00    -0.084 Cl
ENDBRANCH  12  13
ENDBRANCH   6  11
BRANCH   1  20
ATOM     20  S   UNL     1       1.668   4.963  -0.391  0.00  0.00    -0.075 S 
BRANCH  20  21
ATOM     21  C   UNL     1       0.486   6.314  -0.129  0.00  0.00    +0.173 C 
BRANCH  21  23
ATOM     22  N   UNL     1       0.540   8.781   0.045  0.00  0.00    -0.285 N 
ATOM     23  C   UNL     1       1.219   7.630  -0.134  0.00  0.00    +0.227 C 
ATOM     24  O   UNL     1       2.421   7.655  -0.298  0.00  0.00    -0.275 OA
ATOM     25  H   UNL     1      -0.558   8.767   0.107  0.00  0.00    +0.155 HD
BRANCH  22  30
ATOM     26  C   UNL     1       3.344  13.694   0.473  0.00  0.00    +0.044 C 
ATOM     27  C   UNL     1       2.599  12.389   0.360  0.00  0.00    -0.047 A 
ATOM     28  C   UNL     1       3.166  11.226   0.847  0.00  0.00    +0.005 A 
ATOM     29  C   UNL     1       2.484  10.029   0.750  0.00  0.00    +0.023 A 
ATOM     30  C   UNL     1       1.231   9.992   0.151  0.00  0.00    +0.034 A 
ATOM     31  C   UNL     1       0.665  11.162  -0.339  0.00  0.00    +0.027 A 
ATOM     32  C   UNL     1       1.350  12.357  -0.233  0.00  0.00    -0.046 A 
ATOM     33  C   UNL     1       0.736  13.626  -0.763  0.00  0.00    +0.044 C 
ENDBRANCH  22  30
ENDBRANCH  21  23
ENDBRANCH  20  21
ENDBRANCH   1  20
TORSDOF 7
