REMARK  Name = ZINC35416963
REMARK  8 active torsions:
REMARK  status: ('A' for Active; 'I' for Inactive)
REMARK    1  A    between atoms: C_1  and  C_2
REMARK    2  A    between atoms: C_2  and  C_3
REMARK    3  A    between atoms: C_2  and  C_4
REMARK    4  A    between atoms: C_8  and  C_28
REMARK    5  A    between atoms: C_9  and  N_10
REMARK    6  A    between atoms: C_17  and  C_19
REMARK    7  A    between atoms: C_28  and  C_29
REMARK    8  A    between atoms: C_28  and  C_30
REMARK                            x       y       z     vdW  Elec       q    Type
REMARK                         _______ _______ _______ _____ _____    ______ ____
ROOT
ATOM      1  N   UNL     1      -0.938  -0.206  -2.336  0.00  0.00    -0.269 N 
ATOM      2  C   UNL     1      -0.758  -1.110  -3.319  0.00  0.00    +0.308 C 
ATOM      3  O   UNL     1      -1.299  -2.196  -3.253  0.00  0.00    -0.252 OA
ATOM      4  N   UNL     1       0.023  -0.809  -4.375  0.00  0.00    -0.269 N 
ATOM      5  C   UNL     1       0.699   0.479  -4.496  0.00  0.00    +0.121 C 
ATOM      6  C   UNL     1       2.049   0.328  -5.258  0.00  0.00    +0.090 C 
ATOM      7  S   UNL     1       1.510  -0.915  -6.517  0.00  0.00    -0.132 S 
ATOM      8  C   UNL     1       0.251  -1.766  -5.476  0.00  0.00    +0.166 C 
ATOM      9  H   UNL     1      -0.571   0.688  -2.425  0.00  0.00    +0.156 HD
ENDROOT
BRANCH   8  10
ATOM     10  C   UNL     1      -1.018  -1.991  -6.256  0.00  0.00    -0.013 A 
ATOM     11  C   UNL     1      -1.954  -0.978  -6.359  0.00  0.00    +0.010 A 
ATOM     12  C   UNL     1      -3.120  -1.179  -7.074  0.00  0.00    +0.050 A 
ATOM     13  C   UNL     1      -3.353  -2.398  -7.691  0.00  0.00    +0.166 A 
ATOM     14  C   UNL     1      -2.411  -3.418  -7.587  0.00  0.00    +0.167 A 
ATOM     15  C   UNL     1      -1.242  -3.207  -6.873  0.00  0.00    +0.056 A 
ATOM     16  O   UNL     1      -2.869  -4.506  -8.273  0.00  0.00    -0.453 OA
ATOM     17  C   UNL     1      -4.280  -4.281  -8.453  0.00  0.00    +0.466 C 
ATOM     18  O   UNL     1      -4.401  -2.846  -8.441  0.00  0.00    -0.453 OA
ENDBRANCH   8  10
BRANCH   1  24
ATOM     19  C   UNL     1      -1.038  -0.515   0.058  0.00  0.00    -0.023 A 
ATOM     20  C   UNL     1      -1.749  -0.857   1.191  0.00  0.00    +0.006 A 
ATOM     21  C   UNL     1      -3.073  -1.244   1.089  0.00  0.00    +0.001 A 
ATOM     22  C   UNL     1      -3.688  -1.291  -0.149  0.00  0.00    +0.006 A 
ATOM     23  C   UNL     1      -2.982  -0.952  -1.286  0.00  0.00    -0.023 A 
ATOM     24  C   UNL     1      -1.655  -0.556  -1.186  0.00  0.00    +0.042 A 
BRANCH  19  26
ATOM     25  C   UNL     1       0.505   1.145   1.063  0.00  0.00    +0.012 C 
ATOM     26  C   UNL     1       0.405  -0.094   0.171  0.00  0.00    +0.015 C 
ATOM     27  C   UNL     1       1.222  -1.232   0.785  0.00  0.00    +0.012 C 
ENDBRANCH  19  26
BRANCH  23  28
ATOM     28  C   UNL     1      -3.653  -1.005  -2.635  0.00  0.00    +0.015 C 
ATOM     29  C   UNL     1      -4.792  -2.025  -2.598  0.00  0.00    +0.012 C 
ATOM     30  C   UNL     1      -4.216   0.376  -2.979  0.00  0.00    +0.012 C 
ENDBRANCH  23  28
ENDBRANCH   1  24
TORSDOF 4
