REMARK  Name = ZINC41584973
REMARK  9 active torsions:
REMARK  status: ('A' for Active; 'I' for Inactive)
REMARK    1  A    between atoms: C_1  and  O_2
REMARK    2  A    between atoms: O_2  and  C_3
REMARK    3  A    between atoms: C_6  and  O_9
REMARK    4  A    between atoms: O_9  and  C_10
REMARK    5  A    between atoms: C_19  and  O_35
REMARK    6  A    between atoms: C_20  and  C_21
REMARK    7  A    between atoms: C_21  and  N_22
REMARK    8  A    between atoms: N_25  and  C_28
REMARK    9  A    between atoms: C_28  and  C_29
REMARK                            x       y       z     vdW  Elec       q    Type
REMARK                         _______ _______ _______ _____ _____    ______ ____
ROOT
ATOM      1  C   UNL     1      -4.952  -3.918   0.079  0.00  0.00    +0.210 A 
ATOM      2  C   UNL     1      -3.841  -4.678   0.153  0.00  0.00    +0.245 A 
ATOM      3  O   UNL     1      -3.880  -6.016   0.200  0.00  0.00    -0.459 OA
ATOM      4  C   UNL     1      -5.037  -6.707   0.177  0.00  0.00    +0.143 A 
ATOM      5  C   UNL     1      -6.261  -6.017   0.101  0.00  0.00    +0.068 A 
ATOM      6  C   UNL     1      -6.231  -4.545   0.054  0.00  0.00    +0.235 A 
ATOM      7  O   UNL     1      -7.258  -3.890  -0.007  0.00  0.00    -0.283 OA
ATOM      8  C   UNL     1      -7.465  -6.721   0.077  0.00  0.00    +0.019 A 
ATOM      9  C   UNL     1      -7.453  -8.086   0.128  0.00  0.00    +0.046 A 
ATOM     10  C   UNL     1      -6.246  -8.777   0.203  0.00  0.00    +0.122 A 
ATOM     11  C   UNL     1      -5.042  -8.093   0.227  0.00  0.00    +0.020 A 
ENDROOT
BRANCH  10  12
ATOM     12  O   UNL     1      -6.250 -10.134   0.253  0.00  0.00    -0.506 OA
ATOM     13  H   UNL     1      -6.215 -10.560  -0.614  0.00  0.00    +0.292 HD
ENDBRANCH  10  12
BRANCH   1  14
ATOM     14  O   UNL     1      -4.853  -2.562   0.035  0.00  0.00    -0.449 OA
BRANCH  14  18
ATOM     15  C   UNL     1      -6.003  -0.648  -3.437  0.00  0.00    +0.120 A 
ATOM     16  C   UNL     1      -5.977  -2.034  -3.385  0.00  0.00    +0.049 A 
ATOM     17  C   UNL     1      -5.593  -2.674  -2.224  0.00  0.00    +0.050 A 
ATOM     18  C   UNL     1      -5.231  -1.931  -1.109  0.00  0.00    +0.129 A 
ATOM     19  C   UNL     1      -5.257  -0.545  -1.161  0.00  0.00    +0.050 A 
ATOM     20  C   UNL     1      -5.638   0.095  -2.324  0.00  0.00    +0.049 A 
BRANCH  15  22
ATOM     21  C   UNL     1      -6.746  -0.844  -5.688  0.00  0.00    +0.277 C 
ATOM     22  O   UNL     1      -6.382  -0.017  -4.581  0.00  0.00    -0.495 OA
ENDBRANCH  15  22
ENDBRANCH  14  18
ENDBRANCH   1  14
BRANCH  11  23
ATOM     23  C   UNL     1      -3.743  -8.852   0.309  0.00  0.00    -0.035 C 
BRANCH  23  24
ATOM     24  N   UNL     1      -3.377  -9.048   1.718  0.00  0.00    +0.384 N 
ATOM     25  C   UNL     1      -3.108  -7.744   2.339  0.00  0.00    -0.063 C 
ATOM     26  C   UNL     1      -2.745  -7.946   3.812  0.00  0.00    +0.066 C 
ATOM     27  N   UNL     1      -1.559  -8.809   3.908  0.00  0.00    -0.302 NA
ATOM     28  C   UNL     1      -1.806 -10.108   3.268  0.00  0.00    +0.066 C 
ATOM     29  C   UNL     1      -2.176  -9.889   1.800  0.00  0.00    -0.063 C 
ATOM     30  H   UNL     1      -4.138  -9.500   2.203  0.00  0.00    -0.081 HD
BRANCH  27  31
ATOM     31  C   UNL     1      -1.145  -8.981   5.307  0.00  0.00    +0.119 C 
BRANCH  31  32
ATOM     32  C   UNL     1       0.201  -9.658   5.353  0.00  0.00    -0.033 A 
ATOM     33  C   UNL     1       0.279 -11.037   5.396  0.00  0.00    +0.005 A 
ATOM     34  C   UNL     1       1.514 -11.658   5.438  0.00  0.00    +0.000 A 
ATOM     35  C   UNL     1       2.669 -10.900   5.437  0.00  0.00    +0.000 A 
ATOM     36  C   UNL     1       2.591  -9.520   5.392  0.00  0.00    +0.000 A 
ATOM     37  C   UNL     1       1.357  -8.899   5.346  0.00  0.00    +0.005 A 
ENDBRANCH  31  32
ENDBRANCH  27  31
ENDBRANCH  23  24
ENDBRANCH  11  23
TORSDOF 8
