REMARK  Name = ZINC60950243
REMARK  6 active torsions:
REMARK  status: ('A' for Active; 'I' for Inactive)
REMARK    1  A    between atoms: C_4  and  C_7
REMARK    2  A    between atoms: C_7  and  C_8
REMARK    3  A    between atoms: C_7  and  N_25
REMARK    4  A    between atoms: C_8  and  N_9
REMARK    5  A    between atoms: N_9  and  S_10
REMARK    6  A    between atoms: S_10  and  C_13
REMARK                            x       y       z     vdW  Elec       q    Type
REMARK                         _______ _______ _______ _____ _____    ______ ____
ROOT
ATOM      1  N   UNL     1       4.259   0.272   2.195  0.00  0.00    -0.191 NA
ATOM      2  H   UNL     1       4.408   1.074   1.671  0.00  0.00    +0.148 HD
ENDROOT
BRANCH   1   3
ATOM      3  S   UNL     1       4.316   0.342   3.849  0.00  0.00    +0.058 S 
ATOM      4  O   UNL     1       4.624   1.687   4.188  0.00  0.00    -0.153 OA
ATOM      5  O   UNL     1       3.148  -0.315   4.323  0.00  0.00    -0.153 OA
BRANCH   3   6
ATOM      6  C   UNL     1       5.688  -0.635   4.365  0.00  0.00    +0.107 A 
ATOM      7  C   UNL     1       5.514  -1.984   4.627  0.00  0.00    +0.030 A 
ATOM      8  C   UNL     1       6.584  -2.758   5.032  0.00  0.00    +0.030 A 
ATOM      9  C   UNL     1       7.837  -2.182   5.177  0.00  0.00    +0.067 A 
ATOM     10  C   UNL     1       8.012  -0.822   4.913  0.00  0.00    +0.069 A 
ATOM     11  C   UNL     1       6.933  -0.054   4.502  0.00  0.00    +0.056 A 
ATOM     12  N   UNL     1       9.356  -0.537   5.142  0.00  0.00    -0.306 N 
ATOM     13  H   UNL     1       9.777   0.331   5.042  0.00  0.00    +0.170 HD
ATOM     14  C   UNL     1       9.970  -1.671   5.528  0.00  0.00    +0.325 A 
ATOM     15  O   UNL     1      11.151  -1.769   5.806  0.00  0.00    -0.247 OA
ATOM     16  N   UNL     1       9.080  -2.681   5.558  0.00  0.00    -0.306 N 
ATOM     17  H   UNL     1       9.272  -3.600   5.804  0.00  0.00    +0.170 HD
ENDBRANCH   3   6
ENDBRANCH   1   3
BRANCH   1  18
ATOM     18  C   UNL     1       3.984  -1.001   1.525  0.00  0.00    +0.095 C 
BRANCH  18  19
ATOM     19  C   UNL     1       3.590  -0.737   0.070  0.00  0.00    -0.022 C 
BRANCH  19  23
ATOM     20  C   UNL     1      -0.038   1.515  -0.037  0.00  0.00    +0.000 A 
ATOM     21  C   UNL     1       1.176   2.152  -0.213  0.00  0.00    +0.000 A 
ATOM     22  C   UNL     1       2.350   1.423  -0.178  0.00  0.00    +0.002 A 
ATOM     23  C   UNL     1       2.310   0.057   0.033  0.00  0.00    -0.060 A 
ATOM     24  C   UNL     1       1.096  -0.579   0.210  0.00  0.00    +0.002 A 
ATOM     25  C   UNL     1      -0.078   0.149   0.174  0.00  0.00    +0.000 A 
ENDBRANCH  19  23
BRANCH  19  26
ATOM     26  N   UNL     1       3.392  -2.017  -0.623  0.00  0.00    +0.385 N 
ATOM     27  C   UNL     1       3.136  -1.782  -2.067  0.00  0.00    -0.078 C 
ATOM     28  C   UNL     1       3.510  -3.138  -2.719  0.00  0.00    -0.020 C 
ATOM     29  C   UNL     1       4.736  -3.591  -1.893  0.00  0.00    -0.020 C 
ATOM     30  C   UNL     1       4.627  -2.828  -0.559  0.00  0.00    -0.078 C 
ATOM     31  H   UNL     1       2.622  -2.522  -0.210  0.00  0.00    -0.081 HD
ENDBRANCH  19  26
ENDBRANCH  18  19
ENDBRANCH   1  18
TORSDOF 6
