REMARK  Name = ZINC10211570
REMARK  8 active torsions:
REMARK  status: ('A' for Active; 'I' for Inactive)
REMARK    1  A    between atoms: C_1  and  C_2
REMARK    2  A    between atoms: C_6  and  N_9
REMARK    3  A    between atoms: C_7  and  C_8
REMARK    4  A    between atoms: C_19  and  S_20
REMARK    5  A    between atoms: S_20  and  C_21
REMARK    6  A    between atoms: C_21  and  C_22
REMARK    7  A    between atoms: N_24  and  N_25
REMARK    8  A    between atoms: C_26  and  C_28
REMARK                            x       y       z     vdW  Elec       q    Type
REMARK                         _______ _______ _______ _____ _____    ______ ____
ROOT
ATOM      1  N   UNL     1       0.037  -2.767  -0.012  0.00  0.00    -0.255 N 
ATOM      2  C   UNL     1       1.239  -2.146  -0.021  0.00  0.00    +0.267 A 
ATOM      3  O   UNL     1       2.277  -2.781  -0.034  0.00  0.00    -0.267 OA
ATOM      4  C   UNL     1       1.245  -0.677  -0.013  0.00  0.00    +0.065 A 
ATOM      5  C   UNL     1       2.432   0.055  -0.021  0.00  0.00    +0.015 A 
ATOM      6  C   UNL     1       2.381   1.421  -0.013  0.00  0.00    +0.001 A 
ATOM      7  C   UNL     1       1.161   2.086   0.002  0.00  0.00    +0.002 A 
ATOM      8  C   UNL     1      -0.017   1.394   0.010  0.00  0.00    +0.028 A 
ATOM      9  C   UNL     1       0.002  -0.004   0.002  0.00  0.00    +0.079 A 
ATOM     10  N   UNL     1      -1.141  -0.729   0.009  0.00  0.00    -0.223 NA
ATOM     11  C   UNL     1      -1.121  -2.039   0.003  0.00  0.00    +0.177 A 
ENDROOT
BRANCH   1  17
ATOM     12  C   UNL     1      -0.168  -6.984  -2.534  0.00  0.00    +0.044 C 
ATOM     13  C   UNL     1      -0.122  -6.236  -1.227  0.00  0.00    -0.046 A 
ATOM     14  C   UNL     1      -0.140  -6.931  -0.031  0.00  0.00    +0.004 A 
ATOM     15  C   UNL     1      -0.099  -6.248   1.170  0.00  0.00    +0.002 A 
ATOM     16  C   UNL     1      -0.040  -4.868   1.180  0.00  0.00    +0.026 A 
ATOM     17  C   UNL     1      -0.022  -4.167  -0.019  0.00  0.00    +0.055 A 
ATOM     18  C   UNL     1      -0.069  -4.856  -1.224  0.00  0.00    -0.024 A 
ATOM     19  C   UNL     1      -0.056  -4.098  -2.526  0.00  0.00    +0.046 C 
ENDBRANCH   1  17
BRANCH  11  20
ATOM     20  S   UNL     1      -2.657  -2.903   0.015  0.00  0.00    -0.078 S 
BRANCH  20  21
ATOM     21  C   UNL     1      -3.804  -1.504   0.033  0.00  0.00    +0.174 C 
BRANCH  21  22
ATOM     22  C   UNL     1      -5.221  -2.016   0.045  0.00  0.00    +0.239 C 
ATOM     23  O   UNL     1      -5.434  -3.210   0.042  0.00  0.00    -0.273 OA
ATOM     24  N   UNL     1      -6.252  -1.148   0.060  0.00  0.00    -0.233 N 
ATOM     25  H   UNL     1      -6.059  -0.065   0.063  0.00  0.00    +0.173 HD
BRANCH  24  26
ATOM     26  N   UNL     1      -7.569  -1.624   0.072  0.00  0.00    -0.230 N 
ATOM     27  C   UNL     1      -8.600  -0.756   0.086  0.00  0.00    +0.260 C 
ATOM     28  O   UNL     1      -8.386   0.441   0.090  0.00  0.00    -0.269 OA
ATOM     29  H   UNL     1      -7.763  -2.707   0.069  0.00  0.00    +0.173 HD
BRANCH  27  30
ATOM     30  C   UNL     1      -9.989  -1.258   0.098  0.00  0.00    +0.038 A 
ATOM     31  C   UNL     1     -10.237  -2.632   0.088  0.00  0.00    +0.016 A 
ATOM     32  C   UNL     1     -11.535  -3.096   0.106  0.00  0.00    +0.039 A 
ATOM     33  C   UNL     1     -12.594  -2.200   0.121  0.00  0.00    +0.123 A 
ATOM     34  C   UNL     1     -12.353  -0.835   0.125  0.00  0.00    +0.039 A 
ATOM     35  C   UNL     1     -11.059  -0.361   0.114  0.00  0.00    +0.016 A 
ATOM     36  F   UNL     1     -13.864  -2.660   0.132  0.00  0.00    -0.205 F 
ENDBRANCH  27  30
ENDBRANCH  24  26
ENDBRANCH  21  22
ENDBRANCH  20  21
ENDBRANCH  11  20
TORSDOF 6
