REMARK  Name = ZINC06847017
REMARK  11 active torsions:
REMARK  status: ('A' for Active; 'I' for Inactive)
REMARK    1  A    between atoms: C_1  and  C_2
REMARK    2  A    between atoms: C_2  and  C_3
REMARK    3  A    between atoms: C_9  and  C_14
REMARK    4  A    between atoms: C_20  and  C_23
REMARK    5  A    between atoms: N_25  and  C_26
REMARK    6  A    between atoms: C_26  and  C_27
REMARK    7  A    between atoms: C_27  and  C_28
REMARK    8  A    between atoms: C_28  and  O_29
REMARK    9  A    between atoms: O_29  and  C_30
REMARK   10  A    between atoms: C_30  and  C_31
REMARK   11  A    between atoms: C_30  and  C_32
REMARK                            x       y       z     vdW  Elec       q    Type
REMARK                         _______ _______ _______ _____ _____    ______ ____
ROOT
ATOM      1  C   UNL     1      -3.318  -0.679   1.205  0.00  0.00    +0.191 C 
ATOM      2  C   UNL     1      -2.452  -0.006   0.130  0.00  0.00    +0.159 C 
ATOM      3  N   UNL     1      -1.150  -0.694   0.111  0.00  0.00    -0.248 N 
ATOM      4  C   UNL     1      -1.152  -2.097   0.205  0.00  0.00    +0.080 A 
ATOM      5  C   UNL     1      -0.004  -2.815  -0.081  0.00  0.00    +0.030 A 
ATOM      6  C   UNL     1      -0.009  -4.194   0.021  0.00  0.00    -0.048 A 
ATOM      7  C   UNL     1      -1.158  -4.855   0.414  0.00  0.00    +0.007 A 
ATOM      8  C   UNL     1      -2.307  -4.143   0.706  0.00  0.00    +0.048 A 
ATOM      9  C   UNL     1      -2.311  -2.760   0.604  0.00  0.00    +0.142 A 
ATOM     10  O   UNL     1      -3.446  -2.068   0.889  0.00  0.00    -0.485 OA
ATOM     11  C   UNL     1       1.239  -4.977  -0.296  0.00  0.00    +0.044 C 
ATOM     12  C   UNL     1       0.002  -0.004   0.002  0.00  0.00    +0.309 C 
ATOM     13  O   UNL     1       1.067  -0.571   0.157  0.00  0.00    -0.252 OA
ATOM     14  N   UNL     1      -0.026   1.314  -0.278  0.00  0.00    -0.285 N 
ATOM     15  C   UNL     1      -1.187   1.912  -0.952  0.00  0.00    +0.110 C 
ATOM     16  C   UNL     1      -1.685   3.095  -0.108  0.00  0.00    +0.032 C 
ATOM     17  C   UNL     1      -0.527   4.067   0.130  0.00  0.00    +0.078 C 
ATOM     18  C   UNL     1       0.586   3.358   0.906  0.00  0.00    +0.032 C 
ATOM     19  C   UNL     1       1.107   2.179   0.079  0.00  0.00    +0.110 C 
ENDROOT
BRANCH  17  20
ATOM     20  C   UNL     1      -1.020   5.249   0.926  0.00  0.00    +0.216 C 
ATOM     21  O   UNL     1      -0.529   5.499   2.007  0.00  0.00    -0.276 OA
ATOM     22  N   UNL     1      -2.005   6.027   0.437  0.00  0.00    -0.315 N 
ATOM     23  H   UNL     1      -2.397   5.827  -0.427  0.00  0.00    +0.149 HD
BRANCH  22  24
ATOM     24  C   UNL     1      -2.484   7.176   1.211  0.00  0.00    +0.106 C 
BRANCH  24  25
ATOM     25  C   UNL     1      -3.596   7.885   0.436  0.00  0.00    +0.047 C 
BRANCH  25  26
ATOM     26  C   UNL     1      -4.096   9.084   1.244  0.00  0.00    +0.161 C 
BRANCH  26  27
ATOM     27  O   UNL     1      -5.135   9.746   0.520  0.00  0.00    -0.377 OA
BRANCH  27  28
ATOM     28  C   UNL     1      -5.674  10.887   1.191  0.00  0.00    +0.112 C 
ATOM     29  C   UNL     1      -4.885  12.135   0.790  0.00  0.00    +0.037 C 
ATOM     30  C   UNL     1      -7.142  11.064   0.797  0.00  0.00    +0.037 C 
ENDBRANCH  27  28
ENDBRANCH  26  27
ENDBRANCH  25  26
ENDBRANCH  24  25
ENDBRANCH  22  24
ENDBRANCH  17  20
BRANCH   1  32
ATOM     31  C   UNL     1      -5.520  -0.616   2.382  0.00  0.00    +0.007 C 
ATOM     32  C   UNL     1      -4.703  -0.029   1.230  0.00  0.00    +0.043 C 
ENDBRANCH   1  32
TORSDOF 7
