REMARK  Name = ZINC61534663
REMARK  7 active torsions:
REMARK  status: ('A' for Active; 'I' for Inactive)
REMARK    1  A    between atoms: C_1  and  C_2
REMARK    2  A    between atoms: C_2  and  N_3
REMARK    3  A    between atoms: C_4  and  C_6
REMARK    4  A    between atoms: C_12  and  C_14
REMARK    5  A    between atoms: C_14  and  C_15
REMARK    6  A    between atoms: C_14  and  N_26
REMARK    7  A    between atoms: C_15  and  C_16
REMARK                            x       y       z     vdW  Elec       q    Type
REMARK                         _______ _______ _______ _____ _____    ______ ____
ROOT
ATOM      1  C   UNL     1       3.742  -5.593  -5.277  0.00  0.00    +0.165 C 
ENDROOT
BRANCH   1   8
ATOM      2  C   UNL     1       1.532  -2.285  -2.665  0.00  0.00    +0.092 C 
ATOM      3  C   UNL     1       0.790  -1.781  -3.905  0.00  0.00    +0.016 C 
ATOM      4  C   UNL     1       1.524  -2.247  -5.165  0.00  0.00    +0.020 C 
ATOM      5  C   UNL     1       1.545  -3.778  -5.202  0.00  0.00    +0.108 C 
ATOM      6  N   UNL     1       2.127  -4.274  -3.947  0.00  0.00    -0.299 N 
ATOM      7  C   UNL     1       1.553  -3.816  -2.674  0.00  0.00    +0.120 C 
ATOM      8  C   UNL     1       3.165  -5.132  -3.963  0.00  0.00    +0.236 C 
ATOM      9  O   UNL     1       3.636  -5.534  -2.921  0.00  0.00    -0.274 OA
BRANCH   2  11
ATOM     10  N   UNL     1       0.688  -0.476  -1.203  0.00  0.00    -0.315 N 
ATOM     11  C   UNL     1       0.827  -1.799  -1.425  0.00  0.00    +0.218 C 
ATOM     12  O   UNL     1       0.384  -2.597  -0.627  0.00  0.00    -0.275 OA
ATOM     13  H   UNL     1       1.042   0.162  -1.842  0.00  0.00    +0.149 HD
BRANCH  10  15
ATOM     14  C   UNL     1      -0.019   1.526   0.010  0.00  0.00    +0.024 C 
ATOM     15  C   UNL     1       0.002  -0.004   0.002  0.00  0.00    +0.101 C 
ENDBRANCH  10  15
ENDBRANCH   2  11
ENDBRANCH   1   8
BRANCH   1  16
ATOM     16  N   UNL     1       4.496  -6.832  -5.072  0.00  0.00    -0.288 N 
ATOM     17  C   UNL     1       5.549  -6.848  -4.231  0.00  0.00    +0.298 C 
ATOM     18  O   UNL     1       5.873  -5.835  -3.643  0.00  0.00    -0.253 OA
ATOM     19  N   UNL     1       6.243  -7.988  -4.043  0.00  0.00    -0.313 N 
ATOM     20  H   UNL     1       4.238  -7.640  -5.542  0.00  0.00    +0.151 HD
ATOM     21  H   UNL     1       5.985  -8.797  -4.512  0.00  0.00    +0.146 HD
ATOM     22  H   UNL     1       7.001  -8.000  -3.437  0.00  0.00    +0.146 HD
ENDBRANCH   1  16
BRANCH   1  23
ATOM     23  C   UNL     1       4.674  -4.514  -5.831  0.00  0.00    +0.069 C 
BRANCH  23  24
ATOM     24  C   UNL     1       5.154  -4.919  -7.201  0.00  0.00    -0.020 A 
ATOM     25  C   UNL     1       6.298  -5.560  -7.489  0.00  0.00    +0.087 A 
ATOM     26  N   UNL     1       6.395  -5.759  -8.839  0.00  0.00    -0.360 N 
ATOM     27  H   UNL     1       7.133  -6.202  -9.286  0.00  0.00    +0.165 HD
ATOM     28  C   UNL     1       5.287  -5.238  -9.469  0.00  0.00    +0.047 A 
ATOM     29  C   UNL     1       4.458  -4.695  -8.470  0.00  0.00    +0.003 A 
ATOM     30  C   UNL     1       3.247  -4.096  -8.820  0.00  0.00    +0.010 A 
ATOM     31  C   UNL     1       2.870  -4.044 -10.132  0.00  0.00    +0.001 A 
ATOM     32  C   UNL     1       3.681  -4.582 -11.121  0.00  0.00    +0.002 A 
ATOM     33  C   UNL     1       4.886  -5.169 -10.799  0.00  0.00    +0.026 A 
ENDBRANCH  23  24
ENDBRANCH   1  23
TORSDOF 6
