REMARK  Name = ZINC58432679
REMARK  5 active torsions:
REMARK  status: ('A' for Active; 'I' for Inactive)
REMARK    1  A    between atoms: C_1  and  C_2
REMARK    2  A    between atoms: C_7  and  C_8
REMARK    3  A    between atoms: C_8  and  C_10
REMARK    4  A    between atoms: C_8  and  N_25
REMARK    5  A    between atoms: N_18  and  C_19
REMARK                            x       y       z     vdW  Elec       q    Type
REMARK                         _______ _______ _______ _____ _____    ______ ____
ROOT
ATOM      1  C   UNL     1      -1.319   0.021   3.165  0.00  0.00    +0.137 A 
ATOM      2  N   UNL     1      -2.023  -0.933   3.702  0.00  0.00    -0.230 NA
ATOM      3  C   UNL     1      -3.270  -0.477   3.986  0.00  0.00    +0.090 A 
ATOM      4  C   UNL     1      -4.404  -1.063   4.554  0.00  0.00    +0.030 A 
ATOM      5  C   UNL     1      -5.543  -0.327   4.714  0.00  0.00    +0.002 A 
ATOM      6  C   UNL     1      -5.590   1.001   4.316  0.00  0.00    +0.002 A 
ATOM      7  C   UNL     1      -4.484   1.601   3.752  0.00  0.00    +0.028 A 
ATOM      8  C   UNL     1      -3.317   0.869   3.583  0.00  0.00    +0.074 A 
ATOM      9  N   UNL     1      -2.065   1.158   3.072  0.00  0.00    -0.294 N 
ENDROOT
BRANCH   9  10
ATOM     10  C   UNL     1      -1.643   2.389   2.553  0.00  0.00    +0.048 A 
ATOM     11  C   UNL     1      -0.665   3.123   3.211  0.00  0.00    +0.026 A 
ATOM     12  C   UNL     1      -0.251   4.336   2.696  0.00  0.00    +0.002 A 
ATOM     13  C   UNL     1      -0.810   4.820   1.528  0.00  0.00    +0.000 A 
ATOM     14  C   UNL     1      -1.784   4.091   0.870  0.00  0.00    +0.002 A 
ATOM     15  C   UNL     1      -2.197   2.874   1.376  0.00  0.00    +0.026 A 
ENDBRANCH   9  10
BRANCH   1  16
ATOM     16  C   UNL     1       0.114  -0.110   2.717  0.00  0.00    +0.149 C 
BRANCH  16  23
ATOM     17  C   UNL     1       2.516   0.033   1.118  0.00  0.00    +0.044 C 
ATOM     18  C   UNL     1       1.308  -0.705   0.599  0.00  0.00    -0.045 A 
ATOM     19  C   UNL     1       1.351  -1.318  -0.639  0.00  0.00    +0.004 A 
ATOM     20  C   UNL     1       0.244  -1.994  -1.114  0.00  0.00    +0.000 A 
ATOM     21  C   UNL     1      -0.907  -2.058  -0.351  0.00  0.00    +0.000 A 
ATOM     22  C   UNL     1      -0.950  -1.446   0.887  0.00  0.00    +0.006 A 
ATOM     23  C   UNL     1       0.159  -0.773   1.365  0.00  0.00    -0.020 A 
ENDBRANCH  16  23
BRANCH  16  24
ATOM     24  N   UNL     1       0.857  -0.926   3.687  0.00  0.00    -0.318 NA
ATOM     25  H   UNL     1       0.897  -0.471   4.587  0.00  0.00    +0.119 HD
ATOM     26  H   UNL     1       0.457  -1.849   3.766  0.00  0.00    +0.119 HD
ENDBRANCH  16  24
ENDBRANCH   1  16
TORSDOF 4
