REMARK  Name = ZINC46056475
REMARK  8 active torsions:
REMARK  status: ('A' for Active; 'I' for Inactive)
REMARK    1  A    between atoms: C_1  and  C_2
REMARK    2  A    between atoms: C_5  and  C_9
REMARK    3  A    between atoms: C_6  and  C_8
REMARK    4  A    between atoms: C_9  and  C_11
REMARK    5  A    between atoms: C_19  and  C_30
REMARK    6  A    between atoms: N_21  and  C_22
REMARK    7  A    between atoms: C_24  and  C_29
REMARK    8  A    between atoms: C_26  and  C_28
REMARK                            x       y       z     vdW  Elec       q    Type
REMARK                         _______ _______ _______ _____ _____    ______ ____
ROOT
ATOM      1  C   UNL     1       0.602  -4.565  -1.359  0.00  0.00    +0.104 C 
ATOM      2  C   UNL     1       2.079  -4.614  -1.766  0.00  0.00    +0.112 C 
ATOM      3  C   UNL     1       2.314  -5.642  -2.837  0.00  0.00    +0.219 C 
ATOM      4  O   UNL     1       3.102  -5.395  -3.725  0.00  0.00    -0.275 OA
ATOM      5  N   UNL     1       1.675  -6.831  -2.840  0.00  0.00    -0.270 N 
ATOM      6  C   UNL     1       0.634  -7.020  -1.933  0.00  0.00    +0.133 A 
ATOM      7  C   UNL     1       0.103  -5.980  -1.215  0.00  0.00    +0.026 A 
ATOM      8  C   UNL     1      -0.903  -6.487  -0.406  0.00  0.00    +0.066 A 
ATOM      9  N   UNL     1      -0.997  -7.777  -0.625  0.00  0.00    -0.170 NA
ATOM     10  N   UNL     1      -0.043  -8.136  -1.592  0.00  0.00    -0.218 N 
ATOM     11  C   UNL     1      -1.743  -5.691   0.561  0.00  0.00    +0.068 C 
ATOM     12  H   UNL     1       1.934  -7.534  -3.457  0.00  0.00    +0.156 HD
ENDROOT
BRANCH  10  13
ATOM     13  C   UNL     1       0.166  -9.421  -2.112  0.00  0.00    +0.068 A 
ATOM     14  C   UNL     1       0.535  -9.582  -3.441  0.00  0.00    +0.031 A 
ATOM     15  C   UNL     1       0.741 -10.850  -3.950  0.00  0.00    -0.048 A 
ATOM     16  C   UNL     1       0.579 -11.957  -3.138  0.00  0.00    +0.006 A 
ATOM     17  C   UNL     1       0.211 -11.800  -1.814  0.00  0.00    -0.048 A 
ATOM     18  C   UNL     1       0.010 -10.534  -1.298  0.00  0.00    +0.031 A 
ATOM     19  C   UNL     1       0.036 -13.009  -0.933  0.00  0.00    +0.044 C 
ATOM     20  C   UNL     1       1.142 -11.026  -5.392  0.00  0.00    +0.044 C 
ENDBRANCH  10  13
BRANCH   1  21
ATOM     21  C   UNL     1       0.462  -3.840  -0.045  0.00  0.00    +0.171 C 
ATOM     22  O   UNL     1       1.098  -4.206   0.920  0.00  0.00    -0.291 OA
BRANCH  21  27
ATOM     23  C   UNL     1      -3.094   0.655   0.393  0.00  0.00    +0.044 C 
ATOM     24  C   UNL     1      -2.162  -0.523   0.278  0.00  0.00    -0.050 A 
ATOM     25  C   UNL     1      -1.941  -1.109  -0.957  0.00  0.00    +0.004 A 
ATOM     26  C   UNL     1      -1.089  -2.187  -1.070  0.00  0.00    +0.012 A 
ATOM     27  C   UNL     1      -0.448  -2.689   0.067  0.00  0.00    +0.021 A 
ATOM     28  C   UNL     1      -0.677  -2.092   1.311  0.00  0.00    -0.040 A 
ATOM     29  C   UNL     1      -1.527  -1.011   1.407  0.00  0.00    +0.007 A 
ATOM     30  C   UNL     1       0.009  -2.626   2.542  0.00  0.00    +0.044 C 
ENDBRANCH  21  27
ENDBRANCH   1  21
TORSDOF 3
