REMARK  Name = ZINC08844638
REMARK  10 active torsions:
REMARK  status: ('A' for Active; 'I' for Inactive)
REMARK    1  A    between atoms: C_1  and  N_50
REMARK    2  A    between atoms: C_2  and  N_50
REMARK    3  A    between atoms: C_3  and  C_4
REMARK    4  A    between atoms: C_3  and  N_50
REMARK    5  A    between atoms: C_4  and  C_5
REMARK    6  A    between atoms: C_5  and  N_6
REMARK    7  A    between atoms: N_6  and  C_7
REMARK    8  A    between atoms: C_8  and  S_19
REMARK    9  A    between atoms: C_10  and  C_12
REMARK   10  A    between atoms: S_19  and  C_22
REMARK                            x       y       z     vdW  Elec       q    Type
REMARK                         _______ _______ _______ _____ _____    ______ ____
ROOT
ATOM      1  C   UNL     1      -1.059  -0.789   2.455  0.00  0.00    +0.233 A 
ATOM      2  C   UNL     1       0.025  -0.534   1.682  0.00  0.00    +0.243 A 
ATOM      3  N   UNL     1       1.119  -0.763   2.425  0.00  0.00    -0.188 NA
ATOM      4  C   UNL     1       0.743  -1.139   3.624  0.00  0.00    +0.231 A 
ATOM      5  O   UNL     1      -0.603  -1.167   3.666  0.00  0.00    -0.420 OA
ENDROOT
BRANCH   4   6
ATOM      6  C   UNL     1       1.647  -1.481   4.741  0.00  0.00    +0.037 A 
ATOM      7  C   UNL     1       3.031  -1.418   4.568  0.00  0.00    +0.014 A 
ATOM      8  C   UNL     1       3.869  -1.733   5.616  0.00  0.00    +0.021 A 
ATOM      9  C   UNL     1       3.341  -2.123   6.835  0.00  0.00    +0.041 A 
ATOM     10  C   UNL     1       1.970  -2.194   7.012  0.00  0.00    +0.021 A 
ATOM     11  C   UNL     1       1.121  -1.876   5.973  0.00  0.00    +0.014 A 
ATOM     12 CL   UNL     1       4.403  -2.526   8.148  0.00  0.00    -0.084 Cl
ENDBRANCH   4   6
BRANCH   2  13
ATOM     13  S   UNL     1       0.002  -0.004   0.002  0.00  0.00    +0.047 S 
ATOM     14  O   UNL     1      -1.243  -0.424  -0.539  0.00  0.00    -0.163 OA
ATOM     15  O   UNL     1       1.248  -0.390  -0.563  0.00  0.00    -0.163 OA
BRANCH  13  16
ATOM     16  C   UNL     1      -0.022   1.758   0.012  0.00  0.00    +0.096 A 
ATOM     17  C   UNL     1      -1.229   2.432   0.021  0.00  0.00    +0.030 A 
ATOM     18  C   UNL     1      -1.249   3.814   0.034  0.00  0.00    +0.040 A 
ATOM     19  C   UNL     1      -0.059   4.523   0.026  0.00  0.00    +0.124 A 
ATOM     20  C   UNL     1       1.149   3.846   0.011  0.00  0.00    +0.040 A 
ATOM     21  C   UNL     1       1.166   2.465   0.004  0.00  0.00    +0.030 A 
ATOM     22  F   UNL     1      -0.078   5.874   0.033  0.00  0.00    -0.205 F 
ENDBRANCH  13  16
ENDBRANCH   2  13
BRANCH   1  23
ATOM     23  N   UNL     1      -2.391  -0.681   2.070  0.00  0.00    -0.312 N 
ATOM     24  H   UNL     1      -2.614  -0.399   1.169  0.00  0.00    +0.149 HD
BRANCH  23  25
ATOM     25  C   UNL     1      -3.457  -0.994   3.025  0.00  0.00    +0.102 C 
BRANCH  25  26
ATOM     26  C   UNL     1      -4.817  -0.796   2.354  0.00  0.00    +0.000 C 
BRANCH  26  27
ATOM     27  C   UNL     1      -5.930  -1.123   3.352  0.00  0.00    -0.078 C 
BRANCH  27  30
ATOM     28  C   UNL     1      -7.438  -1.908   1.628  0.00  0.00    -0.097 C 
ATOM     29  C   UNL     1      -8.325  -1.005   3.692  0.00  0.00    -0.097 C 
ATOM     30  N   UNL     1      -7.237  -0.906   2.696  0.00  0.00    +0.376 N 
ATOM     31  H   UNL     1      -7.250   0.032   2.280  0.00  0.00    -0.083 HD
ENDBRANCH  27  30
ENDBRANCH  26  27
ENDBRANCH  25  26
ENDBRANCH  23  25
ENDBRANCH   1  23
TORSDOF 8
