REMARK  Name = ZINC21701750
REMARK  6 active torsions:
REMARK  status: ('A' for Active; 'I' for Inactive)
REMARK    1  A    between atoms: C_1  and  C_2
REMARK    2  A    between atoms: C_5  and  N_9
REMARK    3  A    between atoms: N_9  and  S_10
REMARK    4  A    between atoms: S_10  and  C_13
REMARK    5  A    between atoms: C_15  and  C_18
REMARK    6  A    between atoms: C_20  and  C_23
REMARK                            x       y       z     vdW  Elec       q    Type
REMARK                         _______ _______ _______ _____ _____    ______ ____
ROOT
ATOM      1  S   UNL     1      -1.501   3.271   1.126  0.00  0.00    +0.098 S 
ATOM      2  O   UNL     1      -2.842   3.704   0.948  0.00  0.00    -0.148 OA
ATOM      3  O   UNL     1      -1.016   2.786   2.370  0.00  0.00    -0.148 OA
ENDROOT
BRANCH   1   4
ATOM      4  C   UNL     1      -0.470   4.628   0.677  0.00  0.00    +0.148 A 
ATOM      5  C   UNL     1      -0.774   5.713  -0.069  0.00  0.00    +0.048 A 
ATOM      6  C   UNL     1       0.231   6.656  -0.281  0.00  0.00    +0.031 A 
ATOM      7  C   UNL     1       1.457   6.431   0.275  0.00  0.00    +0.058 A 
ATOM      8  S   UNL     1       1.237   4.923   1.100  0.00  0.00    -0.076 S 
BRANCH   6   9
ATOM      9  C   UNL     1      -0.027   7.871  -1.089  0.00  0.00    +0.203 A 
ATOM     10  N   UNL     1       0.860   8.855  -1.365  0.00  0.00    -0.192 NA
ATOM     11  C   UNL     1       0.208   9.719  -2.102  0.00  0.00    +0.225 A 
ATOM     12  O   UNL     1      -1.034   9.251  -2.253  0.00  0.00    -0.338 OA
ATOM     13  N   UNL     1      -1.153   8.192  -1.674  0.00  0.00    -0.056 NA
ATOM     14  C   UNL     1       0.756  11.003  -2.671  0.00  0.00    +0.112 C 
ENDBRANCH   6   9
ENDBRANCH   1   4
BRANCH   1  15
ATOM     15  N   UNL     1      -1.240   2.070   0.015  0.00  0.00    -0.097 NA
BRANCH  15  20
ATOM     16  C   UNL     1       3.859  -0.382  -0.386  0.00  0.00    +0.045 C 
ATOM     17  C   UNL     1       2.505   0.271  -0.278  0.00  0.00    -0.032 A 
ATOM     18  C   UNL     1       2.098   1.179  -1.238  0.00  0.00    +0.007 A 
ATOM     19  C   UNL     1       0.858   1.779  -1.143  0.00  0.00    +0.027 A 
ATOM     20  C   UNL     1       0.017   1.469  -0.081  0.00  0.00    +0.076 A 
ATOM     21  C   UNL     1       0.428   0.556   0.882  0.00  0.00    +0.047 A 
ATOM     22  C   UNL     1       1.670  -0.041   0.781  0.00  0.00    +0.046 A 
ATOM     23 CL   UNL     1       2.185  -1.182   1.984  0.00  0.00    -0.083 Cl
ENDBRANCH  15  20
ENDBRANCH   1  15
TORSDOF 4
