REMARK  Name = ZINC40853387
REMARK  6 active torsions:
REMARK  status: ('A' for Active; 'I' for Inactive)
REMARK    1  A    between atoms: C_7  and  N_11
REMARK    2  A    between atoms: C_8  and  C_9
REMARK    3  A    between atoms: C_12  and  C_14
REMARK    4  A    between atoms: C_14  and  C_16
REMARK    5  A    between atoms: C_14  and  N_20
REMARK    6  A    between atoms: C_16  and  C_17
REMARK                            x       y       z     vdW  Elec       q    Type
REMARK                         _______ _______ _______ _____ _____    ______ ____
ROOT
ATOM      1  N   UNL     1       5.642  -1.960  -2.082  0.00  0.00    -0.280 N 
ATOM      2  C   UNL     1       6.017  -3.189  -1.678  0.00  0.00    +0.204 C 
ATOM      3  O   UNL     1       5.385  -3.764  -0.817  0.00  0.00    -0.277 OA
ATOM      4  H   UNL     1       6.147  -1.500  -2.771  0.00  0.00    +0.155 HD
ENDROOT
BRANCH   1  11
ATOM      5  C   UNL     1      -0.019   1.521   0.010  0.00  0.00    +0.001 C 
ATOM      6  C   UNL     1       1.407   2.069  -0.000  0.00  0.00    +0.005 C 
ATOM      7  C   UNL     1       2.129   1.648  -1.276  0.00  0.00    +0.037 C 
ATOM      8  C   UNL     1       2.823   0.311  -1.059  0.00  0.00    -0.018 A 
ATOM      9  C   UNL     1       2.395  -0.600  -0.158  0.00  0.00    -0.004 A 
ATOM     10  S   UNL     1       3.521  -1.956  -0.318  0.00  0.00    -0.077 S 
ATOM     11  C   UNL     1       4.532  -1.351  -1.513  0.00  0.00    +0.090 A 
ATOM     12  C   UNL     1       4.005  -0.104  -1.800  0.00  0.00    +0.084 A 
ATOM     13  C   UNL     1       1.235  -0.480   0.781  0.00  0.00    +0.043 C 
ATOM     14  C   UNL     1       0.002  -0.004   0.002  0.00  0.00    +0.005 C 
BRANCH  12  15
ATOM     15  C   UNL     1       4.598   0.744  -2.789  0.00  0.00    +0.102 C 
ATOM     16  N   UNL     1       5.069   1.418  -3.574  0.00  0.00    -0.191 NA
ENDBRANCH  12  15
ENDBRANCH   1  11
BRANCH   2  17
ATOM     17  C   UNL     1       7.222  -3.850  -2.296  0.00  0.00    +0.022 C 
BRANCH  17  18
ATOM     18  N   UNL     1       7.155  -5.301  -2.070  0.00  0.00    +0.386 N 
ATOM     19  H   UNL     1       7.962  -5.743  -2.484  0.00  0.00    -0.089 HD
ATOM     20  H   UNL     1       7.141  -5.486  -1.078  0.00  0.00    -0.089 HD
ATOM     21  H   UNL     1       6.316  -5.668  -2.493  0.00  0.00    -0.089 HD
ENDBRANCH  17  18
BRANCH  17  22
ATOM     22  C   UNL     1       8.495  -3.293  -1.655  0.00  0.00    +0.088 C 
BRANCH  22  23
ATOM     23  C   UNL     1       9.701  -3.862  -2.355  0.00  0.00    +0.209 C 
ATOM     24  O   UNL     1       9.558  -4.637  -3.277  0.00  0.00    -0.276 OA
ATOM     25  N   UNL     1      10.940  -3.510  -1.958  0.00  0.00    -0.329 N 
ATOM     26  H   UNL     1      11.055  -2.890  -1.221  0.00  0.00    +0.145 HD
ATOM     27  H   UNL     1      11.716  -3.876  -2.409  0.00  0.00    +0.145 HD
ENDBRANCH  22  23
ENDBRANCH  17  22
ENDBRANCH   2  17
TORSDOF 6
