REMARK  Name = ZINC41511201
REMARK  6 active torsions:
REMARK  status: ('A' for Active; 'I' for Inactive)
REMARK    1  A    between atoms: C_1  and  C_2
REMARK    2  A    between atoms: C_4  and  O_30
REMARK    3  A    between atoms: C_5  and  C_21
REMARK    4  A    between atoms: C_11  and  C_12
REMARK    5  A    between atoms: C_21  and  N_22
REMARK    6  A    between atoms: C_27  and  C_29
REMARK                            x       y       z     vdW  Elec       q    Type
REMARK                         _______ _______ _______ _____ _____    ______ ____
ROOT
ATOM      1  C   UNL     1      -0.670   1.600   0.136  0.00  0.00    +0.045 C 
ATOM      2  C   UNL     1      -0.766   0.096   0.113  0.00  0.00    -0.033 A 
ATOM      3  C   UNL     1      -1.039  -0.555  -1.057  0.00  0.00    +0.050 A 
ATOM      4  C   UNL     1      -1.129  -1.944  -1.080  0.00  0.00    +0.122 A 
ATOM      5  C   UNL     1      -0.943  -2.681   0.078  0.00  0.00    +0.020 A 
ATOM      6  C   UNL     1      -0.664  -2.035   1.276  0.00  0.00    +0.145 A 
ATOM      7  C   UNL     1      -0.571  -0.634   1.286  0.00  0.00    +0.071 A 
ATOM      8  C   UNL     1      -0.264  -0.247   2.675  0.00  0.00    +0.232 C 
ATOM      9  O   UNL     1      -0.105   0.876   3.119  0.00  0.00    -0.283 OA
ATOM     10  C   UNL     1      -0.192  -1.522   3.405  0.00  0.00    +0.176 C 
ATOM     11  C   UNL     1       0.069  -1.675   4.728  0.00  0.00    +0.059 C 
ATOM     12  O   UNL     1      -0.446  -2.515   2.520  0.00  0.00    -0.451 OA
ENDROOT
BRANCH  11  13
ATOM     13  C   UNL     1      -0.019  -3.005   5.345  0.00  0.00    -0.003 A 
ATOM     14  C   UNL     1      -0.011  -4.154   4.545  0.00  0.00    +0.011 A 
ATOM     15  C   UNL     1      -0.093  -5.398   5.130  0.00  0.00    +0.020 A 
ATOM     16  C   UNL     1      -0.183  -5.515   6.509  0.00  0.00    +0.042 A 
ATOM     17  C   UNL     1      -0.192  -4.384   7.308  0.00  0.00    +0.040 A 
ATOM     18  C   UNL     1      -0.104  -3.131   6.737  0.00  0.00    +0.050 A 
ATOM     19 CL   UNL     1      -0.107  -1.715   7.741  0.00  0.00    -0.083 Cl
ATOM     20 CL   UNL     1      -0.286  -7.088   7.237  0.00  0.00    -0.083 Cl
ENDBRANCH  11  13
BRANCH   4  21
ATOM     21  O   UNL     1      -1.401  -2.581  -2.247  0.00  0.00    -0.506 OA
ATOM     22  H   UNL     1      -0.616  -2.819  -2.758  0.00  0.00    +0.292 HD
ENDBRANCH   4  21
BRANCH   5  23
ATOM     23  C   UNL     1      -1.043  -4.184   0.039  0.00  0.00    -0.035 C 
BRANCH  23  24
ATOM     24  N   UNL     1       0.280  -4.756  -0.245  0.00  0.00    +0.384 N 
ATOM     25  C   UNL     1       0.708  -4.352  -1.589  0.00  0.00    -0.078 C 
ATOM     26  C   UNL     1       2.120  -4.877  -1.859  0.00  0.00    -0.019 C 
ATOM     27  C   UNL     1       2.117  -6.405  -1.761  0.00  0.00    -0.003 C 
ATOM     28  C   UNL     1       1.599  -6.817  -0.380  0.00  0.00    -0.016 C 
ATOM     29  C   UNL     1       0.206  -6.220  -0.165  0.00  0.00    -0.071 C 
ATOM     30  C   UNL     1      -0.317  -6.629   1.213  0.00  0.00    -0.013 C 
ATOM     31  H   UNL     1       0.945  -4.417   0.434  0.00  0.00    -0.081 HD
ENDBRANCH  23  24
ENDBRANCH   5  23
TORSDOF 4
