REMARK  Name = ZINC35393241
REMARK  20 active torsions:
REMARK  status: ('A' for Active; 'I' for Inactive)
REMARK    1  A    between atoms: C_1  and  C_2
REMARK    2  A    between atoms: C_2  and  C_3
REMARK    3  A    between atoms: C_3  and  C_4
REMARK    4  A    between atoms: C_4  and  O_5
REMARK    5  A    between atoms: O_5  and  C_6
REMARK    6  A    between atoms: C_9  and  C_12
REMARK    7  A    between atoms: N_14  and  C_15
REMARK    8  A    between atoms: N_14  and  C_18
REMARK    9  A    between atoms: C_15  and  C_16
REMARK   10  A    between atoms: C_16  and  C_17
REMARK   11  A    between atoms: C_18  and  C_19
REMARK   12  A    between atoms: N_21  and  C_22
REMARK   13  A    between atoms: N_21  and  C_36
REMARK   14  A    between atoms: C_22  and  C_23
REMARK   15  A    between atoms: N_27  and  C_28
REMARK   16  A    between atoms: C_28  and  C_29
REMARK   17  A    between atoms: C_34  and  C_35
REMARK   18  A    between atoms: C_36  and  C_38
REMARK   19  A    between atoms: C_36  and  C_39
REMARK   20  A    between atoms: C_39  and  C_40
REMARK                            x       y       z     vdW  Elec       q    Type
REMARK                         _______ _______ _______ _____ _____    ______ ____
ROOT
ATOM      1  C   UNL     1      -5.526 -10.530   1.624  0.00  0.00    +0.234 C 
ATOM      2  O   UNL     1      -5.382 -10.088   0.504  0.00  0.00    -0.274 OA
ATOM      3  N   UNL     1      -5.456 -11.859   1.838  0.00  0.00    -0.292 N 
ENDROOT
BRANCH   3   4
ATOM      4  C   UNL     1      -5.110 -12.761   0.736  0.00  0.00    +0.073 C 
ATOM      5  C   UNL     1      -3.695 -12.448   0.246  0.00  0.00    +0.028 C 
BRANCH   4   6
ATOM      6  C   UNL     1      -6.103 -12.567  -0.412  0.00  0.00    +0.019 C 
ATOM      7  C   UNL     1      -7.504 -12.968   0.052  0.00  0.00    +0.005 C 
ENDBRANCH   4   6
ENDBRANCH   3   4
BRANCH   1   8
ATOM      8  C   UNL     1      -5.782  -9.594   2.777  0.00  0.00    +0.204 C 
BRANCH   8  11
ATOM      9  C   UNL     1      -6.841  -7.531   2.030  0.00  0.00    +0.247 C 
ATOM     10  O   UNL     1      -6.780  -6.423   1.532  0.00  0.00    -0.270 OA
ATOM     11  N   UNL     1      -5.709  -8.209   2.306  0.00  0.00    -0.289 N 
BRANCH   9  15
ATOM     12  C   UNL     1     -10.620  -9.263   2.896  0.00  0.00    +0.121 A 
ATOM     13  C   UNL     1     -10.415  -7.905   3.110  0.00  0.00    +0.046 A 
ATOM     14  C   UNL     1      -9.191  -7.340   2.831  0.00  0.00    +0.016 A 
ATOM     15  C   UNL     1      -8.154  -8.133   2.331  0.00  0.00    +0.037 A 
ATOM     16  C   UNL     1      -8.365  -9.498   2.117  0.00  0.00    +0.016 A 
ATOM     17  C   UNL     1      -9.590 -10.057   2.404  0.00  0.00    +0.046 A 
BRANCH  12  18
ATOM     18  O   UNL     1     -11.828  -9.817   3.172  0.00  0.00    -0.492 OA
BRANCH  18  19
ATOM     19  C   UNL     1     -12.842  -8.944   3.675  0.00  0.00    +0.229 C 
BRANCH  19  20
ATOM     20  C   UNL     1     -14.123  -9.742   3.926  0.00  0.00    +0.041 C 
BRANCH  20  22
ATOM     21  C   UNL     1     -16.490  -9.606   4.715  0.00  0.00    +0.004 C 
ATOM     22  C   UNL     1     -15.209  -8.808   4.464  0.00  0.00    -0.000 C 
ENDBRANCH  20  22
ENDBRANCH  19  20
ENDBRANCH  18  19
ENDBRANCH  12  18
ENDBRANCH   9  15
BRANCH  11  23
ATOM     23  C   UNL     1      -4.407  -7.560   2.136  0.00  0.00    +0.108 C 
BRANCH  23  24
ATOM     24  C   UNL     1      -3.951  -6.972   3.473  0.00  0.00    +0.016 C 
ATOM     25  C   UNL     1      -2.653  -6.188   3.269  0.00  0.00    +0.005 C 
ENDBRANCH  23  24
ENDBRANCH  11  23
ENDBRANCH   8  11
ENDBRANCH   1   8
BRANCH   3  26
ATOM     26  C   UNL     1      -5.725 -12.402   3.172  0.00  0.00    +0.161 C 
BRANCH  26  27
ATOM     27  C   UNL     1      -7.194 -12.713   3.300  0.00  0.00    +0.036 A 
ATOM     28  C   UNL     1      -8.137 -11.888   3.799  0.00  0.00    +0.024 A 
ATOM     29  C   UNL     1      -9.369 -12.568   3.736  0.00  0.00    +0.019 A 
ATOM     30  C   UNL     1      -9.132 -13.784   3.202  0.00  0.00    +0.086 A 
ATOM     31  N   UNL     1      -7.800 -13.876   2.926  0.00  0.00    -0.345 N 
BRANCH  31  32
ATOM     32  C   UNL     1      -7.130 -15.035   2.332  0.00  0.00    +0.157 C 
BRANCH  32  33
ATOM     33  C   UNL     1      -6.524 -15.880   3.422  0.00  0.00    -0.025 A 
ATOM     34  C   UNL     1      -5.199 -15.706   3.778  0.00  0.00    +0.005 A 
ATOM     35  C   UNL     1      -4.644 -16.481   4.778  0.00  0.00    +0.000 A 
ATOM     36  C   UNL     1      -5.414 -17.430   5.425  0.00  0.00    +0.000 A 
ATOM     37  C   UNL     1      -6.739 -17.604   5.070  0.00  0.00    +0.004 A 
ATOM     38  C   UNL     1      -7.295 -16.826   4.072  0.00  0.00    -0.046 A 
ATOM     39  C   UNL     1      -8.741 -17.012   3.689  0.00  0.00    +0.044 C 
ENDBRANCH  32  33
ENDBRANCH  31  32
ENDBRANCH  26  27
ENDBRANCH   3  26
TORSDOF 15
