REMARK  Name = ZINC38705375
REMARK  11 active torsions:
REMARK  status: ('A' for Active; 'I' for Inactive)
REMARK    1  A    between atoms: C_1  and  C_2
REMARK    2  A    between atoms: C_2  and  C_3
REMARK    3  A    between atoms: C_3  and  N_4
REMARK    4  A    between atoms: C_5  and  C_24
REMARK    5  A    between atoms: C_8  and  C_15
REMARK    6  A    between atoms: C_16  and  C_23
REMARK    7  A    between atoms: C_18  and  C_22
REMARK    8  A    between atoms: C_20  and  O_21
REMARK    9  A    between atoms: C_26  and  O_32
REMARK   10  A    between atoms: C_27  and  O_31
REMARK   11  A    between atoms: O_32  and  C_33
REMARK                            x       y       z     vdW  Elec       q    Type
REMARK                         _______ _______ _______ _____ _____    ______ ____
ROOT
ATOM      1  N   UNL     1       0.274  -1.922   1.014  0.00  0.00    -0.285 N 
ATOM      2  C   UNL     1      -0.518  -3.067   1.480  0.00  0.00    +0.141 C 
ATOM      3  C   UNL     1       0.303  -4.292   1.182  0.00  0.00    +0.035 A 
ATOM      4  C   UNL     1       0.406  -5.686   1.241  0.00  0.00    +0.102 A 
ATOM      5  N   UNL     1       1.567  -6.018   0.712  0.00  0.00    -0.173 NA
ATOM      6  N   UNL     1       2.207  -4.972   0.325  0.00  0.00    -0.272 N 
ATOM      7  H   UNL     1       3.082  -4.978  -0.093  0.00  0.00    +0.189 HD
ATOM      8  C   UNL     1       1.471  -3.852   0.590  0.00  0.00    +0.126 A 
ATOM      9  C   UNL     1       1.424  -2.389   0.494  0.00  0.00    +0.265 C 
ATOM     10  O   UNL     1       2.301  -1.696   0.015  0.00  0.00    -0.268 OA
ENDROOT
BRANCH   4  11
ATOM     11  C   UNL     1      -0.605  -6.619   1.797  0.00  0.00    +0.047 A 
ATOM     12  C   UNL     1      -1.030  -7.715   1.051  0.00  0.00    -0.037 A 
ATOM     13  C   UNL     1      -1.970  -8.581   1.573  0.00  0.00    +0.007 A 
ATOM     14  C   UNL     1      -2.493  -8.363   2.835  0.00  0.00    -0.047 A 
ATOM     15  C   UNL     1      -2.079  -7.277   3.583  0.00  0.00    +0.049 A 
ATOM     16  C   UNL     1      -1.131  -6.404   3.074  0.00  0.00    +0.127 A 
ATOM     17  C   UNL     1      -3.520  -9.312   3.396  0.00  0.00    +0.044 C 
ATOM     18  C   UNL     1      -0.464  -7.957  -0.325  0.00  0.00    +0.044 C 
BRANCH  16  19
ATOM     19  O   UNL     1      -0.719  -5.340   3.811  0.00  0.00    -0.506 OA
ATOM     20  H   UNL     1      -1.294  -4.566   3.739  0.00  0.00    +0.292 HD
ENDBRANCH  16  19
ENDBRANCH   4  11
BRANCH   2  21
ATOM     21  C   UNL     1      -1.829  -3.127   0.740  0.00  0.00    -0.018 A 
ATOM     22  C   UNL     1      -3.013  -3.261   1.442  0.00  0.00    +0.055 A 
ATOM     23  C   UNL     1      -4.220  -3.316   0.763  0.00  0.00    +0.163 A 
ATOM     24  C   UNL     1      -4.237  -3.237  -0.626  0.00  0.00    +0.173 A 
ATOM     25  C   UNL     1      -3.047  -3.103  -1.325  0.00  0.00    +0.063 A 
ATOM     26  C   UNL     1      -1.846  -3.043  -0.640  0.00  0.00    +0.025 A 
ATOM     27 BR   UNL     1      -3.066  -2.994  -3.212  0.00  0.00    -0.046 Br
BRANCH  24  28
ATOM     28  O   UNL     1      -5.419  -3.291  -1.297  0.00  0.00    -0.503 OA
ATOM     29  H   UNL     1      -5.830  -2.428  -1.440  0.00  0.00    +0.292 HD
ENDBRANCH  24  28
BRANCH  23  30
ATOM     30  O   UNL     1      -5.384  -3.448   1.453  0.00  0.00    -0.491 OA
ATOM     31  C   UNL     1      -5.290  -3.524   2.877  0.00  0.00    +0.277 C 
ENDBRANCH  23  30
ENDBRANCH   2  21
BRANCH   1  32
ATOM     32  C   UNL     1      -0.122  -0.514   1.094  0.00  0.00    +0.109 C 
BRANCH  32  34
ATOM     33  C   UNL     1      -1.300   1.344  -0.090  0.00  0.00    +0.005 C 
ATOM     34  C   UNL     1      -0.886  -0.127  -0.174  0.00  0.00    +0.016 C 
ENDBRANCH  32  34
ENDBRANCH   1  32
TORSDOF 7
