REMARK  Name = ZINC39697697
REMARK  4 active torsions:
REMARK  status: ('A' for Active; 'I' for Inactive)
REMARK    1  A    between atoms: C_7  and  C_13
REMARK    2  A    between atoms: C_13  and  S_14
REMARK    3  A    between atoms: S_14  and  C_15
REMARK    4  A    between atoms: N_20  and  C_21
REMARK                            x       y       z     vdW  Elec       q    Type
REMARK                         _______ _______ _______ _____ _____    ______ ____
ROOT
ATOM      1  C   UNL     1      -2.206  -3.948   1.490  0.00  0.00    +0.202 C 
ATOM      2  N   UNL     1      -1.850  -5.309   1.016  0.00  0.00    -0.320 NA
ATOM      3  N   UNL     1      -2.942  -5.620   0.077  0.00  0.00    +0.411 N 
ATOM      4  N   UNL     1      -3.219  -4.317  -0.544  0.00  0.00    -0.265 NA
ATOM      5  N   UNL     1      -3.099  -3.386   0.462  0.00  0.00    -0.254 N 
ATOM      6  H   UNL     1      -0.958  -5.306   0.545  0.00  0.00    +0.106 HD
ATOM      7  H   UNL     1      -2.639  -6.288  -0.615  0.00  0.00    -0.031 HD
ATOM      8  H   UNL     1      -4.144  -4.298  -0.946  0.00  0.00    +0.125 HD
ATOM      9  H   UNL     1      -3.753  -5.958   0.572  0.00  0.00    -0.031 HD
ENDROOT
BRANCH   5  10
ATOM     10  C   UNL     1      -3.714  -2.131   0.503  0.00  0.00    +0.049 A 
ATOM     11  C   UNL     1      -3.499  -1.286   1.584  0.00  0.00    +0.028 A 
ATOM     12  C   UNL     1      -4.107  -0.046   1.625  0.00  0.00    +0.051 A 
ATOM     13  C   UNL     1      -4.934   0.359   0.588  0.00  0.00    +0.162 A 
ATOM     14  C   UNL     1      -5.150  -0.483  -0.497  0.00  0.00    +0.164 A 
ATOM     15  C   UNL     1      -4.536  -1.726  -0.539  0.00  0.00    +0.073 A 
ATOM     16  O   UNL     1      -5.952  -0.100  -1.528  0.00  0.00    -0.485 OA
ATOM     17  C   UNL     1      -6.839   0.996  -1.280  0.00  0.00    +0.270 C 
ATOM     18  C   UNL     1      -6.047   2.108  -0.580  0.00  0.00    +0.270 C 
ATOM     19  O   UNL     1      -5.528   1.583   0.648  0.00  0.00    -0.485 OA
ENDBRANCH   5  10
BRANCH   1  20
ATOM     20  S   UNL     1      -0.713  -2.930   1.647  0.00  0.00    -0.118 S 
BRANCH  20  21
ATOM     21  C   UNL     1       0.018  -2.963  -0.013  0.00  0.00    +0.108 C 
BRANCH  21  28
ATOM     22  C   UNL     1      -0.016   1.362   0.009  0.00  0.00    +0.001 A 
ATOM     23  C   UNL     1       1.169   2.084   0.002  0.00  0.00    +0.002 A 
ATOM     24  C   UNL     1       2.386   1.439  -0.013  0.00  0.00    +0.026 A 
ATOM     25  C   UNL     1       2.430   0.048  -0.021  0.00  0.00    +0.049 A 
ATOM     26  C   UNL     1       1.226  -0.681  -0.013  0.00  0.00    +0.002 A 
ATOM     27  C   UNL     1       0.002  -0.004   0.002  0.00  0.00    +0.010 A 
ATOM     28  C   UNL     1       1.283  -2.144  -0.022  0.00  0.00    -0.023 A 
ATOM     29  C   UNL     1       2.498  -2.745  -0.037  0.00  0.00    +0.075 A 
ATOM     30  C   UNL     1       3.676  -1.967  -0.044  0.00  0.00    +0.249 A 
ATOM     31  O   UNL     1       4.758  -2.528  -0.058  0.00  0.00    -0.268 OA
ATOM     32  N   UNL     1       3.634  -0.624  -0.036  0.00  0.00    -0.322 N 
ATOM     33  H   UNL     1       4.463  -0.119  -0.042  0.00  0.00    +0.169 HD
ENDBRANCH  21  28
ENDBRANCH  20  21
ENDBRANCH   1  20
TORSDOF 4
