REMARK  Name = ZINC20804814
REMARK  7 active torsions:
REMARK  status: ('A' for Active; 'I' for Inactive)
REMARK    1  A    between atoms: C_1  and  C_2
REMARK    2  A    between atoms: C_5  and  N_9
REMARK    3  A    between atoms: C_6  and  C_8
REMARK    4  A    between atoms: C_10  and  C_12
REMARK    5  A    between atoms: C_13  and  C_28
REMARK    6  A    between atoms: C_17  and  C_27
REMARK    7  A    between atoms: C_20  and  C_22
REMARK                            x       y       z     vdW  Elec       q    Type
REMARK                         _______ _______ _______ _____ _____    ______ ____
ROOT
ATOM      1  C   UNL     1      -2.669   3.398   7.019  0.00  0.00    +0.061 C 
ATOM      2  C   UNL     1      -1.948   3.626   8.126  0.00  0.00    +0.018 C 
ATOM      3  N   UNL     1      -2.531   3.970   9.321  0.00  0.00    -0.287 N 
ATOM      4  C   UNL     1      -3.907   3.821   9.426  0.00  0.00    +0.219 A 
ATOM      5  N   UNL     1      -4.680   3.856  10.477  0.00  0.00    -0.198 NA
ATOM      6  C   UNL     1      -5.948   3.656  10.106  0.00  0.00    +0.150 A 
ATOM      7  N   UNL     1      -5.997   3.494   8.807  0.00  0.00    -0.153 NA
ATOM      8  N   UNL     1      -4.688   3.599   8.340  0.00  0.00    -0.220 N 
ATOM      9  C   UNL     1      -4.169   3.514   6.976  0.00  0.00    +0.184 C 
ATOM     10  C   UNL     1      -7.135   3.623  11.035  0.00  0.00    +0.090 C 
ATOM     11  C   UNL     1      -0.447   3.502   8.056  0.00  0.00    +0.061 C 
ATOM     12  H   UNL     1      -1.910   4.346  10.148  0.00  0.00    +0.155 HD
ENDROOT
BRANCH   9  13
ATOM     13  C   UNL     1      -4.556   4.751   6.207  0.00  0.00    +0.019 A 
ATOM     14  C   UNL     1      -5.295   4.856   5.076  0.00  0.00    +0.013 A 
ATOM     15  C   UNL     1      -5.529   6.110   4.543  0.00  0.00    +0.008 A 
ATOM     16  C   UNL     1      -5.004   7.196   5.161  0.00  0.00    +0.045 A 
ATOM     17  S   UNL     1      -4.154   6.457   6.546  0.00  0.00    -0.099 S 
ENDBRANCH   9  13
BRANCH   1  19
ATOM     18  N   UNL     1      -2.668   2.906   4.677  0.00  0.00    -0.281 N 
ATOM     19  C   UNL     1      -1.987   3.037   5.833  0.00  0.00    +0.248 C 
ATOM     20  O   UNL     1      -0.784   2.846   5.856  0.00  0.00    -0.270 OA
ATOM     21  H   UNL     1      -3.740   3.148   4.640  0.00  0.00    +0.155 HD
BRANCH  18  26
ATOM     22  C   UNL     1      -0.004   1.106   0.003  0.00  0.00    +0.044 C 
ATOM     23  C   UNL     1      -0.712   1.584   1.245  0.00  0.00    -0.050 A 
ATOM     24  C   UNL     1      -0.042   2.378   2.158  0.00  0.00    +0.005 A 
ATOM     25  C   UNL     1      -0.688   2.818   3.297  0.00  0.00    +0.024 A 
ATOM     26  C   UNL     1      -2.011   2.462   3.525  0.00  0.00    +0.037 A 
ATOM     27  C   UNL     1      -2.680   1.664   2.606  0.00  0.00    -0.029 A 
ATOM     28  C   UNL     1      -2.030   1.232   1.466  0.00  0.00    +0.008 A 
ATOM     29  C   UNL     1      -4.116   1.276   2.849  0.00  0.00    +0.045 C 
ENDBRANCH  18  26
ENDBRANCH   1  19
TORSDOF 3
