REMARK  Name = ZINC50308259
REMARK  4 active torsions:
REMARK  status: ('A' for Active; 'I' for Inactive)
REMARK    1  A    between atoms: C_1  and  C_2
REMARK    2  A    between atoms: C_2  and  C_3
REMARK    3  A    between atoms: C_5  and  C_9
REMARK    4  A    between atoms: C_6  and  N_8
REMARK                            x       y       z     vdW  Elec       q    Type
REMARK                         _______ _______ _______ _____ _____    ______ ____
ROOT
ATOM      1  C   UNL     1       0.707  -0.490  -1.238  0.00  0.00    +0.080 A 
ATOM      2  N   UNL     1       1.982  -0.755  -1.422  0.00  0.00    -0.247 NA
ATOM      3  C   UNL     1       2.438  -1.176  -2.583  0.00  0.00    +0.066 A 
ATOM      4  C   UNL     1       1.573  -1.345  -3.624  0.00  0.00    +0.086 A 
ATOM      5  S   UNL     1       0.033  -0.869  -2.850  0.00  0.00    -0.058 S 
ATOM      6  C   UNL     1       3.906  -1.470  -2.760  0.00  0.00    +0.068 C 
ENDROOT
BRANCH   4   7
ATOM      7  N   UNL     1       1.821  -1.775  -4.930  0.00  0.00    -0.351 N 
ATOM      8  H   UNL     1       2.723  -2.005  -5.202  0.00  0.00    +0.143 HD
ATOM      9  H   UNL     1       1.091  -1.844  -5.565  0.00  0.00    +0.143 HD
ENDBRANCH   4   7
BRANCH   1  11
ATOM     10  C   UNL     1      -0.019   1.526   0.010  0.00  0.00    +0.011 C 
ATOM     11  C   UNL     1       0.002  -0.004   0.002  0.00  0.00    +0.059 C 
ENDBRANCH   1  11
TORSDOF 2
