REMARK  Name = ZINC42642878
REMARK  13 active torsions:
REMARK  status: ('A' for Active; 'I' for Inactive)
REMARK    1  A    between atoms: C_1  and  C_2
REMARK    2  A    between atoms: C_2  and  C_3
REMARK    3  A    between atoms: C_2  and  C_4
REMARK    4  A    between atoms: C_4  and  C_6
REMARK    5  A    between atoms: C_4  and  N_13
REMARK    6  A    between atoms: N_8  and  C_9
REMARK    7  A    between atoms: C_9  and  C_10
REMARK    8  A    between atoms: C_9  and  C_11
REMARK    9  A    between atoms: C_9  and  C_12
REMARK   10  A    between atoms: N_13  and  C_14
REMARK   11  A    between atoms: C_17  and  N_20
REMARK   12  A    between atoms: N_23  and  C_24
REMARK   13  A    between atoms: C_24  and  C_25
REMARK                            x       y       z     vdW  Elec       q    Type
REMARK                         _______ _______ _______ _____ _____    ______ ____
ROOT
ATOM      1  C   UNL     1      -3.440   0.053   1.462  0.00  0.00    +0.028 A 
ATOM      2  C   UNL     1      -4.238  -0.399   0.419  0.00  0.00    +0.025 A 
ATOM      3  C   UNL     1      -5.613  -0.384   0.546  0.00  0.00    +0.025 A 
ATOM      4  C   UNL     1      -6.197   0.084   1.715  0.00  0.00    +0.035 A 
ATOM      5  C   UNL     1      -5.399   0.537   2.757  0.00  0.00    +0.025 A 
ATOM      6  C   UNL     1      -4.024   0.516   2.634  0.00  0.00    +0.025 A 
ENDROOT
BRANCH   4   7
ATOM      7  N   UNL     1      -7.593   0.101   1.843  0.00  0.00    -0.269 N 
ATOM      8  C   UNL     1      -8.334  -0.865   1.264  0.00  0.00    +0.304 C 
ATOM      9  O   UNL     1      -7.789  -1.799   0.708  0.00  0.00    -0.253 OA
ATOM     10  N   UNL     1      -9.680  -0.794   1.300  0.00  0.00    -0.296 N 
ATOM     11  H   UNL     1      -8.026   0.806   2.349  0.00  0.00    +0.156 HD
ATOM     12  H   UNL     1     -10.115  -0.049   1.743  0.00  0.00    +0.151 HD
BRANCH  10  13
ATOM     13  C   UNL     1     -10.485  -1.843   0.670  0.00  0.00    +0.132 C 
BRANCH  13  14
ATOM     14  C   UNL     1     -11.948  -1.530   0.850  0.00  0.00    -0.016 C 
ATOM     15  C   UNL     1     -12.737  -1.459  -0.193  0.00  0.00    +0.005 C 
ENDBRANCH  13  14
ENDBRANCH  10  13
ENDBRANCH   4   7
BRANCH   1  16
ATOM     16  N   UNL     1      -2.046   0.038   1.334  0.00  0.00    -0.333 N 
ATOM     17  H   UNL     1      -1.491   0.417   2.033  0.00  0.00    +0.147 HD
BRANCH  16  18
ATOM     18  C   UNL     1      -1.427  -0.552   0.144  0.00  0.00    +0.159 C 
BRANCH  18  19
ATOM     19  C   UNL     1      -1.375  -2.050   0.296  0.00  0.00    +0.234 C 
ATOM     20  O   UNL     1      -1.812  -2.574   1.298  0.00  0.00    -0.274 OA
ATOM     21  N   UNL     1      -0.842  -2.808  -0.683  0.00  0.00    -0.309 N 
ATOM     22  H   UNL     1      -0.492  -2.389  -1.485  0.00  0.00    +0.149 HD
BRANCH  21  23
ATOM     23  C   UNL     1      -0.791  -4.265  -0.536  0.00  0.00    +0.026 C 
ATOM     24  C   UNL     1      -2.211  -4.811  -0.377  0.00  0.00    +0.031 C 
ATOM     25  C   UNL     1      -0.144  -4.881  -1.778  0.00  0.00    +0.031 C 
ATOM     26  C   UNL     1       0.035  -4.624   0.701  0.00  0.00    +0.031 C 
ENDBRANCH  21  23
ENDBRANCH  18  19
BRANCH  18  28
ATOM     27  C   UNL     1      -0.059   1.516  -0.166  0.00  0.00    +0.009 C 
ATOM     28  C   UNL     1      -0.007  -0.006  -0.015  0.00  0.00    +0.012 C 
ATOM     29  C   UNL     1       0.820  -0.367   1.221  0.00  0.00    +0.009 C 
ENDBRANCH  18  28
ENDBRANCH  16  18
ENDBRANCH   1  16
TORSDOF 8
