REMARK  Name = ZINC08775015
REMARK  8 active torsions:
REMARK  status: ('A' for Active; 'I' for Inactive)
REMARK    1  A    between atoms: C_1  and  N_2
REMARK    2  A    between atoms: C_3  and  C_26
REMARK    3  A    between atoms: C_6  and  S_7
REMARK    4  A    between atoms: S_7  and  C_8
REMARK    5  A    between atoms: C_8  and  C_9
REMARK    6  A    between atoms: N_11  and  C_12
REMARK    7  A    between atoms: C_17  and  C_18
REMARK    8  A    between atoms: N_20  and  C_21
REMARK                            x       y       z     vdW  Elec       q    Type
REMARK                         _______ _______ _______ _____ _____    ______ ____
ROOT
ATOM      1  C   UNL     1      -6.684  -3.963  -0.345  0.00  0.00    +0.228 C 
ATOM      2  O   UNL     1      -7.547  -3.142  -0.575  0.00  0.00    -0.275 OA
ATOM      3  N   UNL     1      -7.024  -5.207   0.047  0.00  0.00    -0.284 N 
ATOM      4  H   UNL     1      -6.340  -5.886   0.153  0.00  0.00    +0.155 HD
ENDROOT
BRANCH   3   5
ATOM      5  C   UNL     1      -8.358  -5.517   0.299  0.00  0.00    +0.046 A 
ATOM      6  C   UNL     1      -9.250  -4.517   0.664  0.00  0.00    +0.024 A 
ATOM      7  C   UNL     1     -10.572  -4.827   0.914  0.00  0.00    +0.002 A 
ATOM      8  C   UNL     1     -11.019  -6.134   0.803  0.00  0.00    +0.001 A 
ATOM      9  C   UNL     1     -10.148  -7.139   0.443  0.00  0.00    +0.015 A 
ATOM     10  C   UNL     1      -8.809  -6.840   0.181  0.00  0.00    +0.058 A 
BRANCH  10  11
ATOM     11  C   UNL     1      -7.873  -7.910  -0.212  0.00  0.00    +0.246 C 
ATOM     12  O   UNL     1      -6.690  -7.664  -0.347  0.00  0.00    -0.270 OA
ATOM     13  N   UNL     1      -8.329  -9.161  -0.422  0.00  0.00    -0.308 N 
ATOM     14  H   UNL     1      -9.273  -9.358  -0.315  0.00  0.00    +0.149 HD
BRANCH  13  15
ATOM     15  C   UNL     1      -7.399 -10.224  -0.813  0.00  0.00    +0.073 C 
ATOM     16  C   UNL     1      -7.247 -10.255  -2.348  0.00  0.00    +0.022 C 
ATOM     17  C   UNL     1      -7.134 -11.762  -2.687  0.00  0.00    +0.002 C 
ATOM     18  C   UNL     1      -8.132 -12.412  -1.696  0.00  0.00    +0.002 C 
ATOM     19  C   UNL     1      -7.962 -11.595  -0.399  0.00  0.00    +0.022 C 
ENDBRANCH  13  15
ENDBRANCH  10  11
ENDBRANCH   3   5
BRANCH   1  20
ATOM     20  C   UNL     1      -5.232  -3.591  -0.498  0.00  0.00    +0.173 C 
BRANCH  20  21
ATOM     21  S   UNL     1      -5.103  -1.867  -1.032  0.00  0.00    -0.077 S 
BRANCH  21  27
ATOM     22  C   UNL     1      -3.216   0.714  -1.876  0.00  0.00    +0.153 C 
ATOM     23  N   UNL     1      -2.658  -0.585  -1.491  0.00  0.00    -0.303 N 
ATOM     24  C   UNL     1      -1.327  -0.932  -1.420  0.00  0.00    +0.200 A 
ATOM     25  N   UNL     1      -1.277  -2.190  -1.040  0.00  0.00    -0.125 NA
ATOM     26  N   UNL     1      -2.467  -2.642  -0.863  0.00  0.00    -0.122 NA
ATOM     27  C   UNL     1      -3.351  -1.706  -1.127  0.00  0.00    +0.192 A 
BRANCH  24  28
ATOM     28  C   UNL     1      -0.179  -0.062  -1.718  0.00  0.00    +0.172 A 
ATOM     29  C   UNL     1       1.119  -0.305  -1.380  0.00  0.00    +0.053 A 
ATOM     30  C   UNL     1       1.873   0.782  -1.861  0.00  0.00    +0.042 A 
ATOM     31  C   UNL     1       1.012   1.626  -2.463  0.00  0.00    +0.196 A 
ATOM     32  O   UNL     1      -0.227   1.114  -2.375  0.00  0.00    -0.460 OA
ENDBRANCH  24  28
ENDBRANCH  21  27
ENDBRANCH  20  21
ENDBRANCH   1  20
TORSDOF 7
