REMARK  Name = ZINC02924903
REMARK  3 active torsions:
REMARK  status: ('A' for Active; 'I' for Inactive)
REMARK    1  A    between atoms: C_2  and  C_3
REMARK    2  A    between atoms: C_3  and  N_4
REMARK    3  A    between atoms: N_12  and  C_13
REMARK                            x       y       z     vdW  Elec       q    Type
REMARK                         _______ _______ _______ _____ _____    ______ ____
ROOT
ATOM      1  N   UNL     1      -0.494   1.800   1.226  0.00  0.00    -0.310 N 
ATOM      2  C   UNL     1      -0.013   1.482   2.480  0.00  0.00    +0.221 A 
ATOM      3  N   UNL     1      -0.726   1.781   3.561  0.00  0.00    -0.181 NA
ATOM      4  C   UNL     1      -0.262   1.469   4.766  0.00  0.00    +0.225 A 
ATOM      5  N   UNL     1       0.919   0.868   4.888  0.00  0.00    -0.184 NA
ATOM      6  C   UNL     1       1.629   0.576   3.810  0.00  0.00    +0.229 A 
ATOM      7  N   UNL     1       1.167   0.881   2.608  0.00  0.00    -0.184 NA
ATOM      8 CL   UNL     1       3.169  -0.209   3.973  0.00  0.00    -0.041 Cl
ATOM      9  N   UNL     1      -1.002   1.773   5.892  0.00  0.00    -0.283 N 
ATOM     10  H   UNL     1      -1.355   2.238   1.133  0.00  0.00    +0.149 HD
ATOM     11  H   UNL     1      -1.824   2.281   5.810  0.00  0.00    +0.155 HD
ENDROOT
BRANCH   9  12
ATOM     12  C   UNL     1      -0.567   1.347   7.151  0.00  0.00    +0.034 A 
ATOM     13  C   UNL     1       0.110   0.141   7.283  0.00  0.00    +0.024 A 
ATOM     14  C   UNL     1       0.544  -0.274   8.526  0.00  0.00    +0.016 A 
ATOM     15  C   UNL     1       0.295   0.505   9.642  0.00  0.00    +0.013 A 
ATOM     16  C   UNL     1      -0.383   1.704   9.516  0.00  0.00    +0.016 A 
ATOM     17  C   UNL     1      -0.815   2.127   8.274  0.00  0.00    +0.024 A 
ATOM     18  I   UNL     1       0.947  -0.133  11.528  0.00  0.00    -0.044 I 
ENDBRANCH   9  12
BRANCH   1  19
ATOM     19  C   UNL     1       0.295   1.475   0.035  0.00  0.00    +0.131 C 
BRANCH  19  21
ATOM     20  C   UNL     1       0.131   2.726  -2.055  0.00  0.00    +0.005 C 
ATOM     21  C   UNL     1      -0.448   1.924  -1.197  0.00  0.00    -0.016 C 
ENDBRANCH  19  21
ENDBRANCH   1  19
TORSDOF 3
