REMARK  Name = ZINC12497395
REMARK  11 active torsions:
REMARK  status: ('A' for Active; 'I' for Inactive)
REMARK    1  A    between atoms: C_1  and  C_2
REMARK    2  A    between atoms: C_2  and  O_3
REMARK    3  A    between atoms: O_3  and  C_4
REMARK    4  A    between atoms: C_4  and  C_6
REMARK    5  A    between atoms: C_6  and  C_34
REMARK    6  A    between atoms: C_11  and  C_13
REMARK    7  A    between atoms: C_16  and  N_19
REMARK    8  A    between atoms: N_19  and  C_20
REMARK    9  A    between atoms: N_19  and  C_21
REMARK   10  A    between atoms: N_24  and  C_27
REMARK   11  A    between atoms: C_30  and  C_33
REMARK                            x       y       z     vdW  Elec       q    Type
REMARK                         _______ _______ _______ _____ _____    ______ ____
ROOT
ATOM      1  C   UNL     1      -5.308   4.315   6.711  0.00  0.00    +0.070 C 
ATOM      2  C   UNL     1      -4.282   3.303   6.232  0.00  0.00    +0.090 C 
ATOM      3  C   UNL     1      -2.974   3.986   6.777  0.00  0.00    +0.078 C 
ATOM      4  C   UNL     1      -3.357   4.365   8.147  0.00  0.00    -0.026 C 
ATOM      5  C   UNL     1      -1.944   3.326   6.018  0.00  0.00    +0.229 C 
ATOM      6  O   UNL     1      -0.816   3.066   6.378  0.00  0.00    -0.275 OA
ATOM      7  N   UNL     1      -2.513   3.058   4.798  0.00  0.00    -0.210 N 
ATOM      8  C   UNL     1      -3.869   3.230   4.797  0.00  0.00    +0.229 C 
ATOM      9  O   UNL     1      -4.591   3.307   3.827  0.00  0.00    -0.275 OA
ATOM     10  N   UNL     1      -4.751   4.880   7.969  0.00  0.00    +0.398 N 
ATOM     11  H   UNL     1      -5.332   4.590   8.765  0.00  0.00    -0.083 HD
ATOM     12  H   UNL     1      -4.737   5.905   7.912  0.00  0.00    -0.083 HD
ENDROOT
BRANCH   7  13
ATOM     13  C   UNL     1      -1.782   2.645   3.675  0.00  0.00    +0.044 A 
ATOM     14  C   UNL     1      -0.405   2.494   3.759  0.00  0.00    +0.024 A 
ATOM     15  C   UNL     1       0.313   2.088   2.650  0.00  0.00    +0.005 A 
ATOM     16  C   UNL     1      -0.340   1.832   1.458  0.00  0.00    -0.050 A 
ATOM     17  C   UNL     1      -1.711   1.987   1.370  0.00  0.00    +0.005 A 
ATOM     18  C   UNL     1      -2.434   2.388   2.477  0.00  0.00    +0.024 A 
ATOM     19  C   UNL     1       0.446   1.390   0.251  0.00  0.00    +0.044 C 
ENDBRANCH   7  13
BRANCH   4  20
ATOM     20  C   UNL     1      -3.344   3.153   9.043  0.00  0.00    -0.060 A 
ATOM     21  C   UNL     1      -4.364   2.222   8.960  0.00  0.00    +0.004 A 
ATOM     22  C   UNL     1      -4.352   1.108   9.776  0.00  0.00    +0.023 A 
ATOM     23  C   UNL     1      -3.321   0.929  10.689  0.00  0.00    +0.029 A 
ATOM     24  C   UNL     1      -2.301   1.869  10.774  0.00  0.00    +0.023 A 
ATOM     25  C   UNL     1      -2.316   2.978   9.951  0.00  0.00    +0.004 A 
BRANCH  23  26
ATOM     26  N   UNL     1      -3.308  -0.194  11.519  0.00  0.00    -0.336 N 
ATOM     27  C   UNL     1      -2.220  -0.382  12.482  0.00  0.00    +0.129 C 
ATOM     28  C   UNL     1      -4.384  -1.185  11.428  0.00  0.00    +0.129 C 
ENDBRANCH  23  26
ENDBRANCH   4  20
BRANCH   1  29
ATOM     29  C   UNL     1      -5.484   5.402   5.683  0.00  0.00    -0.047 A 
ATOM     30  C   UNL     1      -4.716   6.549   5.751  0.00  0.00    +0.003 A 
ATOM     31  C   UNL     1      -4.875   7.545   4.805  0.00  0.00    +0.000 A 
ATOM     32  C   UNL     1      -5.809   7.398   3.797  0.00  0.00    +0.000 A 
ATOM     33  C   UNL     1      -6.581   6.253   3.732  0.00  0.00    +0.000 A 
ATOM     34  C   UNL     1      -6.419   5.255   4.675  0.00  0.00    +0.003 A 
ENDBRANCH   1  29
BRANCH   1  35
ATOM     35  C   UNL     1      -6.625   3.633   6.979  0.00  0.00    +0.301 C 
ATOM     36  O   UNL     1      -6.897   2.602   6.412  0.00  0.00    -0.252 OA
BRANCH  35  37
ATOM     37  O   UNL     1      -7.494   4.171   7.849  0.00  0.00    -0.466 OA
BRANCH  37  39
ATOM     38  C   UNL     1      -9.598   4.219   9.074  0.00  0.00    +0.048 C 
ATOM     39  C   UNL     1      -8.743   3.460   8.057  0.00  0.00    +0.228 C 
ENDBRANCH  37  39
ENDBRANCH  35  37
ENDBRANCH   1  35
TORSDOF 7
