REMARK  Name = ZINC20788719
REMARK  6 active torsions:
REMARK  status: ('A' for Active; 'I' for Inactive)
REMARK    1  A    between atoms: C_4  and  O_7
REMARK    2  A    between atoms: O_7  and  C_8
REMARK    3  A    between atoms: C_13  and  N_14
REMARK    4  A    between atoms: C_15  and  C_17
REMARK    5  A    between atoms: C_17  and  S_18
REMARK    6  A    between atoms: S_18  and  C_19
REMARK                            x       y       z     vdW  Elec       q    Type
REMARK                         _______ _______ _______ _____ _____    ______ ____
ROOT
ATOM      1  N   UNL     1      -8.485   1.261  -0.245  0.00  0.00    -0.282 N 
ATOM      2  C   UNL     1      -7.219   1.248  -0.706  0.00  0.00    +0.228 C 
ATOM      3  O   UNL     1      -6.709   0.203  -1.052  0.00  0.00    -0.275 OA
ATOM      4  H   UNL     1      -8.941   2.207   0.083  0.00  0.00    +0.155 HD
ENDROOT
BRANCH   1  10
ATOM      5  C   UNL     1     -10.611   0.111  -0.105  0.00  0.00    +0.150 A 
ATOM      6  C   UNL     1     -11.332  -1.071  -0.049  0.00  0.00    +0.048 A 
ATOM      7  C   UNL     1     -10.673  -2.286  -0.061  0.00  0.00    +0.004 A 
ATOM      8  C   UNL     1      -9.293  -2.326  -0.134  0.00  0.00    +0.002 A 
ATOM      9  C   UNL     1      -8.565  -1.153  -0.196  0.00  0.00    +0.027 A 
ATOM     10  C   UNL     1      -9.220   0.070  -0.184  0.00  0.00    +0.076 A 
BRANCH   5  11
ATOM     11  O   UNL     1     -11.258   1.306  -0.087  0.00  0.00    -0.454 OA
BRANCH  11  15
ATOM     12  C   UNL     1     -11.934   3.196  -3.691  0.00  0.00    +0.000 A 
ATOM     13  C   UNL     1     -12.451   3.728  -2.525  0.00  0.00    +0.004 A 
ATOM     14  C   UNL     1     -12.226   3.098  -1.317  0.00  0.00    +0.046 A 
ATOM     15  C   UNL     1     -11.480   1.928  -1.274  0.00  0.00    +0.129 A 
ATOM     16  C   UNL     1     -10.958   1.398  -2.446  0.00  0.00    +0.046 A 
ATOM     17  C   UNL     1     -11.190   2.030  -3.652  0.00  0.00    +0.004 A 
ENDBRANCH  11  15
ENDBRANCH   5  11
ENDBRANCH   1  10
BRANCH   2  18
ATOM     18  C   UNL     1      -6.435   2.533  -0.793  0.00  0.00    +0.173 C 
BRANCH  18  19
ATOM     19  S   UNL     1      -4.779   2.188  -1.447  0.00  0.00    -0.076 S 
BRANCH  19  20
ATOM     20  C   UNL     1      -3.999   3.768  -1.487  0.00  0.00    +0.197 A 
ATOM     21  N   UNL     1      -4.545   4.896  -1.117  0.00  0.00    -0.121 NA
ATOM     22  N   UNL     1      -3.601   5.916  -1.303  0.00  0.00    -0.121 NA
ATOM     23  C   UNL     1      -2.522   5.369  -1.778  0.00  0.00    +0.202 A 
ATOM     24  N   UNL     1      -2.705   4.019  -1.918  0.00  0.00    -0.264 N 
ATOM     25  C   UNL     1      -1.639   3.257  -2.421  0.00  0.00    +0.065 A 
ATOM     26  C   UNL     1      -1.635   1.870  -2.641  0.00  0.00    +0.027 A 
ATOM     27  C   UNL     1      -0.518   1.240  -3.137  0.00  0.00    +0.002 A 
ATOM     28  C   UNL     1       0.630   1.951  -3.444  0.00  0.00    +0.001 A 
ATOM     29  C   UNL     1       0.651   3.320  -3.242  0.00  0.00    +0.017 A 
ATOM     30  C   UNL     1      -0.466   3.947  -2.740  0.00  0.00    +0.040 A 
ATOM     31  S   UNL     1      -0.858   5.633  -2.340  0.00  0.00    -0.048 S 
ENDBRANCH  19  20
ENDBRANCH  18  19
ENDBRANCH   2  18
TORSDOF 6
