REMARK  Name = ZINC38903789
REMARK  12 active torsions:
REMARK  status: ('A' for Active; 'I' for Inactive)
REMARK    1  A    between atoms: C_1  and  C_2
REMARK    2  A    between atoms: C_2  and  C_4
REMARK    3  A    between atoms: C_2  and  N_16
REMARK    4  A    between atoms: C_7  and  N_10
REMARK    5  A    between atoms: C_17  and  C_19
REMARK    6  A    between atoms: N_24  and  C_26
REMARK    7  A    between atoms: C_26  and  C_27
REMARK    8  A    between atoms: C_29  and  C_32
REMARK    9  A    between atoms: C_35  and  C_38
REMARK   10  A    between atoms: C_38  and  C_39
REMARK   11  A    between atoms: C_38  and  C_40
REMARK   12  A    between atoms: C_38  and  C_41
REMARK                            x       y       z     vdW  Elec       q    Type
REMARK                         _______ _______ _______ _____ _____    ______ ____
ROOT
ATOM      1  C   UNL     1       2.771  -1.068   2.421  0.00  0.00    +0.058 C 
ATOM      2  C   UNL     1       2.289  -2.477   2.778  0.00  0.00    +0.009 C 
ATOM      3  C   UNL     1       3.084  -2.989   3.982  0.00  0.00    -0.018 C 
ATOM      4  C   UNL     1       4.578  -2.954   3.651  0.00  0.00    -0.078 C 
ATOM      5  N   UNL     1       4.983  -1.577   3.345  0.00  0.00    +0.386 N 
ATOM      6  C   UNL     1       4.277  -1.103   2.149  0.00  0.00    -0.065 C 
ATOM      7  H   UNL     1       4.757  -0.980   4.126  0.00  0.00    -0.081 HD
ENDROOT
BRANCH   1   9
ATOM      8  N   UNL     1       0.705  -0.474   1.198  0.00  0.00    -0.309 N 
ATOM      9  C   UNL     1       2.048  -0.585   1.191  0.00  0.00    +0.215 C 
ATOM     10  O   UNL     1       2.675  -0.295   0.194  0.00  0.00    -0.276 OA
ATOM     11  H   UNL     1       0.204  -0.706   1.996  0.00  0.00    +0.149 HD
BRANCH   8  13
ATOM     12  C   UNL     1      -0.019   1.526  -0.009  0.00  0.00    +0.033 C 
ATOM     13  C   UNL     1       0.002  -0.004   0.002  0.00  0.00    +0.100 C 
BRANCH  13  14
ATOM     14  C   UNL     1      -1.412  -0.526   0.013  0.00  0.00    -0.027 A 
ATOM     15  C   UNL     1      -2.127  -0.555   1.196  0.00  0.00    +0.007 A 
ATOM     16  C   UNL     1      -3.423  -1.033   1.209  0.00  0.00    +0.023 A 
ATOM     17  C   UNL     1      -4.008  -1.483   0.032  0.00  0.00    +0.030 A 
ATOM     18  C   UNL     1      -3.286  -1.452  -1.154  0.00  0.00    +0.023 A 
ATOM     19  C   UNL     1      -1.993  -0.969  -1.161  0.00  0.00    +0.007 A 
BRANCH  17  20
ATOM     20  N   UNL     1      -5.318  -1.967   0.042  0.00  0.00    -0.330 N 
ATOM     21  C   UNL     1      -5.990  -2.334  -1.212  0.00  0.00    +0.105 C 
ATOM     22  C   UNL     1      -6.517  -3.767  -1.087  0.00  0.00    +0.019 C 
ATOM     23  C   UNL     1      -7.403  -3.875   0.156  0.00  0.00    +0.003 C 
ATOM     24  C   UNL     1      -6.577  -3.554   1.403  0.00  0.00    +0.019 C 
ATOM     25  C   UNL     1      -6.048  -2.125   1.308  0.00  0.00    +0.105 C 
ENDBRANCH  17  20
ENDBRANCH  13  14
ENDBRANCH   8  13
ENDBRANCH   1   9
BRANCH   5  26
ATOM     26  C   UNL     1       6.432  -1.536   3.104  0.00  0.00    +0.022 C 
BRANCH  26  27
ATOM     27  C   UNL     1       7.162  -1.895   4.373  0.00  0.00    +0.211 A 
ATOM     28  N   UNL     1       7.518  -3.095   4.733  0.00  0.00    -0.193 NA
ATOM     29  C   UNL     1       8.150  -3.052   5.919  0.00  0.00    +0.202 A 
ATOM     30  N   UNL     1       8.198  -1.806   6.322  0.00  0.00    -0.056 NA
ATOM     31  O   UNL     1       7.560  -1.033   5.317  0.00  0.00    -0.340 OA
BRANCH  29  32
ATOM     32  C   UNL     1       8.700  -4.220   6.651  0.00  0.00    +0.022 A 
ATOM     33  C   UNL     1       8.588  -5.499   6.110  0.00  0.00    +0.012 A 
ATOM     34  C   UNL     1       9.102  -6.583   6.794  0.00  0.00    +0.005 A 
ATOM     35  C   UNL     1       9.726  -6.400   8.015  0.00  0.00    -0.042 A 
ATOM     36  C   UNL     1       9.841  -5.132   8.556  0.00  0.00    +0.005 A 
ATOM     37  C   UNL     1       9.336  -4.041   7.877  0.00  0.00    +0.012 A 
BRANCH  35  38
ATOM     38  C   UNL     1      10.284  -7.587   8.758  0.00  0.00    -0.013 C 
ATOM     39  C   UNL     1      11.345  -8.274   7.896  0.00  0.00    +0.015 C 
ATOM     40  C   UNL     1      10.918  -7.116  10.068  0.00  0.00    +0.015 C 
ATOM     41  C   UNL     1       9.156  -8.574   9.062  0.00  0.00    +0.015 C 
ENDBRANCH  35  38
ENDBRANCH  29  32
ENDBRANCH  26  27
ENDBRANCH   5  26
TORSDOF 8
