REMARK  Name = ZINC19945573
REMARK  7 active torsions:
REMARK  status: ('A' for Active; 'I' for Inactive)
REMARK    1  A    between atoms: C_1  and  C_2
REMARK    2  A    between atoms: C_5  and  C_26
REMARK    3  A    between atoms: C_6  and  C_8
REMARK    4  A    between atoms: N_9  and  C_10
REMARK    5  A    between atoms: C_13  and  S_16
REMARK    6  A    between atoms: S_16  and  N_19
REMARK    7  A    between atoms: N_19  and  C_20
REMARK                            x       y       z     vdW  Elec       q    Type
REMARK                         _______ _______ _______ _____ _____    ______ ____
ROOT
ATOM      1  C   UNL     1       0.895  -4.981   4.571  0.00  0.00    +0.064 A 
ATOM      2  C   UNL     1       1.958  -4.841   5.467  0.00  0.00    +0.029 A 
ATOM      3  C   UNL     1       2.159  -5.792   6.446  0.00  0.00    +0.031 A 
ATOM      4  C   UNL     1       1.312  -6.882   6.542  0.00  0.00    +0.109 A 
ATOM      5  C   UNL     1       0.258  -7.027   5.657  0.00  0.00    +0.031 A 
ATOM      6  C   UNL     1       0.041  -6.080   4.677  0.00  0.00    +0.029 A 
ENDROOT
BRANCH   4   7
ATOM      7  S   UNL     1       1.578  -8.091   7.795  0.00  0.00    +0.072 S 
ATOM      8  O   UNL     1       1.088  -9.322   7.282  0.00  0.00    -0.150 OA
ATOM      9  O   UNL     1       2.918  -7.929   8.238  0.00  0.00    -0.150 OA
BRANCH   7  10
ATOM     10  N   UNL     1       0.605  -7.691   9.075  0.00  0.00    -0.216 N 
ATOM     11  H   UNL     1      -0.096  -8.298   9.359  0.00  0.00    +0.174 HD
BRANCH  10  12
ATOM     12  C   UNL     1       0.794  -6.481   9.744  0.00  0.00    +0.048 A 
ATOM     13  C   UNL     1       2.075  -6.071  10.094  0.00  0.00    +0.024 A 
ATOM     14  C   UNL     1       2.259  -4.873  10.756  0.00  0.00    +0.002 A 
ATOM     15  C   UNL     1       1.170  -4.081  11.071  0.00  0.00    +0.000 A 
ATOM     16  C   UNL     1      -0.106  -4.486  10.724  0.00  0.00    +0.002 A 
ATOM     17  C   UNL     1      -0.297  -5.680  10.057  0.00  0.00    +0.024 A 
ENDBRANCH  10  12
ENDBRANCH   7  10
ENDBRANCH   4   7
BRANCH   1  19
ATOM     18  C   UNL     1       0.757  -2.774   3.890  0.00  0.00    +0.119 C 
ATOM     19  N   UNL     1       0.689  -4.042   3.597  0.00  0.00    -0.255 NA
BRANCH  18  25
ATOM     20  C   UNL     1       0.685   1.998   2.447  0.00  0.00    +0.044 C 
ATOM     21  C   UNL     1       0.499   0.535   2.141  0.00  0.00    -0.050 A 
ATOM     22  C   UNL     1       0.118   0.138   0.871  0.00  0.00    +0.003 A 
ATOM     23  C   UNL     1      -0.056  -1.204   0.581  0.00  0.00    +0.004 A 
ATOM     24  C   UNL     1       0.150  -2.157   1.557  0.00  0.00    -0.042 A 
ATOM     25  C   UNL     1       0.535  -1.764   2.842  0.00  0.00    -0.004 A 
ATOM     26  C   UNL     1       0.714  -0.406   3.126  0.00  0.00    +0.013 A 
ATOM     27  C   UNL     1      -0.041  -3.617   1.240  0.00  0.00    +0.044 C 
ENDBRANCH  18  25
ENDBRANCH   1  19
TORSDOF 5
