REMARK  Name = ZINC64858687
REMARK  5 active torsions:
REMARK  status: ('A' for Active; 'I' for Inactive)
REMARK    1  A    between atoms: C_1  and  C_2
REMARK    2  A    between atoms: C_4  and  C_30
REMARK    3  A    between atoms: C_6  and  C_8
REMARK    4  A    between atoms: C_24  and  O_28
REMARK    5  A    between atoms: O_28  and  C_29
REMARK                            x       y       z     vdW  Elec       q    Type
REMARK                         _______ _______ _______ _____ _____    ______ ____
ROOT
ATOM      1  C   UNL     1       0.052  -2.845   2.458  0.00  0.00    +0.247 C 
ATOM      2  O   UNL     1      -0.039  -4.058   2.450  0.00  0.00    -0.270 OA
ATOM      3  N   UNL     1       0.150  -2.185   3.628  0.00  0.00    -0.297 N 
ATOM      4  C   UNL     1       0.127  -0.716   3.663  0.00  0.00    +0.110 C 
ATOM      5  C   UNL     1      -0.966  -0.265   4.639  0.00  0.00    +0.051 C 
ATOM      6  C   UNL     1      -0.736  -0.925   5.998  0.00  0.00    +0.075 C 
ATOM      7  C   UNL     1      -0.809  -2.445   5.858  0.00  0.00    +0.051 C 
ATOM      8  C   UNL     1       0.277  -2.920   4.894  0.00  0.00    +0.110 C 
ATOM      9  C   UNL     1      -1.780  -0.451   6.977  0.00  0.00    +0.047 A 
ATOM     10  C   UNL     1      -3.074  -0.177   6.778  0.00  0.00    +0.025 A 
ATOM     11  C   UNL     1      -3.619   0.211   8.021  0.00  0.00    +0.020 A 
ATOM     12  C   UNL     1      -2.624   0.163   8.936  0.00  0.00    +0.092 A 
ATOM     13  N   UNL     1      -1.491  -0.230   8.306  0.00  0.00    -0.316 N 
ATOM     14  C   UNL     1      -0.190  -0.397   8.807  0.00  0.00    +0.067 A 
ATOM     15  C   UNL     1       0.072  -0.378  10.163  0.00  0.00    +0.031 A 
ATOM     16  C   UNL     1       1.365  -0.573  10.617  0.00  0.00    +0.048 A 
ATOM     17  C   UNL     1       2.395  -0.785   9.712  0.00  0.00    +0.122 A 
ATOM     18  C   UNL     1       2.138  -0.795   8.350  0.00  0.00    +0.070 A 
ATOM     19  C   UNL     1       0.847  -0.590   7.889  0.00  0.00    +0.055 A 
ATOM     20  N   UNL     1       0.585  -0.540   6.514  0.00  0.00    -0.331 N 
ATOM     21  H   UNL     1       1.278  -0.251   5.900  0.00  0.00    +0.147 HD
ENDROOT
BRANCH   1  27
ATOM     22  C   UNL     1       1.851   0.849  -0.374  0.00  0.00    +0.044 C 
ATOM     23  C   UNL     1       0.917  -0.319  -0.183  0.00  0.00    -0.049 A 
ATOM     24  C   UNL     1       0.059  -0.691  -1.203  0.00  0.00    +0.006 A 
ATOM     25  C   UNL     1      -0.801  -1.761  -1.036  0.00  0.00    -0.049 A 
ATOM     26  C   UNL     1      -0.808  -2.465   0.151  0.00  0.00    +0.016 A 
ATOM     27  C   UNL     1       0.055  -2.096   1.183  0.00  0.00    +0.037 A 
ATOM     28  C   UNL     1       0.924  -1.018   1.006  0.00  0.00    +0.016 A 
ATOM     29  C   UNL     1      -1.732  -2.159  -2.152  0.00  0.00    +0.044 C 
ENDBRANCH   1  27
BRANCH  17  30
ATOM     30  O   UNL     1       3.662  -0.984  10.163  0.00  0.00    -0.495 OA
ATOM     31  C   UNL     1       3.857  -0.962  11.579  0.00  0.00    +0.277 C 
ENDBRANCH  17  30
TORSDOF 2
