REMARK  Name = ZINC09398730
REMARK  7 active torsions:
REMARK  status: ('A' for Active; 'I' for Inactive)
REMARK    1  A    between atoms: C_1  and  C_2
REMARK    2  A    between atoms: C_2  and  C_3
REMARK    3  A    between atoms: C_3  and  N_4
REMARK    4  A    between atoms: C_14  and  S_15
REMARK    5  A    between atoms: S_15  and  C_16
REMARK    6  A    between atoms: C_16  and  C_17
REMARK    7  A    between atoms: N_22  and  C_23
REMARK                            x       y       z     vdW  Elec       q    Type
REMARK                         _______ _______ _______ _____ _____    ______ ____
ROOT
ATOM      1  C   UNL     1       2.064   6.072   1.655  0.00  0.00    +0.231 C 
ATOM      2  O   UNL     1       2.718   5.817   0.666  0.00  0.00    -0.274 OA
ATOM      3  N   UNL     1       2.286   7.214   2.334  0.00  0.00    -0.239 N 
ATOM      4  C   UNL     1       3.235   8.074   1.915  0.00  0.00    +0.306 C 
ATOM      5  O   UNL     1       3.891   7.819   0.924  0.00  0.00    -0.252 OA
ATOM      6  N   UNL     1       3.457   9.217   2.595  0.00  0.00    -0.294 N 
ATOM      7  H   UNL     1       1.762   7.418   3.125  0.00  0.00    +0.159 HD
ATOM      8  H   UNL     1       2.934   9.420   3.385  0.00  0.00    +0.151 HD
ENDROOT
BRANCH   6   9
ATOM      9  C   UNL     1       4.489  10.151   2.139  0.00  0.00    +0.037 C 
ATOM     10  C   UNL     1       5.849   9.450   2.140  0.00  0.00    +0.029 C 
ATOM     11  C   UNL     1       6.927  10.426   1.664  0.00  0.00    -0.008 C 
ATOM     12  C   UNL     1       6.973  11.632   2.605  0.00  0.00    +0.007 C 
ATOM     13  C   UNL     1       5.614  12.334   2.603  0.00  0.00    -0.008 C 
ATOM     14  C   UNL     1       4.536  11.357   3.079  0.00  0.00    +0.029 C 
ATOM     15  C   UNL     1       5.285  12.805   1.185  0.00  0.00    +0.007 C 
ATOM     16  C   UNL     1       5.238  11.599   0.245  0.00  0.00    -0.008 C 
ATOM     17  C   UNL     1       6.597  10.898   0.246  0.00  0.00    +0.007 C 
ATOM     18  C   UNL     1       4.160  10.623   0.721  0.00  0.00    +0.029 C 
ENDBRANCH   6   9
BRANCH   1  19
ATOM     19  C   UNL     1       1.002   5.110   2.123  0.00  0.00    +0.173 C 
BRANCH  19  20
ATOM     20  S   UNL     1       0.947   3.683   1.011  0.00  0.00    -0.078 S 
BRANCH  20  31
ATOM     21  N   UNL     1      -0.698   1.558   1.213  0.00  0.00    -0.287 N 
ATOM     22  C   UNL     1      -1.678   0.806   1.766  0.00  0.00    +0.262 A 
ATOM     23  O   UNL     1      -2.003  -0.262   1.281  0.00  0.00    -0.267 OA
ATOM     24  C   UNL     1      -2.333   1.325   2.974  0.00  0.00    +0.065 A 
ATOM     25  C   UNL     1      -3.353   0.623   3.616  0.00  0.00    +0.017 A 
ATOM     26  C   UNL     1      -3.933   1.147   4.737  0.00  0.00    +0.021 A 
ATOM     27  C   UNL     1      -3.517   2.373   5.246  0.00  0.00    +0.043 A 
ATOM     28  C   UNL     1      -2.512   3.087   4.631  0.00  0.00    +0.048 A 
ATOM     29  C   UNL     1      -1.904   2.572   3.483  0.00  0.00    +0.080 A 
ATOM     30  N   UNL     1      -0.913   3.238   2.846  0.00  0.00    -0.223 NA
ATOM     31  C   UNL     1      -0.340   2.752   1.772  0.00  0.00    +0.173 A 
ATOM     32 CL   UNL     1      -4.274   3.011   6.672  0.00  0.00    -0.083 Cl
BRANCH  21  33
ATOM     33  C   UNL     1      -0.013   1.086   0.008  0.00  0.00    +0.127 C 
BRANCH  33  35
ATOM     34  C   UNL     1      -0.037   1.099  -2.490  0.00  0.00    +0.005 C 
ATOM     35  C   UNL     1      -0.753   1.593  -1.232  0.00  0.00    +0.018 C 
ENDBRANCH  33  35
ENDBRANCH  21  33
ENDBRANCH  20  31
ENDBRANCH  19  20
ENDBRANCH   1  19
TORSDOF 6
