REMARK  Name = ZINC38702716
REMARK  4 active torsions:
REMARK  status: ('A' for Active; 'I' for Inactive)
REMARK    1  A    between atoms: C_1  and  C_2
REMARK    2  A    between atoms: C_2  and  O_3
REMARK    3  A    between atoms: O_3  and  C_4
REMARK    4  A    between atoms: C_7  and  C_10
REMARK                            x       y       z     vdW  Elec       q    Type
REMARK                         _______ _______ _______ _____ _____    ______ ____
ROOT
ATOM      1  C   UNL     1       1.144  -6.059   1.764  0.00  0.00    +0.141 C 
ATOM      2  C   UNL     1       0.132  -6.555   2.744  0.00  0.00    +0.072 A 
ATOM      3  C   UNL     1      -1.334  -6.495   2.732  0.00  0.00    +0.199 A 
ATOM      4  O   UNL     1      -1.980  -6.144   1.760  0.00  0.00    -0.287 OA
ATOM      5  C   UNL     1      -1.956  -6.903   4.017  0.00  0.00    +0.065 A 
ATOM      6  C   UNL     1      -3.320  -6.712   4.232  0.00  0.00    +0.030 A 
ATOM      7  C   UNL     1      -3.880  -7.092   5.433  0.00  0.00    +0.019 A 
ATOM      8  C   UNL     1      -3.086  -7.661   6.421  0.00  0.00    +0.019 A 
ATOM      9  C   UNL     1      -1.739  -7.855   6.218  0.00  0.00    +0.048 A 
ATOM     10  C   UNL     1      -1.149  -7.481   5.011  0.00  0.00    +0.140 A 
ATOM     11  O   UNL     1       0.175  -7.692   4.834  0.00  0.00    -0.450 OA
ATOM     12  C   UNL     1       0.804  -7.136   3.780  0.00  0.00    +0.199 A 
ATOM     13  C   UNL     1       2.249  -7.031   3.511  0.00  0.00    +0.281 C 
ATOM     14  O   UNL     1       3.125  -7.448   4.242  0.00  0.00    -0.267 OA
ATOM     15  N   UNL     1       2.458  -6.404   2.333  0.00  0.00    -0.298 N 
ATOM     16 BR   UNL     1      -5.729  -6.839   5.736  0.00  0.00    -0.050 Br
ATOM     17  H   UNL     1       3.320  -6.214   1.933  0.00  0.00    +0.150 HD
ENDROOT
BRANCH   1  21
ATOM     18  C   UNL     1       0.802  -1.824   1.306  0.00  0.00    +0.121 A 
ATOM     19  C   UNL     1       0.260  -2.673   0.351  0.00  0.00    +0.046 A 
ATOM     20  C   UNL     1       0.372  -4.041   0.502  0.00  0.00    +0.009 A 
ATOM     21  C   UNL     1       1.024  -4.566   1.603  0.00  0.00    -0.022 A 
ATOM     22  C   UNL     1       1.565  -3.722   2.555  0.00  0.00    +0.009 A 
ATOM     23  C   UNL     1       1.460  -2.353   2.406  0.00  0.00    +0.046 A 
BRANCH  18  24
ATOM     24  O   UNL     1       0.693  -0.477   1.160  0.00  0.00    -0.492 OA
BRANCH  24  26
ATOM     25  C   UNL     1      -0.019   1.526   0.010  0.00  0.00    +0.048 C 
ATOM     26  C   UNL     1       0.002  -0.004   0.002  0.00  0.00    +0.225 C 
ENDBRANCH  24  26
ENDBRANCH  18  24
ENDBRANCH   1  21
TORSDOF 3
