REMARK  Name = ZINC34975796
REMARK  9 active torsions:
REMARK  status: ('A' for Active; 'I' for Inactive)
REMARK    1  A    between atoms: C_1  and  C_2
REMARK    2  A    between atoms: C_7  and  N_8
REMARK    3  A    between atoms: N_11  and  C_12
REMARK    4  A    between atoms: C_12  and  C_14
REMARK    5  A    between atoms: C_12  and  C_17
REMARK    6  A    between atoms: C_14  and  C_15
REMARK    7  A    between atoms: C_14  and  C_16
REMARK    8  A    between atoms: C_23  and  C_26
REMARK    9  A    between atoms: C_27  and  C_29
REMARK                            x       y       z     vdW  Elec       q    Type
REMARK                         _______ _______ _______ _____ _____    ______ ____
ROOT
ATOM      1  C   UNL     1      -2.816  -2.381   5.293  0.00  0.00    +0.163 C 
ENDROOT
BRANCH   1   2
ATOM      2  C   UNL     1      -2.943  -1.318   6.354  0.00  0.00    +0.236 C 
ATOM      3  O   UNL     1      -3.495  -0.269   6.098  0.00  0.00    -0.274 OA
ATOM      4  N   UNL     1      -2.444  -1.533   7.587  0.00  0.00    -0.297 N 
ATOM      5  C   UNL     1      -1.677  -2.752   7.881  0.00  0.00    +0.127 C 
ATOM      6  C   UNL     1      -2.328  -3.465   9.073  0.00  0.00    +0.127 C 
ATOM      7  N   UNL     1      -2.540  -2.485  10.148  0.00  0.00    -0.292 N 
ATOM      8  C   UNL     1      -3.306  -1.266   9.854  0.00  0.00    +0.091 C 
ATOM      9  C   UNL     1      -2.651  -0.551   8.660  0.00  0.00    +0.130 C 
ATOM     10  C   UNL     1      -3.295  -0.345  11.075  0.00  0.00    +0.029 C 
ATOM     11  C   UNL     1      -2.040  -2.700  11.381  0.00  0.00    +0.247 C 
ATOM     12  O   UNL     1      -2.322  -1.946  12.291  0.00  0.00    -0.270 OA
BRANCH  11  13
ATOM     13  C   UNL     1      -1.149  -3.854  11.626  0.00  0.00    +0.037 A 
ATOM     14  C   UNL     1      -0.290  -4.303  10.622  0.00  0.00    +0.013 A 
ATOM     15  C   UNL     1       0.539  -5.380  10.857  0.00  0.00    +0.001 A 
ATOM     16  C   UNL     1       0.520  -6.015  12.086  0.00  0.00    +0.000 A 
ATOM     17  C   UNL     1      -0.329  -5.576  13.086  0.00  0.00    +0.001 A 
ATOM     18  C   UNL     1      -1.159  -4.496  12.866  0.00  0.00    +0.013 A 
ENDBRANCH  11  13
ENDBRANCH   1   2
BRANCH   1  22
ATOM     19  N   UNL     1      -5.454  -3.424   2.954  0.00  0.00    -0.269 N 
ATOM     20  C   UNL     1      -4.369  -3.454   3.753  0.00  0.00    +0.304 C 
ATOM     21  O   UNL     1      -3.728  -4.481   3.868  0.00  0.00    -0.252 OA
ATOM     22  N   UNL     1      -3.995  -2.347   4.425  0.00  0.00    -0.288 N 
ATOM     23  H   UNL     1      -5.913  -2.585   2.791  0.00  0.00    +0.156 HD
ATOM     24  H   UNL     1      -4.507  -1.528   4.333  0.00  0.00    +0.151 HD
BRANCH  19  31
ATOM     25  C   UNL     1      -8.249  -3.682   2.489  0.00  0.00    +0.045 C 
ATOM     26  C   UNL     1      -7.275  -4.770   2.115  0.00  0.00    -0.029 A 
ATOM     27  C   UNL     1      -7.731  -5.932   1.523  0.00  0.00    +0.005 A 
ATOM     28  C   UNL     1      -6.838  -6.930   1.179  0.00  0.00    +0.000 A 
ATOM     29  C   UNL     1      -5.487  -6.769   1.428  0.00  0.00    +0.002 A 
ATOM     30  C   UNL     1      -5.025  -5.610   2.019  0.00  0.00    +0.023 A 
ATOM     31  C   UNL     1      -5.919  -4.602   2.360  0.00  0.00    +0.038 A 
ENDBRANCH  19  31
ENDBRANCH   1  22
BRANCH   1  32
ATOM     32  C   UNL     1      -1.560  -2.121   4.459  0.00  0.00    +0.012 C 
ATOM     33  C   UNL     1      -0.325  -2.202   5.358  0.00  0.00    +0.009 C 
ATOM     34  C   UNL     1      -1.456  -3.173   3.353  0.00  0.00    +0.009 C 
ENDBRANCH   1  32
TORSDOF 5
