REMARK  Name = ZINC66104308
REMARK  7 active torsions:
REMARK  status: ('A' for Active; 'I' for Inactive)
REMARK    1  A    between atoms: C_4  and  C_13
REMARK    2  A    between atoms: C_5  and  C_7
REMARK    3  A    between atoms: C_7  and  N_8
REMARK    4  A    between atoms: N_8  and  S_9
REMARK    5  A    between atoms: S_9  and  N_12
REMARK    6  A    between atoms: C_16  and  C_19
REMARK    7  A    between atoms: C_19  and  N_20
REMARK                            x       y       z     vdW  Elec       q    Type
REMARK                         _______ _______ _______ _____ _____    ______ ____
ROOT
ATOM      1  C   UNL     1      -0.305   1.305   0.501  0.00  0.00    +0.000 A 
ATOM      2  C   UNL     1      -0.060   0.932  -0.808  0.00  0.00    +0.001 A 
ATOM      3  C   UNL     1       1.192   0.485  -1.179  0.00  0.00    +0.009 A 
ATOM      4  C   UNL     1       2.210   0.409  -0.231  0.00  0.00    -0.013 A 
ATOM      5  C   UNL     1       1.958   0.786   1.087  0.00  0.00    -0.024 A 
ATOM      6  C   UNL     1       0.702   1.232   1.446  0.00  0.00    +0.005 A 
ENDROOT
BRANCH   4   7
ATOM      7  C   UNL     1       3.558  -0.072  -0.623  0.00  0.00    -0.018 A 
ATOM      8  C   UNL     1       4.126  -1.166   0.026  0.00  0.00    +0.009 A 
ATOM      9  C   UNL     1       5.380  -1.610  -0.343  0.00  0.00    +0.006 A 
ATOM     10  C   UNL     1       6.073  -0.970  -1.355  0.00  0.00    -0.026 A 
ATOM     11  C   UNL     1       5.514   0.117  -2.002  0.00  0.00    +0.006 A 
ATOM     12  C   UNL     1       4.258   0.566  -1.645  0.00  0.00    +0.009 A 
BRANCH  10  13
ATOM     13  C   UNL     1       7.441  -1.458  -1.753  0.00  0.00    +0.178 C 
BRANCH  13  14
ATOM     14  N   UNL     1       7.313  -2.464  -2.810  0.00  0.00    -0.267 N 
ATOM     15  C   UNL     1       7.919  -2.432  -4.015  0.00  0.00    +0.108 A 
ATOM     16  C   UNL     1       7.543  -3.539  -4.696  0.00  0.00    +0.041 A 
ATOM     17  C   UNL     1       6.677  -4.273  -3.879  0.00  0.00    +0.134 A 
ATOM     18  N   UNL     1       6.543  -3.632  -2.746  0.00  0.00    -0.179 NA
ENDBRANCH  13  14
ENDBRANCH  10  13
ENDBRANCH   4   7
BRANCH   5  19
ATOM     19  C   UNL     1       3.055   0.706   2.118  0.00  0.00    +0.142 C 
BRANCH  19  20
ATOM     20  N   UNL     1       4.008   1.798   1.903  0.00  0.00    -0.176 NA
ATOM     21  H   UNL     1       4.013   2.278   1.060  0.00  0.00    +0.149 HD
BRANCH  20  22
ATOM     22  S   UNL     1       5.075   2.213   3.099  0.00  0.00    +0.092 S 
ATOM     23  O   UNL     1       5.871   3.272   2.583  0.00  0.00    -0.142 OA
ATOM     24  O   UNL     1       4.317   2.342   4.293  0.00  0.00    -0.142 OA
BRANCH  22  25
ATOM     25  N   UNL     1       6.089   0.922   3.319  0.00  0.00    -0.193 NA
ATOM     26  H   UNL     1       5.979   0.122   2.783  0.00  0.00    +0.145 HD
ATOM     27  H   UNL     1       6.794   0.968   3.984  0.00  0.00    +0.145 HD
ENDBRANCH  22  25
ENDBRANCH  20  22
ENDBRANCH  19  20
ENDBRANCH   5  19
TORSDOF 7
