REMARK  Name = ZINC63405444
REMARK  8 active torsions:
REMARK  status: ('A' for Active; 'I' for Inactive)
REMARK    1  A    between atoms: C_1  and  C_2
REMARK    2  A    between atoms: N_4  and  C_5
REMARK    3  A    between atoms: C_5  and  C_7
REMARK    4  A    between atoms: C_5  and  C_17
REMARK    5  A    between atoms: C_7  and  C_8
REMARK    6  A    between atoms: N_19  and  C_20
REMARK    7  A    between atoms: C_23  and  N_26
REMARK    8  A    between atoms: C_27  and  C_29
REMARK                            x       y       z     vdW  Elec       q    Type
REMARK                         _______ _______ _______ _____ _____    ______ ____
ROOT
ATOM      1  C   UNL     1       1.205  -2.668  -0.385  0.00  0.00    +0.238 C 
ATOM      2  O   UNL     1       1.728  -2.002   0.484  0.00  0.00    -0.273 OA
ATOM      3  N   UNL     1       1.729  -3.861  -0.727  0.00  0.00    -0.284 N 
ATOM      4  H   UNL     1       1.270  -4.427  -1.368  0.00  0.00    +0.155 HD
ENDROOT
BRANCH   3   5
ATOM      5  C   UNL     1       2.936  -4.286  -0.157  0.00  0.00    +0.034 A 
ATOM      6  C   UNL     1       3.154  -5.636   0.084  0.00  0.00    +0.025 A 
ATOM      7  C   UNL     1       4.343  -6.054   0.645  0.00  0.00    +0.025 A 
ATOM      8  C   UNL     1       5.323  -5.124   0.969  0.00  0.00    +0.034 A 
ATOM      9  C   UNL     1       5.106  -3.774   0.728  0.00  0.00    +0.025 A 
ATOM     10  C   UNL     1       3.918  -3.357   0.161  0.00  0.00    +0.025 A 
BRANCH   8  11
ATOM     11  N   UNL     1       6.530  -5.549   1.539  0.00  0.00    -0.283 N 
ATOM     12  C   UNL     1       7.144  -4.784   2.464  0.00  0.00    +0.246 C 
ATOM     13  O   UNL     1       6.696  -3.692   2.743  0.00  0.00    -0.273 OA
ATOM     14  H   UNL     1       6.924  -6.392   1.268  0.00  0.00    +0.155 HD
BRANCH  12  15
ATOM     15  C   UNL     1       8.386  -5.287   3.153  0.00  0.00    +0.204 C 
ATOM     16  C   UNL     1       8.045  -6.523   4.013  0.00  0.00    +0.043 C 
ATOM     17  C   UNL     1       8.914  -6.294   5.279  0.00  0.00    +0.031 C 
ATOM     18  C   UNL     1       8.875  -4.749   5.387  0.00  0.00    +0.161 C 
ATOM     19  O   UNL     1       8.899  -4.276   4.029  0.00  0.00    -0.367 OA
ENDBRANCH  12  15
ENDBRANCH   8  11
ENDBRANCH   3   5
BRANCH   1  20
ATOM     20  C   UNL     1      -0.032  -2.160  -1.081  0.00  0.00    +0.163 C 
BRANCH  20  24
ATOM     21  C   UNL     1      -0.318   1.307   0.516  0.00  0.00    +0.109 C 
ATOM     22  C   UNL     1      -0.216  -0.185   0.335  0.00  0.00    +0.211 C 
ATOM     23  O   UNL     1      -0.211  -0.915   1.303  0.00  0.00    -0.276 OA
ATOM     24  N   UNL     1      -0.130  -0.709  -0.904  0.00  0.00    -0.304 N 
ATOM     25  H   UNL     1      -0.134  -0.126  -1.679  0.00  0.00    +0.149 HD
ENDBRANCH  20  24
BRANCH  20  26
ATOM     26  C   UNL     1      -1.268  -2.833  -0.479  0.00  0.00    +0.065 C 
BRANCH  26  27
ATOM     27  C   UNL     1      -2.492  -2.419  -1.255  0.00  0.00    -0.039 C 
ATOM     28  C   UNL     1      -3.074  -3.091  -2.275  0.00  0.00    -0.001 A 
ATOM     29  C   UNL     1      -2.753  -4.359  -2.941  0.00  0.00    +0.010 A 
ATOM     30  C   UNL     1      -3.539  -4.783  -3.957  0.00  0.00    +0.001 A 
ATOM     31  C   UNL     1      -4.650  -4.044  -4.388  0.00  0.00    +0.002 A 
ATOM     32  C   UNL     1      -5.008  -2.870  -3.825  0.00  0.00    +0.026 A 
ATOM     33  C   UNL     1      -4.252  -2.329  -2.748  0.00  0.00    +0.043 A 
ATOM     34  N   UNL     1      -4.392  -1.230  -2.049  0.00  0.00    -0.380 N 
ATOM     35  C   UNL     1      -3.322  -1.172  -1.047  0.00  0.00    +0.144 C 
ATOM     36  H   UNL     1      -5.090  -0.567  -2.170  0.00  0.00    +0.160 HD
ENDBRANCH  26  27
ENDBRANCH  20  26
ENDBRANCH   1  20
TORSDOF 7
