REMARK  Name = ZINC66548395
REMARK  6 active torsions:
REMARK  status: ('A' for Active; 'I' for Inactive)
REMARK    1  A    between atoms: C_1  and  N_2
REMARK    2  A    between atoms: C_3  and  C_24
REMARK    3  A    between atoms: C_6  and  C_7
REMARK    4  A    between atoms: C_7  and  C_9
REMARK    5  A    between atoms: C_7  and  C_11
REMARK    6  A    between atoms: C_11  and  C_13
REMARK                            x       y       z     vdW  Elec       q    Type
REMARK                         _______ _______ _______ _____ _____    ______ ____
ROOT
ATOM      1  C   UNL     1       0.232  -0.405   2.519  0.00  0.00    +0.229 C 
ENDROOT
BRANCH   1   7
ATOM      2  C   UNL     1      -0.052   1.460   0.013  0.00  0.00    +0.152 C 
ATOM      3  N   UNL     1      -0.013  -0.004   0.003  0.00  0.00    -0.313 N 
ATOM      4  C   UNL     1      -0.086  -0.825  -1.090  0.00  0.00    +0.164 A 
ATOM      5  N   UNL     1      -0.013  -2.061  -0.647  0.00  0.00    -0.129 NA
ATOM      6  N   UNL     1       0.099  -2.057   0.633  0.00  0.00    -0.132 NA
ATOM      7  C   UNL     1       0.110  -0.830   1.079  0.00  0.00    +0.158 A 
BRANCH   4   8
ATOM      8  C   UNL     1      -0.222  -0.402  -2.501  0.00  0.00    +0.019 A 
ATOM      9  C   UNL     1      -0.717  -1.291  -3.454  0.00  0.00    +0.011 A 
ATOM     10  C   UNL     1      -0.841  -0.890  -4.769  0.00  0.00    +0.001 A 
ATOM     11  C   UNL     1      -0.476   0.391  -5.141  0.00  0.00    +0.000 A 
ATOM     12  C   UNL     1       0.015   1.278  -4.200  0.00  0.00    +0.001 A 
ATOM     13  C   UNL     1       0.139   0.891  -2.882  0.00  0.00    +0.011 A 
ENDBRANCH   4   8
ENDBRANCH   1   7
BRANCH   1  14
ATOM     14  C   UNL     1      -0.888  -0.965   3.293  0.00  0.00    +0.082 C 
ATOM     15  N   UNL     1      -1.753  -1.397   3.889  0.00  0.00    -0.195 NA
ENDBRANCH   1  14
BRANCH   1  16
ATOM     16  C   UNL     1       1.534  -0.911   3.083  0.00  0.00    +0.187 C 
ATOM     17  O   UNL     1       2.068  -1.888   2.598  0.00  0.00    -0.290 OA
BRANCH  16  18
ATOM     18  C   UNL     1       2.133  -0.251   4.173  0.00  0.00    +0.034 C 
ATOM     19  C   UNL     1       3.313  -0.701   4.682  0.00  0.00    +0.022 C 
ATOM     20  C   UNL     1       3.882   0.015   5.832  0.00  0.00    +0.019 A 
ATOM     21  C   UNL     1       5.216  -0.153   6.207  0.00  0.00    +0.031 A 
ATOM     22  C   UNL     1       5.708   0.540   7.294  0.00  0.00    +0.042 A 
ATOM     23  C   UNL     1       4.885   1.397   8.010  0.00  0.00    +0.023 A 
ATOM     24  C   UNL     1       3.562   1.571   7.646  0.00  0.00    +0.048 A 
ATOM     25  C   UNL     1       3.050   0.884   6.560  0.00  0.00    +0.128 A 
ATOM     26  O   UNL     1       1.758   1.033   6.179  0.00  0.00    -0.487 OA
ATOM     27  C   UNL     1       1.476   0.962   4.778  0.00  0.00    +0.268 C 
ATOM     28 CL   UNL     1       7.366   0.339   7.768  0.00  0.00    -0.084 Cl
ENDBRANCH  16  18
ENDBRANCH   1  16
TORSDOF 5
