REMARK  Name = ZINC27239116
REMARK  10 active torsions:
REMARK  status: ('A' for Active; 'I' for Inactive)
REMARK    1  A    between atoms: C_1  and  C_2
REMARK    2  A    between atoms: C_5  and  C_8
REMARK    3  A    between atoms: C_8  and  C_9
REMARK    4  A    between atoms: C_8  and  C_16
REMARK    5  A    between atoms: C_8  and  O_33
REMARK    6  A    between atoms: C_14  and  C_15
REMARK    7  A    between atoms: C_16  and  C_18
REMARK    8  A    between atoms: C_16  and  O_26
REMARK    9  A    between atoms: C_18  and  N_19
REMARK   10  A    between atoms: O_26  and  C_27
REMARK                            x       y       z     vdW  Elec       q    Type
REMARK                         _______ _______ _______ _____ _____    ______ ____
ROOT
ATOM      1  C   UNL     1       0.976   3.689  -0.329  0.00  0.00    +0.151 C 
ENDROOT
BRANCH   1   6
ATOM      2  C   UNL     1      -3.320   4.965   3.320  0.00  0.00    +0.044 C 
ATOM      3  C   UNL     1      -2.200   4.632   2.368  0.00  0.00    -0.050 A 
ATOM      4  C   UNL     1      -0.917   4.446   2.849  0.00  0.00    +0.004 A 
ATOM      5  C   UNL     1       0.111   4.141   1.976  0.00  0.00    +0.007 A 
ATOM      6  C   UNL     1      -0.145   4.021   0.623  0.00  0.00    -0.008 A 
ATOM      7  C   UNL     1      -1.427   4.207   0.142  0.00  0.00    +0.007 A 
ATOM      8  C   UNL     1      -2.455   4.513   1.015  0.00  0.00    +0.004 A 
ENDBRANCH   1   6
BRANCH   1   9
ATOM      9  C   UNL     1       0.865   2.246  -0.750  0.00  0.00    -0.005 A 
ATOM     10  C   UNL     1       0.938   1.910  -2.090  0.00  0.00    +0.007 A 
ATOM     11  C   UNL     1       0.842   0.586  -2.476  0.00  0.00    +0.000 A 
ATOM     12  C   UNL     1       0.661  -0.400  -1.524  0.00  0.00    +0.000 A 
ATOM     13  C   UNL     1       0.582  -0.064  -0.186  0.00  0.00    +0.004 A 
ATOM     14  C   UNL     1       0.684   1.260   0.201  0.00  0.00    -0.044 A 
ATOM     15  C   UNL     1       0.598   1.627   1.660  0.00  0.00    +0.044 C 
ENDBRANCH   1   9
BRANCH   1  16
ATOM     16  O   UNL     1       0.888   4.530  -1.481  0.00  0.00    -0.376 OA
ATOM     17  H   UNL     1       1.626   4.432  -2.291  0.00  0.00    +0.211 HD
ENDBRANCH   1  16
BRANCH   1  18
ATOM     18  C   UNL     1       2.320   3.915   0.367  0.00  0.00    +0.198 C 
BRANCH  18  19
ATOM     19  C   UNL     1       2.439   5.383   0.780  0.00  0.00    -0.030 C 
BRANCH  19  20
ATOM     20  N   UNL     1       3.729   5.601   1.448  0.00  0.00    +0.382 N 
ATOM     21  C   UNL     1       3.837   4.779   2.674  0.00  0.00    -0.079 C 
ATOM     22  C   UNL     1       5.011   5.163   3.532  0.00  0.00    -0.019 C 
ATOM     23  C   UNL     1       4.532   6.178   4.591  0.00  0.00    -0.002 C 
ATOM     24  C   UNL     1       4.393   7.522   4.041  0.00  0.00    -0.002 C 
ATOM     25  C   UNL     1       3.352   7.581   2.903  0.00  0.00    -0.019 C 
ATOM     26  C   UNL     1       3.986   7.044   1.648  0.00  0.00    -0.079 C 
ATOM     27  H   UNL     1       4.535   5.248   0.787  0.00  0.00    -0.082 HD
ENDBRANCH  19  20
ENDBRANCH  18  19
BRANCH  18  28
ATOM     28  O   UNL     1       3.382   3.585  -0.531  0.00  0.00    -0.487 OA
BRANCH  28  29
ATOM     29  C   UNL     1       4.078   2.447  -0.271  0.00  0.00    +0.121 A 
ATOM     30  C   UNL     1       3.760   1.676   0.838  0.00  0.00    +0.045 A 
ATOM     31  C   UNL     1       4.465   0.517   1.097  0.00  0.00    +0.004 A 
ATOM     32  C   UNL     1       5.495   0.131   0.259  0.00  0.00    +0.000 A 
ATOM     33  C   UNL     1       5.818   0.901  -0.843  0.00  0.00    +0.004 A 
ATOM     34  C   UNL     1       5.112   2.058  -1.110  0.00  0.00    +0.045 A 
ENDBRANCH  28  29
ENDBRANCH  18  28
ENDBRANCH   1  18
TORSDOF 8
