REMARK  Name = ZINC27664174
REMARK  6 active torsions:
REMARK  status: ('A' for Active; 'I' for Inactive)
REMARK    1  A    between atoms: C_1  and  C_2
REMARK    2  A    between atoms: C_5  and  N_9
REMARK    3  A    between atoms: C_7  and  C_8
REMARK    4  A    between atoms: C_10  and  C_12
REMARK    5  A    between atoms: C_12  and  C_13
REMARK    6  A    between atoms: C_25  and  C_27
REMARK                            x       y       z     vdW  Elec       q    Type
REMARK                         _______ _______ _______ _____ _____    ______ ____
ROOT
ATOM      1  C   UNL     1      -1.302   3.212  -0.803  0.00  0.00    +0.176 C 
ATOM      2  C   UNL     1       0.134   3.613  -0.586  0.00  0.00    +0.239 C 
ATOM      3  O   UNL     1       0.441   4.786  -0.624  0.00  0.00    -0.273 OA
ATOM      4  N   UNL     1       1.081   2.685  -0.351  0.00  0.00    -0.282 N 
ATOM      5  C   UNL     1       0.745   1.330  -0.252  0.00  0.00    +0.055 A 
ATOM      6  C   UNL     1       1.724   0.351  -0.300  0.00  0.00    +0.025 A 
ATOM      7  C   UNL     1       1.371  -0.981  -0.191  0.00  0.00    +0.002 A 
ATOM      8  C   UNL     1       0.046  -1.343  -0.034  0.00  0.00    +0.002 A 
ATOM      9  C   UNL     1      -0.939  -0.373   0.013  0.00  0.00    +0.025 A 
ATOM     10  C   UNL     1      -0.593   0.962  -0.098  0.00  0.00    +0.059 A 
ATOM     11  N   UNL     1      -1.570   1.969  -0.064  0.00  0.00    -0.251 N 
ATOM     12  C   UNL     1      -2.716   1.802   0.624  0.00  0.00    +0.287 C 
ATOM     13  O   UNL     1      -2.911   0.772   1.242  0.00  0.00    -0.266 OA
ATOM     14  H   UNL     1       2.132   2.989  -0.234  0.00  0.00    +0.155 HD
ENDROOT
BRANCH  12  15
ATOM     15  C   UNL     1      -3.729   2.863   0.629  0.00  0.00    +0.190 A 
ATOM     16  C   UNL     1      -4.927   2.825   1.284  0.00  0.00    +0.054 A 
ATOM     17  C   UNL     1      -5.570   4.044   1.018  0.00  0.00    +0.042 A 
ATOM     18  C   UNL     1      -4.751   4.759   0.216  0.00  0.00    +0.196 A 
ATOM     19  O   UNL     1      -3.643   4.044  -0.016  0.00  0.00    -0.458 OA
ENDBRANCH  12  15
BRANCH   1  20
ATOM     20  C   UNL     1      -1.550   2.983  -2.296  0.00  0.00    +0.128 C 
BRANCH  20  22
ATOM     21  N   UNL     1      -3.400   2.206  -3.742  0.00  0.00    -0.285 N 
ATOM     22  C   UNL     1      -2.964   2.505  -2.502  0.00  0.00    +0.219 C 
ATOM     23  O   UNL     1      -3.710   2.389  -1.553  0.00  0.00    -0.275 OA
ATOM     24  H   UNL     1      -2.707   2.254  -4.595  0.00  0.00    +0.155 HD
BRANCH  21  29
ATOM     25  C   UNL     1      -8.808   0.699  -4.562  0.00  0.00    +0.044 C 
ATOM     26  C   UNL     1      -7.371   1.100  -4.344  0.00  0.00    -0.047 A 
ATOM     27  C   UNL     1      -6.717   0.720  -3.186  0.00  0.00    +0.005 A 
ATOM     28  C   UNL     1      -5.399   1.080  -2.986  0.00  0.00    +0.023 A 
ATOM     29  C   UNL     1      -4.734   1.834  -3.945  0.00  0.00    +0.034 A 
ATOM     30  C   UNL     1      -5.393   2.214  -5.106  0.00  0.00    +0.027 A 
ATOM     31  C   UNL     1      -6.710   1.845  -5.303  0.00  0.00    -0.046 A 
ATOM     32  C   UNL     1      -7.427   2.256  -6.563  0.00  0.00    +0.044 C 
ENDBRANCH  21  29
ENDBRANCH  20  22
ENDBRANCH   1  20
TORSDOF 4
