REMARK  Name = ZINC39709157
REMARK  6 active torsions:
REMARK  status: ('A' for Active; 'I' for Inactive)
REMARK    1  A    between atoms: C_4  and  C_7
REMARK    2  A    between atoms: C_9  and  C_17
REMARK    3  A    between atoms: C_17  and  C_19
REMARK    4  A    between atoms: C_19  and  S_20
REMARK    5  A    between atoms: S_20  and  C_21
REMARK    6  A    between atoms: C_26  and  N_28
REMARK                            x       y       z     vdW  Elec       q    Type
REMARK                         _______ _______ _______ _____ _____    ______ ____
ROOT
ATOM      1  C   UNL     1       3.711  -0.707  -0.038  0.00  0.00    +0.144 C 
ATOM      2  C   UNL     1       4.049  -1.204   1.351  0.00  0.00    +0.031 C 
ATOM      3  C   UNL     1       4.122  -2.581   1.246  0.00  0.00    +0.007 A 
ATOM      4  C   UNL     1       4.398  -3.604   2.183  0.00  0.00    +0.010 A 
ATOM      5  C   UNL     1       4.405  -4.899   1.795  0.00  0.00    +0.001 A 
ATOM      6  C   UNL     1       4.143  -5.291   0.472  0.00  0.00    +0.002 A 
ATOM      7  C   UNL     1       3.868  -4.394  -0.498  0.00  0.00    +0.026 A 
ATOM      8  C   UNL     1       3.841  -2.961  -0.161  0.00  0.00    +0.044 A 
ATOM      9  N   UNL     1       3.611  -1.900  -0.884  0.00  0.00    -0.373 N 
ATOM     10  H   UNL     1       3.405  -1.900  -1.831  0.00  0.00    +0.161 HD
ENDROOT
BRANCH   1  14
ATOM     11  C   UNL     1      -0.017   1.378   0.010  0.00  0.00    +0.000 A 
ATOM     12  C   UNL     1       1.171   2.086   0.002  0.00  0.00    +0.000 A 
ATOM     13  C   UNL     1       2.377   1.411  -0.013  0.00  0.00    +0.006 A 
ATOM     14  C   UNL     1       2.396   0.029  -0.020  0.00  0.00    -0.021 A 
ATOM     15  C   UNL     1       1.208  -0.679  -0.012  0.00  0.00    +0.006 A 
ATOM     16  C   UNL     1       0.002  -0.004   0.002  0.00  0.00    +0.000 A 
ENDBRANCH   1  14
BRANCH   2  17
ATOM     17  C   UNL     1       4.247  -0.425   2.511  0.00  0.00    +0.172 C 
ATOM     18  O   UNL     1       4.150   0.784   2.454  0.00  0.00    -0.291 OA
BRANCH  17  19
ATOM     19  C   UNL     1       4.579  -1.093   3.820  0.00  0.00    +0.156 C 
BRANCH  19  20
ATOM     20  S   UNL     1       4.772   0.166   5.111  0.00  0.00    -0.080 S 
BRANCH  20  21
ATOM     21  C   UNL     1       5.153  -0.762   6.559  0.00  0.00    +0.171 A 
ATOM     22  N   UNL     1       5.358  -0.108   7.737  0.00  0.00    -0.302 N 
ATOM     23  C   UNL     1       5.650  -0.803   8.856  0.00  0.00    +0.254 A 
ATOM     24  O   UNL     1       5.835  -0.225   9.915  0.00  0.00    -0.268 OA
ATOM     25  C   UNL     1       5.738  -2.197   8.781  0.00  0.00    +0.113 A 
ATOM     26  C   UNL     1       5.520  -2.815   7.558  0.00  0.00    +0.124 A 
ATOM     27  N   UNL     1       5.228  -2.075   6.483  0.00  0.00    -0.209 NA
ATOM     28  H   UNL     1       5.294   0.859   7.770  0.00  0.00    +0.171 HD
BRANCH  26  29
ATOM     29  N   UNL     1       5.599  -4.189   7.453  0.00  0.00    -0.343 N 
ATOM     30  H   UNL     1       5.807  -4.725   8.235  0.00  0.00    +0.144 HD
ATOM     31  H   UNL     1       5.447  -4.620   6.597  0.00  0.00    +0.144 HD
ENDBRANCH  26  29
ENDBRANCH  20  21
ENDBRANCH  19  20
ENDBRANCH  17  19
ENDBRANCH   2  17
TORSDOF 6
