REMARK  Name = ZINC53491167
REMARK  7 active torsions:
REMARK  status: ('A' for Active; 'I' for Inactive)
REMARK    1  A    between atoms: C_1  and  C_2
REMARK    2  A    between atoms: C_2  and  C_3
REMARK    3  A    between atoms: C_3  and  C_4
REMARK    4  A    between atoms: C_7  and  C_10
REMARK    5  A    between atoms: C_10  and  C_12
REMARK    6  A    between atoms: C_10  and  N_17
REMARK    7  A    between atoms: C_23  and  C_26
REMARK                            x       y       z     vdW  Elec       q    Type
REMARK                         _______ _______ _______ _____ _____    ______ ____
ROOT
ATOM      1  C   UNL     1      -1.354  -6.311  -0.020  0.00  0.00    +0.142 C 
ENDROOT
BRANCH   1   2
ATOM      2  N   UNL     1      -0.455  -6.794   1.031  0.00  0.00    -0.288 N 
ATOM      3  C   UNL     1       0.119  -8.008   0.921  0.00  0.00    +0.303 C 
ATOM      4  O   UNL     1      -0.179  -8.741  -0.002  0.00  0.00    -0.253 OA
ATOM      5  N   UNL     1       1.024  -8.411   1.835  0.00  0.00    -0.286 N 
ATOM      6  C   UNL     1       1.309  -7.589   3.019  0.00  0.00    +0.110 C 
ATOM      7  C   UNL     1       2.819  -7.342   3.096  0.00  0.00    +0.032 C 
ATOM      8  C   UNL     1       3.553  -8.685   3.071  0.00  0.00    +0.078 C 
ATOM      9  C   UNL     1       3.249  -9.411   1.759  0.00  0.00    +0.032 C 
ATOM     10  C   UNL     1       1.740  -9.684   1.670  0.00  0.00    +0.110 C 
ATOM     11  H   UNL     1      -0.273  -6.240   1.806  0.00  0.00    +0.151 HD
BRANCH   8  12
ATOM     12  C   UNL     1       5.038  -8.447   3.181  0.00  0.00    +0.214 C 
ATOM     13  O   UNL     1       5.466  -7.316   3.270  0.00  0.00    -0.276 OA
ATOM     14  N   UNL     1       5.889  -9.492   3.180  0.00  0.00    -0.329 N 
ATOM     15  H   UNL     1       5.546 -10.397   3.109  0.00  0.00    +0.145 HD
ATOM     16  H   UNL     1       6.844  -9.340   3.251  0.00  0.00    +0.145 HD
ENDBRANCH   8  12
ENDBRANCH   1   2
BRANCH   1  20
ATOM     17  C   UNL     1      -1.408  -2.039   0.003  0.00  0.00    -0.047 A 
ATOM     18  C   UNL     1      -1.404  -2.724  -1.198  0.00  0.00    +0.004 A 
ATOM     19  C   UNL     1      -1.386  -4.106  -1.205  0.00  0.00    +0.006 A 
ATOM     20  C   UNL     1      -1.372  -4.804  -0.012  0.00  0.00    -0.022 A 
ATOM     21  C   UNL     1      -1.375  -4.119   1.189  0.00  0.00    +0.006 A 
ATOM     22  C   UNL     1      -1.389  -2.737   1.196  0.00  0.00    +0.004 A 
BRANCH  17  23
ATOM     23  C   UNL     1      -1.428  -0.533   0.011  0.00  0.00    +0.035 C 
BRANCH  23  25
ATOM     24  C   UNL     1      -0.012   1.526   0.010  0.00  0.00    +0.004 C 
ATOM     25  C   UNL     1       0.008  -0.004   0.002  0.00  0.00    +0.001 C 
ENDBRANCH  23  25
ENDBRANCH  17  23
ENDBRANCH   1  20
BRANCH   1  26
ATOM     26  C   UNL     1      -2.745  -6.832   0.230  0.00  0.00    +0.014 A 
ATOM     27  C   UNL     1      -3.655  -7.300  -0.659  0.00  0.00    +0.013 A 
ATOM     28  C   UNL     1      -4.884  -7.731  -0.197  0.00  0.00    +0.008 A 
ATOM     29  C   UNL     1      -5.144  -7.673   1.132  0.00  0.00    +0.045 A 
ATOM     30  S   UNL     1      -3.622  -6.999   1.777  0.00  0.00    -0.099 S 
ENDBRANCH   1  26
TORSDOF 6
