REMARK  Name = ZINC36573144
REMARK  12 active torsions:
REMARK  status: ('A' for Active; 'I' for Inactive)
REMARK    1  A    between atoms: C_1  and  C_2
REMARK    2  A    between atoms: C_2  and  C_3
REMARK    3  A    between atoms: C_3  and  N_4
REMARK    4  A    between atoms: N_4  and  C_5
REMARK    5  A    between atoms: C_5  and  C_7
REMARK    6  A    between atoms: C_5  and  C_16
REMARK    7  A    between atoms: C_10  and  N_13
REMARK    8  A    between atoms: N_18  and  C_19
REMARK    9  A    between atoms: C_25  and  C_27
REMARK   10  A    between atoms: C_27  and  C_28
REMARK   11  A    between atoms: C_27  and  C_34
REMARK   12  A    between atoms: C_27  and  O_40
REMARK                            x       y       z     vdW  Elec       q    Type
REMARK                         _______ _______ _______ _____ _____    ______ ____
ROOT
ATOM      1  N   UNL     1      -0.366  -1.729   0.309  0.00  0.00    -0.283 N 
ATOM      2  C   UNL     1      -0.342  -2.503  -0.794  0.00  0.00    +0.257 C 
ATOM      3  O   UNL     1      -0.033  -3.673  -0.706  0.00  0.00    -0.272 OA
ENDROOT
BRANCH   1   4
ATOM      4  C   UNL     1      -0.690  -0.304   0.196  0.00  0.00    +0.109 C 
BRANCH   4   6
ATOM      5  C   UNL     1      -2.540   1.373   0.291  0.00  0.00    +0.005 C 
ATOM      6  C   UNL     1      -2.208  -0.120   0.258  0.00  0.00    +0.016 C 
ENDBRANCH   4   6
ENDBRANCH   1   4
BRANCH   1   7
ATOM      7  C   UNL     1      -0.069  -2.311   1.620  0.00  0.00    +0.192 C 
BRANCH   7   8
ATOM      8  C   UNL     1       1.397  -2.651   1.698  0.00  0.00    -0.018 A 
ATOM      9  C   UNL     1       2.343  -1.735   1.276  0.00  0.00    +0.008 A 
ATOM     10  C   UNL     1       3.688  -2.047   1.347  0.00  0.00    +0.033 A 
ATOM     11  C   UNL     1       4.087  -3.275   1.841  0.00  0.00    +0.126 A 
ATOM     12  C   UNL     1       3.142  -4.191   2.263  0.00  0.00    +0.033 A 
ATOM     13  C   UNL     1       1.797  -3.877   2.196  0.00  0.00    +0.008 A 
BRANCH  11  14
ATOM     14  N   UNL     1       5.527  -3.610   1.916  0.00  0.00    +0.056 N 
ATOM     15  O   UNL     1       6.354  -2.809   1.546  0.00  0.00    -0.126 OA
ATOM     16  O   UNL     1       5.876  -4.684   2.347  0.00  0.00    -0.126 OA
ENDBRANCH  11  14
ENDBRANCH   7   8
BRANCH   7  17
ATOM     17  C   UNL     1      -0.412  -1.317   2.700  0.00  0.00    +0.238 C 
ATOM     18  O   UNL     1      -1.144  -0.383   2.454  0.00  0.00    -0.273 OA
ATOM     19  N   UNL     1       0.096  -1.468   3.940  0.00  0.00    -0.311 N 
ATOM     20  H   UNL     1       0.682  -2.215   4.136  0.00  0.00    +0.149 HD
BRANCH  19  21
ATOM     21  C   UNL     1      -0.238  -0.502   4.990  0.00  0.00    +0.073 C 
ATOM     22  C   UNL     1       0.713   0.693   4.904  0.00  0.00    +0.022 C 
ATOM     23  C   UNL     1       0.365   1.702   6.001  0.00  0.00    +0.002 C 
ATOM     24  C   UNL     1       0.506   1.034   7.371  0.00  0.00    +0.000 C 
ATOM     25  C   UNL     1      -0.445  -0.161   7.456  0.00  0.00    +0.002 C 
ATOM     26  C   UNL     1      -0.097  -1.169   6.359  0.00  0.00    +0.022 C 
ENDBRANCH  19  21
ENDBRANCH   7  17
ENDBRANCH   1   7
BRANCH   2  27
ATOM     27  C   UNL     1      -0.697  -1.916  -2.135  0.00  0.00    +0.192 C 
BRANCH  27  28
ATOM     28  C   UNL     1      -0.198  -2.825  -3.229  0.00  0.00    -0.003 A 
ATOM     29  C   UNL     1      -0.633  -4.136  -3.291  0.00  0.00    +0.007 A 
ATOM     30  C   UNL     1      -0.175  -4.969  -4.294  0.00  0.00    +0.000 A 
ATOM     31  C   UNL     1       0.716  -4.491  -5.237  0.00  0.00    +0.000 A 
ATOM     32  C   UNL     1       1.150  -3.180  -5.176  0.00  0.00    +0.000 A 
ATOM     33  C   UNL     1       0.689  -2.346  -4.175  0.00  0.00    +0.007 A 
ENDBRANCH  27  28
BRANCH  27  34
ATOM     34  C   UNL     1      -2.194  -1.776  -2.242  0.00  0.00    -0.003 A 
ATOM     35  C   UNL     1      -3.020  -2.654  -1.565  0.00  0.00    +0.007 A 
ATOM     36  C   UNL     1      -4.393  -2.525  -1.662  0.00  0.00    +0.000 A 
ATOM     37  C   UNL     1      -4.939  -1.519  -2.437  0.00  0.00    +0.000 A 
ATOM     38  C   UNL     1      -4.113  -0.641  -3.113  0.00  0.00    +0.000 A 
ATOM     39  C   UNL     1      -2.740  -0.767  -3.012  0.00  0.00    +0.007 A 
ENDBRANCH  27  34
BRANCH  27  40
ATOM     40  O   UNL     1      -0.088  -0.631  -2.269  0.00  0.00    -0.371 OA
ATOM     41  H   UNL     1       0.879  -0.652  -2.275  0.00  0.00    +0.212 HD
ENDBRANCH  27  40
ENDBRANCH   2  27
TORSDOF 11
