REMARK  Name = ZINC62342704
REMARK  8 active torsions:
REMARK  status: ('A' for Active; 'I' for Inactive)
REMARK    1  A    between atoms: C_1  and  C_2
REMARK    2  A    between atoms: C_2  and  C_3
REMARK    3  A    between atoms: C_3  and  C_4
REMARK    4  A    between atoms: C_4  and  N_5
REMARK    5  A    between atoms: N_5  and  C_6
REMARK    6  A    between atoms: N_5  and  C_7
REMARK    7  A    between atoms: C_7  and  C_8
REMARK    8  A    between atoms: C_8  and  C_10
REMARK                            x       y       z     vdW  Elec       q    Type
REMARK                         _______ _______ _______ _____ _____    ______ ____
ROOT
ATOM      1  C   UNL     1       2.021  -4.491   3.780  0.00  0.00    +0.094 C 
ATOM      2 CL   UNL     1       1.137  -3.786   5.184  0.00  0.00    -0.119 Cl
ENDROOT
BRANCH   1   3
ATOM      3  C   UNL     1       1.936  -5.995   3.836  0.00  0.00    -0.028 A 
ATOM      4  C   UNL     1       0.701  -6.614   3.901  0.00  0.00    +0.009 A 
ATOM      5  C   UNL     1       0.619  -7.992   3.954  0.00  0.00    +0.050 A 
ATOM      6  C   UNL     1       1.775  -8.759   3.942  0.00  0.00    +0.162 A 
ATOM      7  C   UNL     1       3.016  -8.136   3.874  0.00  0.00    +0.162 A 
ATOM      8  C   UNL     1       3.091  -6.753   3.817  0.00  0.00    +0.054 A 
ATOM      9  O   UNL     1       4.162  -8.869   3.853  0.00  0.00    -0.485 OA
ATOM     10  C   UNL     1       4.063 -10.232   4.281  0.00  0.00    +0.270 C 
ATOM     11  C   UNL     1       2.836 -10.860   3.606  0.00  0.00    +0.270 C 
ATOM     12  O   UNL     1       1.678 -10.115   3.999  0.00  0.00    -0.485 OA
ENDBRANCH   1   3
BRANCH   1  13
ATOM     13  C   UNL     1       1.390  -3.993   2.478  0.00  0.00    -0.055 C 
BRANCH  13  14
ATOM     14  N   UNL     1       1.473  -2.527   2.423  0.00  0.00    +0.379 N 
ATOM     15  C   UNL     1       2.883  -2.119   2.353  0.00  0.00    -0.096 C 
ATOM     16  H   UNL     1       1.050  -2.135   3.251  0.00  0.00    -0.082 HD
BRANCH  14  17
ATOM     17  C   UNL     1       0.763  -2.041   1.233  0.00  0.00    -0.079 C 
BRANCH  17  18
ATOM     18  C   UNL     1       0.742  -0.511   1.242  0.00  0.00    -0.019 C 
BRANCH  18  20
ATOM     19  C   UNL     1      -0.019   1.526   0.010  0.00  0.00    +0.004 C 
ATOM     20  C   UNL     1       0.002  -0.004   0.002  0.00  0.00    -0.005 C 
ENDBRANCH  18  20
ENDBRANCH  17  18
ENDBRANCH  14  17
ENDBRANCH  13  14
ENDBRANCH   1  13
TORSDOF 6
