REMARK  Name = ZINC39530976
REMARK  10 active torsions:
REMARK  status: ('A' for Active; 'I' for Inactive)
REMARK    1  A    between atoms: C_4  and  C_7
REMARK    2  A    between atoms: C_7  and  C_8
REMARK    3  A    between atoms: C_11  and  C_14
REMARK    4  A    between atoms: C_14  and  C_16
REMARK    5  A    between atoms: C_14  and  N_25
REMARK    6  A    between atoms: C_16  and  N_17
REMARK    7  A    between atoms: N_17  and  C_18
REMARK    8  A    between atoms: C_23  and  O_24
REMARK    9  A    between atoms: C_29  and  C_32
REMARK   10  A    between atoms: C_32  and  C_33
REMARK                            x       y       z     vdW  Elec       q    Type
REMARK                         _______ _______ _______ _____ _____    ______ ____
ROOT
ATOM      1  C   UNL     1       5.466  -1.672   5.335  0.00  0.00    -0.021 C 
ENDROOT
BRANCH   1   2
ATOM      2  N   UNL     1       5.721  -3.118   5.376  0.00  0.00    +0.383 N 
ATOM      3  C   UNL     1       6.014  -3.525   6.757  0.00  0.00    -0.097 C 
ATOM      4  C   UNL     1       6.279  -5.031   6.799  0.00  0.00    -0.101 C 
ATOM      5  N   UNL     1       7.427  -5.351   5.940  0.00  0.00    +0.379 N 
ATOM      6  C   UNL     1       7.133  -4.944   4.559  0.00  0.00    -0.085 C 
ATOM      7  C   UNL     1       6.868  -3.438   4.516  0.00  0.00    -0.094 C 
ATOM      8  H   UNL     1       8.242  -4.857   6.270  0.00  0.00    -0.086 HD
ATOM      9  H   UNL     1       7.602  -6.345   5.968  0.00  0.00    -0.086 HD
ATOM     10  H   UNL     1       4.905  -3.613   5.046  0.00  0.00    -0.081 HD
BRANCH   6  11
ATOM     11  C   UNL     1       8.329  -5.278   3.664  0.00  0.00    +0.017 C 
BRANCH  11  12
ATOM     12  C   UNL     1       8.514  -6.772   3.609  0.00  0.00    -0.049 A 
ATOM     13  C   UNL     1       9.320  -7.404   4.537  0.00  0.00    +0.003 A 
ATOM     14  C   UNL     1       9.490  -8.775   4.486  0.00  0.00    +0.000 A 
ATOM     15  C   UNL     1       8.853  -9.514   3.507  0.00  0.00    +0.000 A 
ATOM     16  C   UNL     1       8.045  -8.883   2.580  0.00  0.00    +0.000 A 
ATOM     17  C   UNL     1       7.872  -7.512   2.633  0.00  0.00    +0.003 A 
ENDBRANCH  11  12
ENDBRANCH   6  11
ENDBRANCH   1   2
BRANCH   1  21
ATOM     18  C   UNL     1       4.726  -0.472   1.303  0.00  0.00    -0.043 A 
ATOM     19  C   UNL     1       5.484   0.330   2.135  0.00  0.00    +0.004 A 
ATOM     20  C   UNL     1       5.724  -0.058   3.439  0.00  0.00    +0.002 A 
ATOM     21  C   UNL     1       5.204  -1.248   3.913  0.00  0.00    -0.059 A 
ATOM     22  C   UNL     1       4.445  -2.050   3.081  0.00  0.00    +0.002 A 
ATOM     23  C   UNL     1       4.201  -1.659   1.778  0.00  0.00    +0.004 A 
BRANCH  18  24
ATOM     24  C   UNL     1       4.464  -0.048  -0.120  0.00  0.00    +0.070 C 
BRANCH  24  28
ATOM     25  C   UNL     1       0.895   2.293  -0.278  0.00  0.00    +0.000 A 
ATOM     26  C   UNL     1       2.116   2.908  -0.074  0.00  0.00    +0.000 A 
ATOM     27  C   UNL     1       3.271   2.150  -0.022  0.00  0.00    +0.004 A 
ATOM     28  C   UNL     1       3.205   0.778  -0.175  0.00  0.00    -0.043 A 
ATOM     29  C   UNL     1       1.984   0.163  -0.378  0.00  0.00    +0.004 A 
ATOM     30  C   UNL     1       0.829   0.921  -0.431  0.00  0.00    +0.000 A 
ENDBRANCH  24  28
ENDBRANCH  18  24
ENDBRANCH   1  21
BRANCH   1  31
ATOM     31  C   UNL     1       4.246  -1.344   6.198  0.00  0.00    +0.091 C 
BRANCH  31  32
ATOM     32  N   UNL     1       4.042   0.106   6.224  0.00  0.00    -0.342 N 
ATOM     33  H   UNL     1       4.608   0.685   5.690  0.00  0.00    +0.146 HD
BRANCH  32  34
ATOM     34  C   UNL     1       3.031   0.656   7.020  0.00  0.00    +0.069 A 
ATOM     35  C   UNL     1       2.224  -0.170   7.790  0.00  0.00    +0.026 A 
ATOM     36  C   UNL     1       1.227   0.376   8.575  0.00  0.00    +0.002 A 
ATOM     37  C   UNL     1       1.030   1.744   8.597  0.00  0.00    +0.004 A 
ATOM     38  C   UNL     1       1.830   2.574   7.832  0.00  0.00    +0.047 A 
ATOM     39  C   UNL     1       2.835   2.035   7.047  0.00  0.00    +0.138 A 
BRANCH  39  40
ATOM     40  O   UNL     1       3.626   2.850   6.298  0.00  0.00    -0.505 OA
ATOM     41  H   UNL     1       3.287   3.019   5.408  0.00  0.00    +0.292 HD
ENDBRANCH  39  40
ENDBRANCH  32  34
ENDBRANCH  31  32
ENDBRANCH   1  31
TORSDOF 10
