REMARK  Name = ZINC67286342
REMARK  11 active torsions:
REMARK  status: ('A' for Active; 'I' for Inactive)
REMARK    1  A    between atoms: C_1  and  C_2
REMARK    2  A    between atoms: C_2  and  O_3
REMARK    3  A    between atoms: O_3  and  C_4
REMARK    4  A    between atoms: C_4  and  C_6
REMARK    5  A    between atoms: C_7  and  C_23
REMARK    6  A    between atoms: C_12  and  C_14
REMARK    7  A    between atoms: C_17  and  N_20
REMARK    8  A    between atoms: C_23  and  N_24
REMARK    9  A    between atoms: N_27  and  C_30
REMARK   10  A    between atoms: C_33  and  C_37
REMARK   11  A    between atoms: C_35  and  C_36
REMARK                            x       y       z     vdW  Elec       q    Type
REMARK                         _______ _______ _______ _____ _____    ______ ____
ROOT
ATOM      1  C   UNL     1      -2.795  -2.407   0.103  0.00  0.00    +0.079 C 
ATOM      2  C   UNL     1      -2.985  -3.731  -0.085  0.00  0.00    +0.038 C 
ATOM      3  N   UNL     1      -4.241  -4.259  -0.163  0.00  0.00    -0.271 N 
ATOM      4  C   UNL     1      -5.360  -3.530  -0.064  0.00  0.00    +0.304 C 
ATOM      5  O   UNL     1      -6.436  -4.090  -0.147  0.00  0.00    -0.252 OA
ATOM      6  N   UNL     1      -5.333  -2.196   0.124  0.00  0.00    -0.288 N 
ATOM      7  C   UNL     1      -4.024  -1.530   0.229  0.00  0.00    +0.144 C 
ATOM      8  H   UNL     1      -4.329  -5.215  -0.299  0.00  0.00    +0.156 HD
ATOM      9  H   UNL     1      -6.156  -1.687   0.193  0.00  0.00    +0.151 HD
ENDROOT
BRANCH   7  10
ATOM     10  C   UNL     1      -3.960  -0.828   1.562  0.00  0.00    -0.022 A 
ATOM     11  C   UNL     1      -4.331  -1.497   2.713  0.00  0.00    +0.008 A 
ATOM     12  C   UNL     1      -4.272  -0.854   3.935  0.00  0.00    +0.033 A 
ATOM     13  C   UNL     1      -3.841   0.458   4.006  0.00  0.00    +0.126 A 
ATOM     14  C   UNL     1      -3.469   1.126   2.855  0.00  0.00    +0.033 A 
ATOM     15  C   UNL     1      -3.524   0.481   1.633  0.00  0.00    +0.008 A 
BRANCH  13  16
ATOM     16  N   UNL     1      -3.779   1.147   5.315  0.00  0.00    +0.056 N 
ATOM     17  O   UNL     1      -4.104   0.562   6.322  0.00  0.00    -0.126 OA
ATOM     18  O   UNL     1      -3.402   2.294   5.377  0.00  0.00    -0.126 OA
ENDBRANCH  13  16
ENDBRANCH   7  10
BRANCH   1  19
ATOM     19  C   UNL     1      -1.494  -1.859   0.185  0.00  0.00    +0.339 C 
ATOM     20  O   UNL     1      -1.008  -1.604   1.272  0.00  0.00    -0.245 OA
BRANCH  19  21
ATOM     21  O   UNL     1      -0.790  -1.618  -0.941  0.00  0.00    -0.462 OA
BRANCH  21  23
ATOM     22  C   UNL     1       1.155  -0.863  -2.159  0.00  0.00    +0.048 C 
ATOM     23  C   UNL     1       0.517  -1.064  -0.783  0.00  0.00    +0.229 C 
ENDBRANCH  21  23
ENDBRANCH  19  21
ENDBRANCH   1  19
BRANCH   2  24
ATOM     24  C   UNL     1      -1.789  -4.640  -0.210  0.00  0.00    +0.136 C 
BRANCH  24  25
ATOM     25  N   UNL     1      -1.770  -5.582   0.917  0.00  0.00    -0.294 NA
ATOM     26  C   UNL     1      -1.552  -4.878   2.188  0.00  0.00    +0.103 C 
ATOM     27  C   UNL     1      -1.719  -5.864   3.349  0.00  0.00    +0.120 C 
ATOM     28  N   UNL     1      -0.834  -7.016   3.116  0.00  0.00    -0.327 N 
ATOM     29  C   UNL     1      -0.899  -7.689   1.810  0.00  0.00    +0.120 C 
ATOM     30  C   UNL     1      -0.764  -6.632   0.709  0.00  0.00    +0.103 C 
BRANCH  28  31
ATOM     31  C   UNL     1       0.045  -7.457   4.107  0.00  0.00    +0.033 A 
ATOM     32  C   UNL     1      -0.364  -8.420   5.022  0.00  0.00    +0.023 A 
ATOM     33  C   UNL     1       0.507  -8.855   6.001  0.00  0.00    +0.005 A 
ATOM     34  C   UNL     1       1.786  -8.333   6.072  0.00  0.00    -0.050 A 
ATOM     35  C   UNL     1       2.196  -7.374   5.163  0.00  0.00    +0.008 A 
ATOM     36  C   UNL     1       1.332  -6.939   4.178  0.00  0.00    -0.029 A 
ATOM     37  C   UNL     1       1.782  -5.900   3.184  0.00  0.00    +0.045 C 
ATOM     38  C   UNL     1       2.734  -8.809   7.141  0.00  0.00    +0.044 C 
ENDBRANCH  28  31
ENDBRANCH  24  25
ENDBRANCH   2  24
TORSDOF 8
