REMARK  Name = ZINC14023866
REMARK  8 active torsions:
REMARK  status: ('A' for Active; 'I' for Inactive)
REMARK    1  A    between atoms: C_1  and  C_2
REMARK    2  A    between atoms: C_5  and  C_24
REMARK    3  A    between atoms: C_6  and  N_8
REMARK    4  A    between atoms: C_9  and  C_11
REMARK    5  A    between atoms: C_11  and  N_20
REMARK    6  A    between atoms: C_12  and  C_13
REMARK    7  A    between atoms: C_18  and  C_19
REMARK    8  A    between atoms: C_21  and  C_23
REMARK                            x       y       z     vdW  Elec       q    Type
REMARK                         _______ _______ _______ _____ _____    ______ ____
ROOT
ATOM      1  C   UNL     1      -2.666  -0.537   0.172  0.00  0.00    +0.097 C 
ATOM      2  C   UNL     1      -2.880   0.688   0.703  0.00  0.00    +0.036 C 
ENDROOT
BRANCH   2   3
ATOM      3  C   UNL     1      -1.761   1.631   0.852  0.00  0.00    -0.020 A 
ATOM      4  C   UNL     1      -0.630   1.515   0.037  0.00  0.00    +0.008 A 
ATOM      5  C   UNL     1       0.412   2.406   0.179  0.00  0.00    +0.001 A 
ATOM      6  C   UNL     1       0.344   3.411   1.129  0.00  0.00    +0.000 A 
ATOM      7  C   UNL     1      -0.769   3.529   1.943  0.00  0.00    +0.004 A 
ATOM      8  C   UNL     1      -1.819   2.645   1.814  0.00  0.00    -0.043 A 
ATOM      9  C   UNL     1      -3.030   2.776   2.702  0.00  0.00    +0.044 C 
ENDBRANCH   2   3
BRANCH   1  10
ATOM     10  N   UNL     1      -1.362  -0.963  -0.101  0.00  0.00    -0.282 N 
ATOM     11  C   UNL     1      -1.023  -1.340  -1.349  0.00  0.00    +0.214 C 
ATOM     12  O   UNL     1      -1.824  -1.231  -2.254  0.00  0.00    -0.276 OA
ATOM     13  C   UNL     1       0.351  -1.896  -1.622  0.00  0.00    +0.109 C 
ATOM     14  H   UNL     1      -0.701  -0.988   0.609  0.00  0.00    +0.155 HD
ENDBRANCH   1  10
BRANCH   1  16
ATOM     15  N   UNL     1      -3.595  -2.618  -0.703  0.00  0.00    -0.280 N 
ATOM     16  C   UNL     1      -3.804  -1.421  -0.119  0.00  0.00    +0.262 C 
ATOM     17  O   UNL     1      -4.934  -1.073   0.167  0.00  0.00    -0.268 OA
ATOM     18  H   UNL     1      -2.690  -2.933  -0.855  0.00  0.00    +0.155 HD
BRANCH  15  24
ATOM     19  C   UNL     1      -8.359  -2.978  -1.861  0.00  0.00    +0.044 C 
ATOM     20  C   UNL     1      -7.004  -3.607  -1.659  0.00  0.00    -0.049 A 
ATOM     21  C   UNL     1      -6.837  -4.965  -1.857  0.00  0.00    +0.004 A 
ATOM     22  C   UNL     1      -5.596  -5.546  -1.672  0.00  0.00    +0.005 A 
ATOM     23  C   UNL     1      -4.518  -4.770  -1.290  0.00  0.00    -0.029 A 
ATOM     24  C   UNL     1      -4.683  -3.406  -1.091  0.00  0.00    +0.037 A 
ATOM     25  C   UNL     1      -5.933  -2.826  -1.272  0.00  0.00    +0.027 A 
ATOM     26  C   UNL     1      -3.166  -5.404  -1.090  0.00  0.00    +0.045 C 
ENDBRANCH  15  24
ENDBRANCH   1  16
TORSDOF 4
