REMARK  Name = ZINC01357356
REMARK  11 active torsions:
REMARK  status: ('A' for Active; 'I' for Inactive)
REMARK    1  A    between atoms: C_1  and  C_2
REMARK    2  A    between atoms: C_6  and  N_9
REMARK    3  A    between atoms: C_7  and  C_8
REMARK    4  A    between atoms: N_9  and  C_10
REMARK    5  A    between atoms: C_10  and  C_12
REMARK    6  A    between atoms: C_10  and  C_17
REMARK    7  A    between atoms: N_19  and  C_20
REMARK    8  A    between atoms: C_20  and  C_21
REMARK    9  A    between atoms: C_24  and  O_27
REMARK   10  A    between atoms: O_27  and  C_28
REMARK   11  A    between atoms: C_29  and  C_31
REMARK                            x       y       z     vdW  Elec       q    Type
REMARK                         _______ _______ _______ _____ _____    ______ ____
ROOT
ATOM      1  C   UNL     1       1.329  -3.151   3.017  0.00  0.00    +0.233 C 
ENDROOT
BRANCH   1   2
ATOM      2  C   UNL     1       1.430  -4.649   3.141  0.00  0.00    +0.135 A 
ATOM      3  C   UNL     1       2.538  -5.383   2.932  0.00  0.00    +0.047 A 
ATOM      4  C   UNL     1       2.184  -6.733   3.157  0.00  0.00    +0.041 A 
ATOM      5  C   UNL     1       0.880  -6.744   3.489  0.00  0.00    +0.195 A 
ATOM      6  O   UNL     1       0.431  -5.478   3.484  0.00  0.00    -0.465 OA
ENDBRANCH   1   2
BRANCH   1   7
ATOM      7  C   UNL     1       1.408  -2.527   4.387  0.00  0.00    +0.242 C 
ATOM      8  O   UNL     1       0.487  -1.854   4.800  0.00  0.00    -0.273 OA
ATOM      9  N   UNL     1       2.500  -2.718   5.153  0.00  0.00    -0.309 N 
ATOM     10  H   UNL     1       3.236  -3.257   4.822  0.00  0.00    +0.149 HD
BRANCH   9  11
ATOM     11  C   UNL     1       2.576  -2.112   6.484  0.00  0.00    +0.139 C 
BRANCH  11  12
ATOM     12  C   UNL     1       3.890  -2.476   7.128  0.00  0.00    -0.030 A 
ATOM     13  C   UNL     1       3.990  -3.624   7.891  0.00  0.00    +0.009 A 
ATOM     14  C   UNL     1       5.192  -3.959   8.482  0.00  0.00    +0.046 A 
ATOM     15  C   UNL     1       6.301  -3.143   8.309  0.00  0.00    +0.120 A 
ATOM     16  C   UNL     1       6.198  -1.992   7.541  0.00  0.00    +0.046 A 
ATOM     17  C   UNL     1       4.994  -1.664   6.948  0.00  0.00    +0.009 A 
BRANCH  15  18
ATOM     18  O   UNL     1       7.485  -3.471   8.889  0.00  0.00    -0.495 OA
ATOM     19  C   UNL     1       8.584  -2.584   8.667  0.00  0.00    +0.277 C 
ENDBRANCH  15  18
ENDBRANCH  11  12
ENDBRANCH   9  11
ENDBRANCH   1   7
BRANCH   1  20
ATOM     20  N   UNL     1       0.053  -2.797   2.392  0.00  0.00    -0.247 N 
ATOM     21  C   UNL     1      -1.107  -3.154   2.979  0.00  0.00    +0.273 C 
ATOM     22  O   UNL     1      -1.093  -3.770   4.028  0.00  0.00    -0.268 OA
BRANCH  20  28
ATOM     23  C   UNL     1      -0.018   1.503   0.010  0.00  0.00    +0.044 C 
ATOM     24  C   UNL     1       0.002  -0.004   0.002  0.00  0.00    -0.046 A 
ATOM     25  C   UNL     1       0.006  -0.688  -1.200  0.00  0.00    +0.004 A 
ATOM     26  C   UNL     1       0.025  -2.071  -1.212  0.00  0.00    +0.002 A 
ATOM     27  C   UNL     1       0.040  -2.773  -0.023  0.00  0.00    +0.024 A 
ATOM     28  C   UNL     1       0.037  -2.089   1.186  0.00  0.00    +0.041 A 
ATOM     29  C   UNL     1       0.023  -0.700   1.194  0.00  0.00    -0.026 A 
ATOM     30  C   UNL     1       0.025   0.046   2.504  0.00  0.00    +0.046 C 
ENDBRANCH  20  28
BRANCH  21  31
ATOM     31  C   UNL     1      -2.392  -2.798   2.350  0.00  0.00    +0.157 A 
ATOM     32  C   UNL     1      -3.617  -3.130   2.902  0.00  0.00    +0.101 A 
ATOM     33  S   UNL     1      -4.689  -2.486   1.781  0.00  0.00    +0.029 S 
ATOM     34  N   UNL     1      -3.636  -1.862   0.724  0.00  0.00    -0.110 NA
ATOM     35  N   UNL     1      -2.474  -2.128   1.207  0.00  0.00    -0.136 NA
ENDBRANCH  21  31
ENDBRANCH   1  20
TORSDOF 8
