REMARK  Name = ZINC39664088
REMARK  12 active torsions:
REMARK  status: ('A' for Active; 'I' for Inactive)
REMARK    1  A    between atoms: C_1  and  C_2
REMARK    2  A    between atoms: C_2  and  C_3
REMARK    3  A    between atoms: C_3  and  C_4
REMARK    4  A    between atoms: C_3  and  C_6
REMARK    5  A    between atoms: C_4  and  C_5
REMARK    6  A    between atoms: C_10  and  C_19
REMARK    7  A    between atoms: N_21  and  C_22
REMARK    8  A    between atoms: C_22  and  C_23
REMARK    9  A    between atoms: C_23  and  C_25
REMARK   10  A    between atoms: C_23  and  N_33
REMARK   11  A    between atoms: C_28  and  O_31
REMARK   12  A    between atoms: O_31  and  C_32
REMARK                            x       y       z     vdW  Elec       q    Type
REMARK                         _______ _______ _______ _____ _____    ______ ____
ROOT
ATOM      1  C   UNL     1       3.866  -3.745  -4.562  0.00  0.00    +0.218 C 
ATOM      2  O   UNL     1       3.126  -3.431  -5.470  0.00  0.00    -0.275 OA
ATOM      3  N   UNL     1       5.109  -4.194  -4.829  0.00  0.00    -0.316 N 
ATOM      4  H   UNL     1       5.701  -4.445  -4.103  0.00  0.00    +0.149 HD
ENDROOT
BRANCH   1   9
ATOM      5  C   UNL     1       0.696  -2.433  -1.042  0.00  0.00    +0.219 C 
ATOM      6  O   UNL     1      -0.115  -3.009  -0.349  0.00  0.00    -0.275 OA
ATOM      7  N   UNL     1       1.346  -3.100  -2.016  0.00  0.00    -0.300 N 
ATOM      8  C   UNL     1       2.299  -2.554  -3.011  0.00  0.00    +0.121 C 
ATOM      9  C   UNL     1       3.397  -3.634  -3.134  0.00  0.00    +0.100 C 
ATOM     10  C   UNL     1       2.715  -4.939  -2.689  0.00  0.00    -0.004 C 
ATOM     11  C   UNL     1       1.275  -4.548  -2.329  0.00  0.00    +0.115 C 
ATOM     12  C   UNL     1       3.422  -5.513  -1.465  0.00  0.00    -0.010 C 
ATOM     13  C   UNL     1       2.762  -6.839  -1.076  0.00  0.00    -0.082 C 
ATOM     14  N   UNL     1       2.848  -7.779  -2.200  0.00  0.00    +0.379 N 
ATOM     15  C   UNL     1       2.088  -7.261  -3.345  0.00  0.00    -0.082 C 
ATOM     16  C   UNL     1       2.719  -5.953  -3.829  0.00  0.00    -0.010 C 
ATOM     17  H   UNL     1       3.814  -7.896  -2.466  0.00  0.00    -0.086 HD
ATOM     18  H   UNL     1       2.467  -8.671  -1.922  0.00  0.00    -0.086 HD
BRANCH   5  19
ATOM     19  C   UNL     1       0.978  -0.970  -0.814  0.00  0.00    +0.075 C 
BRANCH  19  21
ATOM     20  C   UNL     1       0.313   1.353  -1.450  0.00  0.00    +0.004 C 
ATOM     21  C   UNL     1      -0.046  -0.128  -1.579  0.00  0.00    +0.009 C 
ENDBRANCH  19  21
BRANCH  19  22
ATOM     22  C   UNL     1       0.879  -0.658   0.681  0.00  0.00    +0.009 C 
ATOM     23  C   UNL     1       1.995  -1.390   1.429  0.00  0.00    +0.004 C 
ENDBRANCH  19  22
ENDBRANCH   5  19
ENDBRANCH   1   9
BRANCH   3  24
ATOM     24  C   UNL     1       5.565  -4.301  -6.217  0.00  0.00    +0.093 C 
BRANCH  24  25
ATOM     25  C   UNL     1       6.951  -4.950  -6.250  0.00  0.00    -0.020 C 
BRANCH  25  26
ATOM     26  C   UNL     1       6.853  -6.368  -5.747  0.00  0.00    -0.059 A 
ATOM     27  C   UNL     1       6.408  -7.369  -6.590  0.00  0.00    +0.005 A 
ATOM     28  C   UNL     1       6.318  -8.669  -6.132  0.00  0.00    +0.046 A 
ATOM     29  C   UNL     1       6.674  -8.970  -4.826  0.00  0.00    +0.120 A 
ATOM     30  C   UNL     1       7.121  -7.963  -3.982  0.00  0.00    +0.046 A 
ATOM     31  C   UNL     1       7.215  -6.665  -4.447  0.00  0.00    +0.005 A 
BRANCH  29  32
ATOM     32  O   UNL     1       6.586 -10.248  -4.373  0.00  0.00    -0.495 OA
ATOM     33  C   UNL     1       6.970 -10.484  -3.017  0.00  0.00    +0.277 C 
ENDBRANCH  29  32
ENDBRANCH  25  26
BRANCH  25  34
ATOM     34  N   UNL     1       7.458  -4.952  -7.628  0.00  0.00    +0.385 N 
ATOM     35  C   UNL     1       7.712  -3.562  -8.083  0.00  0.00    -0.078 C 
ATOM     36  C   UNL     1       8.723  -3.746  -9.242  0.00  0.00    -0.020 C 
ATOM     37  C   UNL     1       9.616  -4.904  -8.741  0.00  0.00    -0.020 C 
ATOM     38  C   UNL     1       8.766  -5.641  -7.689  0.00  0.00    -0.078 C 
ATOM     39  H   UNL     1       6.798  -5.405  -8.242  0.00  0.00    -0.081 HD
ENDBRANCH  25  34
ENDBRANCH  24  25
ENDBRANCH   3  24
TORSDOF 9
