REMARK  Name = ZINC08996026
REMARK  5 active torsions:
REMARK  status: ('A' for Active; 'I' for Inactive)
REMARK    1  A    between atoms: C_1  and  C_2
REMARK    2  A    between atoms: N_4  and  C_5
REMARK    3  A    between atoms: C_8  and  N_11
REMARK    4  A    between atoms: C_16  and  C_32
REMARK    5  A    between atoms: C_32  and  C_33
REMARK                            x       y       z     vdW  Elec       q    Type
REMARK                         _______ _______ _______ _____ _____    ______ ____
ROOT
ATOM      1  N   UNL     1      -6.567   0.207  -0.980  0.00  0.00    -0.210 N 
ATOM      2  C   UNL     1      -5.718   1.239  -0.662  0.00  0.00    +0.228 C 
ATOM      3  O   UNL     1      -5.948   2.196   0.045  0.00  0.00    -0.275 OA
ATOM      4  C   UNL     1      -4.490   0.930  -1.358  0.00  0.00    +0.074 C 
ATOM      5  C   UNL     1      -3.051   1.255  -1.285  0.00  0.00    -0.053 C 
ATOM      6  C   UNL     1      -3.401  -0.908  -2.293  0.00  0.00    +0.050 C 
ATOM      7  C   UNL     1      -4.461  -0.650  -1.236  0.00  0.00    +0.088 C 
ATOM      8  C   UNL     1      -5.919  -0.852  -1.550  0.00  0.00    +0.229 C 
ATOM      9  O   UNL     1      -6.415  -1.764  -2.177  0.00  0.00    -0.275 OA
ATOM     10  C   UNL     1      -3.972  -1.024  -3.678  0.00  0.00    -0.028 A 
ATOM     11  C   UNL     1      -4.714  -0.180  -4.474  0.00  0.00    +0.004 A 
ATOM     12  C   UNL     1      -5.100  -0.580  -5.741  0.00  0.00    +0.000 A 
ATOM     13  C   UNL     1      -4.738  -1.830  -6.207  0.00  0.00    +0.002 A 
ATOM     14  C   UNL     1      -3.991  -2.678  -5.416  0.00  0.00    +0.023 A 
ATOM     15  C   UNL     1      -3.598  -2.282  -4.140  0.00  0.00    +0.036 A 
ATOM     16  N   UNL     1      -2.848  -2.950  -3.170  0.00  0.00    -0.286 N 
ATOM     17  C   UNL     1      -2.682  -2.210  -2.058  0.00  0.00    +0.211 C 
ATOM     18  O   UNL     1      -2.071  -2.530  -1.060  0.00  0.00    -0.277 OA
ATOM     19  H   UNL     1      -2.489  -3.844  -3.284  0.00  0.00    +0.155 HD
ATOM     20  N   UNL     1      -2.464   0.232  -2.207  0.00  0.00    +0.394 N 
ATOM     21  H   UNL     1      -1.561  -0.089  -1.839  0.00  0.00    -0.083 HD
ATOM     22  H   UNL     1      -2.329   0.641  -3.139  0.00  0.00    -0.083 HD
ENDROOT
BRANCH   1  26
ATOM     23  C   UNL     1     -10.678   0.298  -0.278  0.00  0.00    +0.033 A 
ATOM     24  C   UNL     1      -9.890   1.385   0.074  0.00  0.00    +0.025 A 
ATOM     25  C   UNL     1      -8.529   1.355  -0.158  0.00  0.00    +0.026 A 
ATOM     26  C   UNL     1      -7.949   0.238  -0.744  0.00  0.00    +0.044 A 
ATOM     27  C   UNL     1      -8.739  -0.848  -1.101  0.00  0.00    +0.026 A 
ATOM     28  C   UNL     1     -10.098  -0.820  -0.863  0.00  0.00    +0.025 A 
BRANCH  23  32
ATOM     29  C   UNL     1     -14.215  -0.797   0.407  0.00  0.00    +0.109 C 
ATOM     30  C   UNL     1     -12.714  -0.807   0.271  0.00  0.00    +0.214 C 
ATOM     31  O   UNL     1     -12.096  -1.836   0.444  0.00  0.00    -0.276 OA
ATOM     32  N   UNL     1     -12.058   0.328  -0.043  0.00  0.00    -0.286 N 
ATOM     33  H   UNL     1     -12.543   1.166  -0.106  0.00  0.00    +0.155 HD
ENDBRANCH  23  32
ENDBRANCH   1  26
BRANCH   5  34
ATOM     34  C   UNL     1      -2.523   1.076   0.140  0.00  0.00    +0.022 C 
BRANCH  34  35
ATOM     35  C   UNL     1      -1.088   1.533   0.204  0.00  0.00    -0.024 A 
ATOM     36  C   UNL     1       0.002   0.759   0.083  0.00  0.00    +0.087 A 
ATOM     37  N   UNL     1       1.132   1.524   0.189  0.00  0.00    -0.360 N 
ATOM     38  H   UNL     1       2.040   1.188   0.130  0.00  0.00    +0.165 HD
ATOM     39  C   UNL     1       0.787   2.841   0.392  0.00  0.00    +0.047 A 
ATOM     40  C   UNL     1      -0.618   2.904   0.414  0.00  0.00    +0.003 A 
ATOM     41  C   UNL     1      -1.258   4.130   0.605  0.00  0.00    +0.010 A 
ATOM     42  C   UNL     1      -0.514   5.265   0.771  0.00  0.00    +0.001 A 
ATOM     43  C   UNL     1       0.873   5.208   0.751  0.00  0.00    +0.002 A 
ATOM     44  C   UNL     1       1.524   4.009   0.563  0.00  0.00    +0.026 A 
ENDBRANCH  34  35
ENDBRANCH   5  34
TORSDOF 4
