REMARK  Name = ZINC39491743
REMARK  14 active torsions:
REMARK  status: ('A' for Active; 'I' for Inactive)
REMARK    1  A    between atoms: C_1  and  C_2
REMARK    2  A    between atoms: C_2  and  C_3
REMARK    3  A    between atoms: C_3  and  N_4
REMARK    4  A    between atoms: N_4  and  C_5
REMARK    5  A    between atoms: C_5  and  C_6
REMARK    6  A    between atoms: N_8  and  C_19
REMARK    7  A    between atoms: C_12  and  C_15
REMARK    8  A    between atoms: C_15  and  O_17
REMARK    9  A    between atoms: O_17  and  C_18
REMARK   10  A    between atoms: C_19  and  C_20
REMARK   11  A    between atoms: C_20  and  C_22
REMARK   12  A    between atoms: C_20  and  S_29
REMARK   13  A    between atoms: C_27  and  O_28
REMARK   14  A    between atoms: S_29  and  C_32
REMARK                            x       y       z     vdW  Elec       q    Type
REMARK                         _______ _______ _______ _____ _____    ______ ____
ROOT
ATOM      1  C   UNL     1       1.557  -3.849   2.650  0.00  0.00    -0.039 A 
ATOM      2  C   UNL     1       0.727  -4.697   3.277  0.00  0.00    +0.088 A 
ATOM      3  N   UNL     1       1.040  -5.988   2.947  0.00  0.00    -0.344 N 
ATOM      4  C   UNL     1       2.105  -6.005   2.078  0.00  0.00    +0.049 A 
ATOM      5  C   UNL     1       2.473  -4.665   1.847  0.00  0.00    +0.002 A 
ATOM      6  C   UNL     1       3.532  -4.371   0.992  0.00  0.00    +0.025 A 
ATOM      7  C   UNL     1       4.215  -5.411   0.368  0.00  0.00    +0.060 A 
ATOM      8  C   UNL     1       3.837  -6.741   0.604  0.00  0.00    +0.017 A 
ATOM      9  C   UNL     1       2.806  -7.031   1.447  0.00  0.00    +0.027 A 
ENDROOT
BRANCH   7  10
ATOM     10  C   UNL     1       5.339  -5.115  -0.540  0.00  0.00    +0.339 C 
ATOM     11  O   UNL     1       5.667  -3.963  -0.745  0.00  0.00    -0.245 OA
BRANCH  10  12
ATOM     12  O   UNL     1       6.001  -6.121  -1.144  0.00  0.00    -0.464 OA
ATOM     13  C   UNL     1       7.078  -5.761  -2.011  0.00  0.00    +0.280 C 
ENDBRANCH  10  12
ENDBRANCH   7  10
BRANCH   1  14
ATOM     14  C   UNL     1       1.545  -2.346   2.747  0.00  0.00    -0.045 C 
BRANCH  14  15
ATOM     15  N   UNL     1       0.860  -1.785   1.575  0.00  0.00    +0.382 N 
ATOM     16  H   UNL     1      -0.089  -2.127   1.544  0.00  0.00    -0.085 HD
ATOM     17  H   UNL     1       1.346  -2.063   0.736  0.00  0.00    -0.085 HD
BRANCH  15  18
ATOM     18  C   UNL     1       0.848  -0.319   1.670  0.00  0.00    -0.082 C 
BRANCH  18  20
ATOM     19  C   UNL     1       0.122   1.792   0.548  0.00  0.00    +0.002 C 
ATOM     20  C   UNL     1       0.135   0.266   0.449  0.00  0.00    -0.022 C 
ENDBRANCH  18  20
ENDBRANCH  15  18
ENDBRANCH  14  15
ENDBRANCH   1  14
BRANCH   3  21
ATOM     21  C   UNL     1       0.344  -7.176   3.446  0.00  0.00    +0.153 C 
BRANCH  21  22
ATOM     22  C   UNL     1       1.086  -7.727   4.666  0.00  0.00    +0.189 C 
BRANCH  22  23
ATOM     23  C   UNL     1       0.305  -8.874   5.253  0.00  0.00    +0.020 A 
ATOM     24  C   UNL     1       0.535 -10.164   4.815  0.00  0.00    +0.009 A 
ATOM     25  C   UNL     1      -0.182 -11.216   5.353  0.00  0.00    +0.001 A 
ATOM     26  C   UNL     1      -1.131 -10.981   6.332  0.00  0.00    +0.004 A 
ATOM     27  C   UNL     1      -1.364  -9.693   6.774  0.00  0.00    +0.046 A 
ATOM     28  C   UNL     1      -0.642  -8.636   6.239  0.00  0.00    +0.122 A 
BRANCH  28  29
ATOM     29  O   UNL     1      -0.866  -7.369   6.676  0.00  0.00    -0.506 OA
ATOM     30  H   UNL     1      -1.550  -6.897   6.181  0.00  0.00    +0.292 HD
ENDBRANCH  28  29
ENDBRANCH  22  23
BRANCH  22  31
ATOM     31  S   UNL     1       2.728  -8.310   4.162  0.00  0.00    +0.006 S 
ATOM     32  O   UNL     1       2.605  -9.357   3.209  0.00  0.00    -0.169 OA
ATOM     33  O   UNL     1       3.586  -7.204   3.915  0.00  0.00    -0.169 OA
BRANCH  31  34
ATOM     34  C   UNL     1       3.395  -9.084   5.598  0.00  0.00    +0.089 A 
ATOM     35  C   UNL     1       4.127  -8.342   6.506  0.00  0.00    +0.027 A 
ATOM     36  C   UNL     1       4.649  -8.949   7.632  0.00  0.00    +0.002 A 
ATOM     37  C   UNL     1       4.440 -10.298   7.851  0.00  0.00    +0.000 A 
ATOM     38  C   UNL     1       3.707 -11.039   6.943  0.00  0.00    +0.002 A 
ATOM     39  C   UNL     1       3.180 -10.431   5.819  0.00  0.00    +0.027 A 
ENDBRANCH  31  34
ENDBRANCH  22  31
ENDBRANCH  21  22
ENDBRANCH   3  21
TORSDOF 12
