REMARK  Name = ZINC03658568
REMARK  7 active torsions:
REMARK  status: ('A' for Active; 'I' for Inactive)
REMARK    1  A    between atoms: C_1  and  C_2
REMARK    2  A    between atoms: C_5  and  N_9
REMARK    3  A    between atoms: C_10  and  C_12
REMARK    4  A    between atoms: N_23  and  C_35
REMARK    5  A    between atoms: C_24  and  C_26
REMARK    6  A    between atoms: N_28  and  C_29
REMARK    7  A    between atoms: C_35  and  C_36
REMARK                            x       y       z     vdW  Elec       q    Type
REMARK                         _______ _______ _______ _____ _____    ______ ____
ROOT
ATOM      1  C   UNL     1      -1.528   6.759   1.433  0.00  0.00    +0.123 C 
ATOM      2  C   UNL     1      -0.553   7.971   1.584  0.00  0.00    +0.155 C 
ATOM      3  C   UNL     1      -0.221   8.093   3.075  0.00  0.00    +0.004 C 
ATOM      4  C   UNL     1       0.597   7.079   3.385  0.00  0.00    +0.009 C 
ATOM      5  C   UNL     1       0.727   6.329   2.108  0.00  0.00    +0.127 C 
ATOM      6  C   UNL     1      -0.636   5.581   1.865  0.00  0.00    +0.128 C 
ATOM      7  C   UNL     1      -0.250   4.644   0.756  0.00  0.00    +0.223 C 
ATOM      8  O   UNL     1      -1.011   4.178  -0.066  0.00  0.00    -0.275 OA
ATOM      9  N   UNL     1       1.083   4.398   0.821  0.00  0.00    -0.284 N 
ATOM     10  C   UNL     1       1.724   5.241   1.858  0.00  0.00    +0.198 C 
ATOM     11  O   UNL     1       0.691   7.360   1.085  0.00  0.00    -0.358 OA
ENDROOT
BRANCH   1  13
ATOM     12  N   UNL     1      -3.617   7.880   2.138  0.00  0.00    -0.285 N 
ATOM     13  C   UNL     1      -2.714   6.902   2.351  0.00  0.00    +0.224 C 
ATOM     14  O   UNL     1      -2.856   6.138   3.282  0.00  0.00    -0.275 OA
ATOM     15  H   UNL     1      -3.444   8.626   1.348  0.00  0.00    +0.155 HD
BRANCH  12  20
ATOM     16  C   UNL     1      -8.312   8.145   5.314  0.00  0.00    +0.045 C 
ATOM     17  C   UNL     1      -7.065   8.075   4.470  0.00  0.00    -0.032 A 
ATOM     18  C   UNL     1      -6.509   6.847   4.160  0.00  0.00    +0.006 A 
ATOM     19  C   UNL     1      -5.370   6.779   3.383  0.00  0.00    +0.023 A 
ATOM     20  C   UNL     1      -4.775   7.946   2.921  0.00  0.00    +0.035 A 
ATOM     21  C   UNL     1      -5.334   9.178   3.234  0.00  0.00    +0.043 A 
ATOM     22  C   UNL     1      -6.478   9.239   4.008  0.00  0.00    +0.046 A 
ATOM     23 CL   UNL     1      -7.178  10.779   4.399  0.00  0.00    -0.083 Cl
ENDBRANCH  12  20
ENDBRANCH   1  13
BRANCH  10  24
ATOM     24  C   UNL     1       1.966   4.443   3.113  0.00  0.00    +0.237 C 
ATOM     25  O   UNL     1       1.362   3.408   3.299  0.00  0.00    -0.274 OA
ATOM     26  N   UNL     1       2.853   4.879   4.029  0.00  0.00    -0.311 N 
ATOM     27  H   UNL     1       3.401   5.817   3.860  0.00  0.00    +0.149 HD
BRANCH  26  28
ATOM     28  C   UNL     1       3.088   4.102   5.249  0.00  0.00    +0.073 C 
ATOM     29  C   UNL     1       2.042   4.476   6.300  0.00  0.00    +0.022 C 
ATOM     30  C   UNL     1       2.287   3.665   7.574  0.00  0.00    +0.002 C 
ATOM     31  C   UNL     1       3.685   3.974   8.114  0.00  0.00    +0.000 C 
ATOM     32  C   UNL     1       4.731   3.600   7.062  0.00  0.00    +0.002 C 
ATOM     33  C   UNL     1       4.486   4.411   5.788  0.00  0.00    +0.022 C 
ENDBRANCH  26  28
ENDBRANCH  10  24
BRANCH   9  34
ATOM     34  C   UNL     1       1.793   3.435  -0.025  0.00  0.00    +0.140 C 
BRANCH  34  35
ATOM     35  C   UNL     1       1.809   2.068   0.663  0.00  0.00    +0.136 C 
ATOM     36  C   UNL     1       2.567   1.030  -0.204  0.00  0.00    +0.035 C 
ATOM     37  C   UNL     1       1.951  -0.306   0.278  0.00  0.00    +0.031 C 
ATOM     38  C   UNL     1       0.608   0.104   0.912  0.00  0.00    +0.160 C 
ATOM     39  O   UNL     1       0.474   1.526   0.747  0.00  0.00    -0.375 OA
ENDBRANCH  34  35
ENDBRANCH   9  34
TORSDOF 6
