REMARK  Name = ZINC09433800
REMARK  17 active torsions:
REMARK  status: ('A' for Active; 'I' for Inactive)
REMARK    1  A    between atoms: C_1  and  C_2
REMARK    2  A    between atoms: C_2  and  N_69
REMARK    3  A    between atoms: C_3  and  C_4
REMARK    4  A    between atoms: C_3  and  N_69
REMARK    5  A    between atoms: C_5  and  C_6
REMARK    6  A    between atoms: C_5  and  N_69
REMARK    7  A    between atoms: C_6  and  N_7
REMARK    8  A    between atoms: C_8  and  C_28
REMARK    9  A    between atoms: C_10  and  C_15
REMARK   10  A    between atoms: C_11  and  O_14
REMARK   11  A    between atoms: C_15  and  C_17
REMARK   12  A    between atoms: C_20  and  O_24
REMARK   13  A    between atoms: C_21  and  C_23
REMARK   14  A    between atoms: O_24  and  C_25
REMARK   15  A    between atoms: C_25  and  C_26
REMARK   16  A    between atoms: C_25  and  C_27
REMARK   17  A    between atoms: C_31  and  N_34
REMARK                            x       y       z     vdW  Elec       q    Type
REMARK                         _______ _______ _______ _____ _____    ______ ____
ROOT
ATOM      1  N   UNL     1      -2.185   2.766  -1.758  0.00  0.00    -0.285 N 
ATOM      2  C   UNL     1      -1.681   1.876  -0.706  0.00  0.00    +0.144 C 
ATOM      3  C   UNL     1      -2.712   1.903   0.398  0.00  0.00    +0.071 C 
ATOM      4  C   UNL     1      -3.699   2.735  -0.009  0.00  0.00    +0.188 C 
ATOM      5  C   UNL     1      -3.364   3.266  -1.347  0.00  0.00    +0.282 C 
ATOM      6  O   UNL     1      -4.053   4.040  -1.982  0.00  0.00    -0.267 OA
ENDROOT
BRANCH   2   7
ATOM      7  C   UNL     1      -0.357   2.380  -0.191  0.00  0.00    -0.022 A 
ATOM      8  C   UNL     1       0.675   1.491   0.048  0.00  0.00    +0.008 A 
ATOM      9  C   UNL     1       1.891   1.954   0.515  0.00  0.00    +0.033 A 
ATOM     10  C   UNL     1       2.073   3.304   0.748  0.00  0.00    +0.126 A 
ATOM     11  C   UNL     1       1.040   4.192   0.514  0.00  0.00    +0.033 A 
ATOM     12  C   UNL     1      -0.176   3.729   0.046  0.00  0.00    +0.008 A 
BRANCH  10  13
ATOM     13  N   UNL     1       3.375   3.800   1.248  0.00  0.00    +0.056 N 
ATOM     14  O   UNL     1       4.286   3.018   1.454  0.00  0.00    -0.126 OA
ATOM     15  O   UNL     1       3.536   4.989   1.454  0.00  0.00    -0.126 OA
ENDBRANCH  10  13
ENDBRANCH   2   7
BRANCH   4  16
ATOM     16  O   UNL     1      -4.814   3.034   0.697  0.00  0.00    -0.502 OA
ATOM     17  H   UNL     1      -5.379   3.671   0.173  0.00  0.00    +0.292 HD
ENDBRANCH   4  16
BRANCH   3  18
ATOM     18  C   UNL     1      -2.655   1.169   1.666  0.00  0.00    +0.195 C 
ATOM     19  O   UNL     1      -2.594   1.777   2.719  0.00  0.00    -0.287 OA
BRANCH  18  20
ATOM     20  C   UNL     1      -2.671  -0.307   1.666  0.00  0.00    +0.023 A 
ATOM     21  C   UNL     1      -2.844  -1.006   0.468  0.00  0.00    +0.015 A 
ATOM     22  C   UNL     1      -2.853  -2.383   0.471  0.00  0.00    +0.046 A 
ATOM     23  C   UNL     1      -2.703  -3.078   1.666  0.00  0.00    +0.124 A 
ATOM     24  C   UNL     1      -2.537  -2.386   2.861  0.00  0.00    -0.008 A 
ATOM     25  C   UNL     1      -2.521  -1.010   2.865  0.00  0.00    +0.018 A 
ATOM     26  C   UNL     1      -2.374  -3.145   4.153  0.00  0.00    +0.047 C 
BRANCH  23  27
ATOM     27  O   UNL     1      -2.718  -4.435   1.666  0.00  0.00    -0.489 OA
BRANCH  27  28
ATOM     28  C   UNL     1      -2.975  -5.080   0.418  0.00  0.00    +0.167 C 
ATOM     29  C   UNL     1      -1.666  -5.225  -0.360  0.00  0.00    +0.051 C 
ATOM     30  C   UNL     1      -3.572  -6.466   0.674  0.00  0.00    +0.051 C 
ENDBRANCH  27  28
ENDBRANCH  23  27
ENDBRANCH  18  20
ENDBRANCH   3  18
BRANCH   1  31
ATOM     31  C   UNL     1      -1.521   3.059  -3.031  0.00  0.00    +0.090 C 
BRANCH  31  32
ATOM     32  C   UNL     1      -1.975   2.049  -4.087  0.00  0.00    -0.060 C 
BRANCH  32  33
ATOM     33  N   UNL     1      -1.313   2.370  -5.369  0.00  0.00    +0.380 N 
ATOM     34  H   UNL     1      -1.465   3.362  -5.583  0.00  0.00    -0.082 HD
BRANCH  33  36
ATOM     35  C   UNL     1       0.411   0.632  -5.026  0.00  0.00    -0.017 C 
ATOM     36  C   UNL     1       0.140   2.118  -5.265  0.00  0.00    -0.082 C 
ENDBRANCH  33  36
BRANCH  33  37
ATOM     37  C   UNL     1      -1.891   1.550  -6.455  0.00  0.00    -0.082 C 
ATOM     38  C   UNL     1      -1.446   2.130  -7.799  0.00  0.00    -0.017 C 
ENDBRANCH  33  37
ENDBRANCH  32  33
ENDBRANCH  31  32
ENDBRANCH   1  31
TORSDOF 12
