REMARK  Name = ZINC04631452
REMARK  11 active torsions:
REMARK  status: ('A' for Active; 'I' for Inactive)
REMARK    1  A    between atoms: C_1  and  C_2
REMARK    2  A    between atoms: C_2  and  C_3
REMARK    3  A    between atoms: C_2  and  O_4
REMARK    4  A    between atoms: O_4  and  C_5
REMARK    5  A    between atoms: C_8  and  C_11
REMARK    6  A    between atoms: C_14  and  C_25
REMARK    7  A    between atoms: C_20  and  N_24
REMARK    8  A    between atoms: C_21  and  C_22
REMARK    9  A    between atoms: C_25  and  C_26
REMARK   10  A    between atoms: C_25  and  C_27
REMARK   11  A    between atoms: C_25  and  C_28
REMARK                            x       y       z     vdW  Elec       q    Type
REMARK                         _______ _______ _______ _____ _____    ______ ____
ROOT
ATOM      1  C   UNL     1       6.285  -0.415  -2.093  0.00  0.00    +0.101 C 
ATOM      2  C   UNL     1       7.123   0.803  -2.382  0.00  0.00    +0.050 A 
ATOM      3  C   UNL     1       7.200   2.003  -1.688  0.00  0.00    +0.076 A 
ATOM      4  N   UNL     1       8.061   2.776  -2.305  0.00  0.00    -0.175 NA
ATOM      5  N   UNL     1       8.561   2.084  -3.419  0.00  0.00    -0.246 N 
ATOM      6  H   UNL     1       9.213   2.418  -4.054  0.00  0.00    +0.192 HD
ATOM      7  C   UNL     1       7.975   0.876  -3.450  0.00  0.00    +0.222 A 
ATOM      8  O   UNL     1       8.135  -0.143  -4.330  0.00  0.00    -0.423 OA
ATOM      9  C   UNL     1       7.640  -1.350  -3.985  0.00  0.00    +0.200 C 
ATOM     10  C   UNL     1       6.781  -1.546  -2.959  0.00  0.00    +0.098 C 
ENDROOT
BRANCH   1  14
ATOM     11  C   UNL     1       2.189   0.404  -2.996  0.00  0.00    +0.121 A 
ATOM     12  C   UNL     1       2.520  -0.307  -1.852  0.00  0.00    +0.046 A 
ATOM     13  C   UNL     1       3.844  -0.571  -1.562  0.00  0.00    +0.008 A 
ATOM     14  C   UNL     1       4.841  -0.126  -2.412  0.00  0.00    -0.034 A 
ATOM     15  C   UNL     1       4.514   0.583  -3.553  0.00  0.00    +0.008 A 
ATOM     16  C   UNL     1       3.191   0.844  -3.850  0.00  0.00    +0.046 A 
BRANCH  11  17
ATOM     17  O   UNL     1       0.887   0.665  -3.284  0.00  0.00    -0.489 OA
BRANCH  17  19
ATOM     18  C   UNL     1      -0.299   1.032  -1.210  0.00  0.00    +0.051 C 
ATOM     19  C   UNL     1      -0.095   0.104  -2.410  0.00  0.00    +0.167 C 
ATOM     20  C   UNL     1      -1.417  -0.054  -3.163  0.00  0.00    +0.051 C 
ENDBRANCH  17  19
ENDBRANCH  11  17
ENDBRANCH   1  14
BRANCH   3  21
ATOM     21  C   UNL     1       6.428   2.355  -0.443  0.00  0.00    +0.007 C 
ATOM     22  C   UNL     1       6.644   1.271   0.615  0.00  0.00    +0.017 C 
ATOM     23  C   UNL     1       6.919   3.700   0.098  0.00  0.00    +0.017 C 
ATOM     24  C   UNL     1       4.939   2.453  -0.776  0.00  0.00    +0.017 C 
ENDBRANCH   3  21
BRANCH   9  25
ATOM     25  N   UNL     1       8.030  -2.442  -4.719  0.00  0.00    -0.328 N 
ATOM     26  H   UNL     1       8.644  -2.333  -5.462  0.00  0.00    +0.145 HD
ATOM     27  H   UNL     1       7.691  -3.323  -4.495  0.00  0.00    +0.145 HD
ENDBRANCH   9  25
BRANCH  10  28
ATOM     28  C   UNL     1       6.326  -2.876  -2.684  0.00  0.00    +0.101 C 
ATOM     29  N   UNL     1       5.965  -3.931  -2.466  0.00  0.00    -0.191 NA
ENDBRANCH  10  28
TORSDOF 6
