REMARK  Name = ZINC43365861
REMARK  7 active torsions:
REMARK  status: ('A' for Active; 'I' for Inactive)
REMARK    1  A    between atoms: C_1  and  C_2
REMARK    2  A    between atoms: C_5  and  C_7
REMARK    3  A    between atoms: C_7  and  C_9
REMARK    4  A    between atoms: C_7  and  O_13
REMARK    5  A    between atoms: C_9  and  C_11
REMARK    6  A    between atoms: C_9  and  N_12
REMARK    7  A    between atoms: O_13  and  C_14
REMARK                            x       y       z     vdW  Elec       q    Type
REMARK                         _______ _______ _______ _____ _____    ______ ____
ROOT
ATOM      1  C   UNL     1       1.669  -3.243  -0.045  0.00  0.00    +0.224 C 
ENDROOT
BRANCH   1   6
ATOM      2  C   UNL     1      -0.266   1.396  -0.463  0.00  0.00    +0.086 C 
ATOM      3  C   UNL     1      -0.171  -0.104  -0.348  0.00  0.00    +0.102 A 
ATOM      4  C   UNL     1      -1.209  -0.958  -0.325  0.00  0.00    +0.045 A 
ATOM      5  C   UNL     1      -0.667  -2.259  -0.208  0.00  0.00    +0.049 A 
ATOM      6  C   UNL     1       0.671  -2.121  -0.167  0.00  0.00    +0.144 A 
ATOM      7  O   UNL     1       0.966  -0.814  -0.258  0.00  0.00    -0.461 OA
ENDBRANCH   1   6
BRANCH   1   8
ATOM      8  C   UNL     1       2.046  -3.433   1.426  0.00  0.00    -0.029 C 
ATOM      9  C   UNL     1       0.793  -3.775   2.234  0.00  0.00    -0.010 C 
BRANCH   8  10
ATOM     10  N   UNL     1       3.019  -4.527   1.545  0.00  0.00    +0.382 N 
ATOM     11  H   UNL     1       3.846  -4.301   1.012  0.00  0.00    -0.089 HD
ATOM     12  H   UNL     1       3.268  -4.652   2.515  0.00  0.00    -0.089 HD
ATOM     13  H   UNL     1       2.612  -5.379   1.190  0.00  0.00    -0.089 HD
ENDBRANCH   8  10
ENDBRANCH   1   8
BRANCH   1  14
ATOM     14  O   UNL     1       2.840  -2.924  -0.799  0.00  0.00    -0.483 OA
BRANCH  14  15
ATOM     15  C   UNL     1       3.521  -3.962  -1.350  0.00  0.00    +0.122 A 
ATOM     16  C   UNL     1       3.027  -5.254  -1.240  0.00  0.00    +0.047 A 
ATOM     17  C   UNL     1       3.721  -6.308  -1.801  0.00  0.00    +0.019 A 
ATOM     18  C   UNL     1       4.909  -6.077  -2.472  0.00  0.00    +0.018 A 
ATOM     19  C   UNL     1       5.404  -4.790  -2.583  0.00  0.00    +0.019 A 
ATOM     20  C   UNL     1       4.709  -3.732  -2.029  0.00  0.00    +0.047 A 
ATOM     21 BR   UNL     1       5.857  -7.522  -3.239  0.00  0.00    -0.050 Br
ENDBRANCH  14  15
ENDBRANCH   1  14
TORSDOF 5
