REMARK  Name = ZINC54699385
REMARK  4 active torsions:
REMARK  status: ('A' for Active; 'I' for Inactive)
REMARK    1  A    between atoms: C_1  and  N_2
REMARK    2  A    between atoms: C_3  and  C_13
REMARK    3  A    between atoms: C_5  and  C_7
REMARK    4  A    between atoms: C_14  and  N_20
REMARK                            x       y       z     vdW  Elec       q    Type
REMARK                         _______ _______ _______ _____ _____    ______ ____
ROOT
ATOM      1  C   UNL     1       0.051   1.408   0.023  0.00  0.00    +0.174 C 
ATOM      2  N   UNL     1       0.058  -0.057  -0.004  0.00  0.00    -0.248 N 
ATOM      3  C   UNL     1      -0.054  -0.849  -1.096  0.00  0.00    +0.163 A 
ATOM      4  N   UNL     1      -0.003  -2.103  -0.690  0.00  0.00    -0.211 NA
ATOM      5  C   UNL     1       0.139  -2.141   0.632  0.00  0.00    +0.155 A 
ATOM      6  N   UNL     1       0.187  -0.919   1.096  0.00  0.00    -0.154 NA
ENDROOT
BRANCH   3   7
ATOM      7  C   UNL     1      -0.206  -0.392  -2.492  0.00  0.00    +0.075 A 
ATOM      8  C   UNL     1      -1.226  -0.917  -3.299  0.00  0.00    +0.038 A 
ATOM      9  C   UNL     1      -1.360  -0.480  -4.609  0.00  0.00    +0.023 A 
ATOM     10  C   UNL     1      -0.493   0.469  -5.116  0.00  0.00    +0.005 A 
ATOM     11  C   UNL     1       0.515   0.991  -4.324  0.00  0.00    +0.039 A 
ATOM     12  C   UNL     1       0.660   0.571  -3.015  0.00  0.00    +0.136 A 
ATOM     13  F   UNL     1       1.642   1.088  -2.244  0.00  0.00    -0.205 F 
BRANCH   8  14
ATOM     14  N   UNL     1      -2.099  -1.874  -2.788  0.00  0.00    -0.357 N 
ATOM     15  H   UNL     1      -2.061  -2.113  -1.849  0.00  0.00    +0.142 HD
ATOM     16  H   UNL     1      -2.745  -2.302  -3.372  0.00  0.00    +0.142 HD
ENDBRANCH   8  14
ENDBRANCH   3   7
BRANCH   5  17
ATOM     17  C   UNL     1       0.235  -3.394   1.464  0.00  0.00    +0.059 C 
ATOM     18  C   UNL     1      -0.913  -3.425   2.474  0.00  0.00    +0.011 C 
ATOM     19  C   UNL     1      -0.816  -4.697   3.318  0.00  0.00    +0.001 C 
ATOM     20  C   UNL     1       0.520  -4.714   4.064  0.00  0.00    +0.000 C 
ATOM     21  C   UNL     1       1.668  -4.683   3.053  0.00  0.00    +0.001 C 
ATOM     22  C   UNL     1       1.571  -3.411   2.209  0.00  0.00    +0.011 C 
ENDBRANCH   5  17
TORSDOF 3
