REMARK  Name = ZINC01769472
REMARK  13 active torsions:
REMARK  status: ('A' for Active; 'I' for Inactive)
REMARK    1  A    between atoms: C_1  and  C_2
REMARK    2  A    between atoms: C_2  and  O_3
REMARK    3  A    between atoms: O_3  and  C_4
REMARK    4  A    between atoms: C_4  and  C_6
REMARK    5  A    between atoms: C_7  and  C_32
REMARK    6  A    between atoms: C_10  and  N_11
REMARK    7  A    between atoms: C_12  and  C_14
REMARK    8  A    between atoms: C_14  and  C_30
REMARK    9  A    between atoms: C_15  and  C_16
REMARK   10  A    between atoms: C_19  and  C_21
REMARK   11  A    between atoms: C_24  and  N_27
REMARK   12  A    between atoms: C_35  and  O_38
REMARK   13  A    between atoms: O_38  and  C_39
REMARK                            x       y       z     vdW  Elec       q    Type
REMARK                         _______ _______ _______ _____ _____    ______ ____
ROOT
ATOM      1  N   UNL     1      -1.222  -2.361   2.484  0.00  0.00    -0.275 N 
ATOM      2  C   UNL     1      -1.241  -3.231   3.513  0.00  0.00    +0.259 C 
ATOM      3  O   UNL     1      -1.290  -4.428   3.298  0.00  0.00    -0.269 OA
ATOM      4  H   UNL     1      -1.182  -1.407   2.656  0.00  0.00    +0.156 HD
ENDROOT
BRANCH   1   9
ATOM      5  C   UNL     1      -1.248  -2.094   0.003  0.00  0.00    +0.095 A 
ATOM      6  C   UNL     1      -1.290  -2.848  -1.236  0.00  0.00    +0.005 A 
ATOM      7  C   UNL     1      -1.341  -4.200  -1.127  0.00  0.00    +0.056 A 
ATOM      8  S   UNL     1      -1.334  -4.469   0.633  0.00  0.00    -0.080 S 
ATOM      9  C   UNL     1      -1.259  -2.829   1.182  0.00  0.00    +0.087 A 
BRANCH   6  10
ATOM     10  C   UNL     1      -1.277  -2.175  -2.557  0.00  0.00    -0.016 A 
ATOM     11  C   UNL     1      -2.168  -1.135  -2.820  0.00  0.00    +0.012 A 
ATOM     12  C   UNL     1      -2.150  -0.508  -4.048  0.00  0.00    +0.046 A 
ATOM     13  C   UNL     1      -1.253  -0.917  -5.025  0.00  0.00    +0.120 A 
ATOM     14  C   UNL     1      -0.368  -1.955  -4.768  0.00  0.00    +0.046 A 
ATOM     15  C   UNL     1      -0.377  -2.583  -3.541  0.00  0.00    +0.012 A 
BRANCH  13  16
ATOM     16  O   UNL     1      -1.242  -0.300  -6.236  0.00  0.00    -0.495 OA
ATOM     17  C   UNL     1      -2.179   0.760  -6.433  0.00  0.00    +0.277 C 
ENDBRANCH  13  16
ENDBRANCH   6  10
BRANCH   5  18
ATOM     18  C   UNL     1      -1.192  -0.633   0.010  0.00  0.00    +0.342 C 
ATOM     19  O   UNL     1      -2.221   0.016   0.023  0.00  0.00    -0.245 OA
BRANCH  18  20
ATOM     20  O   UNL     1       0.002  -0.004   0.002  0.00  0.00    -0.461 OA
BRANCH  20  22
ATOM     21  C   UNL     1       1.418   1.954  -0.001  0.00  0.00    +0.048 C 
ATOM     22  C   UNL     1      -0.017   1.425   0.010  0.00  0.00    +0.229 C 
ENDBRANCH  20  22
ENDBRANCH  18  20
ENDBRANCH   5  18
ENDBRANCH   1   9
BRANCH   2  23
ATOM     23  C   UNL     1      -1.201  -2.736   4.894  0.00  0.00    +0.117 C 
ATOM     24  C   UNL     1      -1.220  -3.631   5.954  0.00  0.00    +0.070 C 
BRANCH  24  25
ATOM     25  C   UNL     1      -1.182  -3.157   7.275  0.00  0.00    +0.130 A 
ATOM     26  C   UNL     1      -1.201  -3.938   8.421  0.00  0.00    +0.050 A 
ATOM     27  C   UNL     1      -1.147  -3.064   9.506  0.00  0.00    +0.050 A 
ATOM     28  C   UNL     1      -1.105  -1.785   8.992  0.00  0.00    +0.136 A 
ATOM     29  O   UNL     1      -1.127  -1.861   7.650  0.00  0.00    -0.455 OA
BRANCH  28  30
ATOM     30  C   UNL     1      -1.045  -0.541   9.782  0.00  0.00    +0.017 A 
ATOM     31  C   UNL     1      -1.034  -0.596  11.178  0.00  0.00    +0.014 A 
ATOM     32  C   UNL     1      -0.972   0.571  11.911  0.00  0.00    +0.033 A 
ATOM     33  C   UNL     1      -0.933   1.795  11.267  0.00  0.00    +0.126 A 
ATOM     34  C   UNL     1      -0.951   1.858   9.885  0.00  0.00    +0.033 A 
ATOM     35  C   UNL     1      -1.006   0.699   9.139  0.00  0.00    +0.014 A 
BRANCH  33  36
ATOM     36  N   UNL     1      -0.874   3.043  12.060  0.00  0.00    +0.056 N 
ATOM     37  O   UNL     1      -0.840   4.122  11.497  0.00  0.00    -0.126 OA
ATOM     38  O   UNL     1      -0.859   2.991  13.277  0.00  0.00    -0.126 OA
ENDBRANCH  33  36
ENDBRANCH  28  30
ENDBRANCH  24  25
BRANCH  23  39
ATOM     39  C   UNL     1      -1.143  -1.327   5.147  0.00  0.00    +0.104 C 
ATOM     40  N   UNL     1      -1.096  -0.210   5.348  0.00  0.00    -0.191 NA
ENDBRANCH  23  39
ENDBRANCH   2  23
TORSDOF 11
