REMARK  Name = ZINC58004873
REMARK  7 active torsions:
REMARK  status: ('A' for Active; 'I' for Inactive)
REMARK    1  A    between atoms: C_1  and  C_2
REMARK    2  A    between atoms: C_2  and  C_3
REMARK    3  A    between atoms: C_3  and  C_22
REMARK    4  A    between atoms: N_5  and  C_14
REMARK    5  A    between atoms: C_7  and  N_13
REMARK    6  A    between atoms: C_14  and  C_15
REMARK    7  A    between atoms: C_22  and  C_23
REMARK                            x       y       z     vdW  Elec       q    Type
REMARK                         _______ _______ _______ _____ _____    ______ ____
ROOT
ATOM      1  C   UNL     1      -0.906  -0.284   0.034  0.00  0.00    +0.126 C 
ATOM      2  C   UNL     1      -0.975  -1.806   0.218  0.00  0.00    +0.153 C 
ATOM      3  N   UNL     1      -0.344  -2.126   1.511  0.00  0.00    -0.318 N 
ATOM      4  C   UNL     1      -0.633  -1.287   2.604  0.00  0.00    +0.093 A 
ATOM      5  C   UNL     1      -0.309  -1.689   3.896  0.00  0.00    +0.050 A 
ATOM      6  C   UNL     1      -0.593  -0.855   4.969  0.00  0.00    +0.025 A 
ATOM      7  C   UNL     1      -1.196   0.370   4.750  0.00  0.00    +0.005 A 
ATOM      8  C   UNL     1      -1.519   0.770   3.468  0.00  0.00    +0.048 A 
ATOM      9  C   UNL     1      -1.242  -0.057   2.388  0.00  0.00    +0.144 A 
ATOM     10  O   UNL     1      -1.573   0.344   1.131  0.00  0.00    -0.482 OA
ENDROOT
BRANCH   5  11
ATOM     11  N   UNL     1       0.302  -2.930   4.113  0.00  0.00    -0.356 N 
ATOM     12  H   UNL     1       1.216  -2.971   4.438  0.00  0.00    +0.142 HD
ATOM     13  H   UNL     1      -0.188  -3.749   3.940  0.00  0.00    +0.142 HD
ENDBRANCH   5  11
BRANCH   1  15
ATOM     14  C   UNL     1       0.621   1.684  -0.161  0.00  0.00    +0.008 C 
ATOM     15  C   UNL     1       0.556   0.164  -0.002  0.00  0.00    +0.046 C 
ENDBRANCH   1  15
BRANCH   1  16
ATOM     16  C   UNL     1      -1.594   0.108  -1.276  0.00  0.00    +0.046 C 
ATOM     17  C   UNL     1      -3.061  -0.325  -1.230  0.00  0.00    +0.008 C 
ENDBRANCH   1  16
BRANCH   3  18
ATOM     18  C   UNL     1       0.551  -3.277   1.654  0.00  0.00    +0.140 C 
BRANCH  18  19
ATOM     19  C   UNL     1       1.973  -2.840   1.415  0.00  0.00    -0.030 A 
ATOM     20  C   UNL     1       2.501  -2.873   0.138  0.00  0.00    +0.008 A 
ATOM     21  C   UNL     1       3.805  -2.472  -0.082  0.00  0.00    +0.038 A 
ATOM     22  C   UNL     1       4.583  -2.036   0.977  0.00  0.00    +0.123 A 
ATOM     23  C   UNL     1       4.053  -2.002   2.256  0.00  0.00    +0.038 A 
ATOM     24  C   UNL     1       2.747  -2.399   2.473  0.00  0.00    +0.008 A 
ATOM     25  F   UNL     1       5.858  -1.644   0.763  0.00  0.00    -0.205 F 
ENDBRANCH  18  19
ENDBRANCH   3  18
TORSDOF 5
