REMARK  Name = ZINC01123203
REMARK  6 active torsions:
REMARK  status: ('A' for Active; 'I' for Inactive)
REMARK    1  A    between atoms: C_4  and  N_7
REMARK    2  A    between atoms: C_8  and  C_10
REMARK    3  A    between atoms: C_10  and  C_11
REMARK    4  A    between atoms: N_15  and  C_25
REMARK    5  A    between atoms: N_18  and  C_19
REMARK    6  A    between atoms: C_19  and  C_20
REMARK                            x       y       z     vdW  Elec       q    Type
REMARK                         _______ _______ _______ _____ _____    ______ ____
ROOT
ATOM      1  C   UNL     1      -3.561   2.162   2.510  0.00  0.00    +0.173 C 
ATOM      2  C   UNL     1      -3.395   1.741   3.957  0.00  0.00    +0.248 C 
ATOM      3  O   UNL     1      -3.751   2.350   4.943  0.00  0.00    -0.273 OA
ATOM      4  N   UNL     1      -2.771   0.547   3.920  0.00  0.00    -0.193 N 
ATOM      5  C   UNL     1      -2.526   0.157   2.663  0.00  0.00    +0.317 C 
ATOM      6  O   UNL     1      -1.976  -0.887   2.375  0.00  0.00    -0.252 OA
ATOM      7  N   UNL     1      -2.954   1.052   1.755  0.00  0.00    -0.268 N 
ENDROOT
BRANCH   4   8
ATOM      8  C   UNL     1      -2.425  -0.197   5.057  0.00  0.00    +0.045 A 
ATOM      9  C   UNL     1      -1.669  -1.354   4.927  0.00  0.00    +0.024 A 
ATOM     10  C   UNL     1      -1.326  -2.083   6.050  0.00  0.00    +0.002 A 
ATOM     11  C   UNL     1      -1.744  -1.666   7.300  0.00  0.00    +0.000 A 
ATOM     12  C   UNL     1      -2.501  -0.517   7.432  0.00  0.00    +0.002 A 
ATOM     13  C   UNL     1      -2.843   0.219   6.314  0.00  0.00    +0.024 A 
ENDBRANCH   4   8
BRANCH   1  14
ATOM     14  C   UNL     1      -2.814   3.469   2.241  0.00  0.00    +0.128 C 
BRANCH  14  16
ATOM     15  N   UNL     1      -2.999   5.843   2.910  0.00  0.00    -0.285 N 
ATOM     16  C   UNL     1      -3.542   4.610   2.905  0.00  0.00    +0.219 C 
ATOM     17  O   UNL     1      -4.617   4.418   3.433  0.00  0.00    -0.275 OA
ATOM     18  H   UNL     1      -2.173   6.012   2.431  0.00  0.00    +0.155 HD
BRANCH  15  22
ATOM     19  C   UNL     1      -4.870   8.934   4.986  0.00  0.00    +0.000 A 
ATOM     20  C   UNL     1      -3.490   8.879   4.927  0.00  0.00    +0.002 A 
ATOM     21  C   UNL     1      -2.866   7.856   4.240  0.00  0.00    +0.023 A 
ATOM     22  C   UNL     1      -3.628   6.881   3.608  0.00  0.00    +0.033 A 
ATOM     23  C   UNL     1      -5.014   6.942   3.665  0.00  0.00    +0.023 A 
ATOM     24  C   UNL     1      -5.631   7.965   4.358  0.00  0.00    +0.002 A 
ENDBRANCH  15  22
ENDBRANCH  14  16
ENDBRANCH   1  14
BRANCH   7  25
ATOM     25  C   UNL     1      -2.843   0.943   0.298  0.00  0.00    +0.152 C 
BRANCH  25  26
ATOM     26  C   UNL     1      -4.115   0.357  -0.259  0.00  0.00    +0.007 A 
ATOM     27  C   UNL     1      -5.268   0.986  -0.595  0.00  0.00    +0.013 A 
ATOM     28  C   UNL     1      -6.316   0.239  -1.101  0.00  0.00    +0.008 A 
ATOM     29  C   UNL     1      -6.161  -1.101  -1.240  0.00  0.00    +0.045 A 
ATOM     30  S   UNL     1      -4.495  -1.343  -0.647  0.00  0.00    -0.100 S 
ENDBRANCH  25  26
ENDBRANCH   7  25
TORSDOF 6
