REMARK  Name = ZINC36700536
REMARK  12 active torsions:
REMARK  status: ('A' for Active; 'I' for Inactive)
REMARK    1  A    between atoms: C_1  and  C_2
REMARK    2  A    between atoms: C_2  and  C_3
REMARK    3  A    between atoms: C_3  and  C_4
REMARK    4  A    between atoms: C_4  and  C_5
REMARK    5  A    between atoms: C_5  and  N_6
REMARK    6  A    between atoms: C_15  and  C_17
REMARK    7  A    between atoms: N_19  and  C_20
REMARK    8  A    between atoms: C_20  and  C_21
REMARK    9  A    between atoms: C_21  and  C_23
REMARK   10  A    between atoms: C_21  and  N_30
REMARK   11  A    between atoms: N_30  and  C_31
REMARK   12  A    between atoms: N_30  and  C_32
REMARK                            x       y       z     vdW  Elec       q    Type
REMARK                         _______ _______ _______ _____ _____    ______ ____
ROOT
ATOM      1  C   UNL     1       3.802  -6.626  -0.764  0.00  0.00    +0.265 C 
ATOM      2  O   UNL     1       4.003  -7.825  -0.758  0.00  0.00    -0.268 OA
ATOM      3  N   UNL     1       4.763  -5.779  -0.343  0.00  0.00    -0.311 N 
ATOM      4  H   UNL     1       4.603  -4.823  -0.347  0.00  0.00    +0.149 HD
ENDROOT
BRANCH   1  14
ATOM      5  N   UNL     1       1.186  -4.267  -1.628  0.00  0.00    -0.228 N 
ATOM      6  C   UNL     1       0.128  -4.973  -2.077  0.00  0.00    +0.275 A 
ATOM      7  O   UNL     1      -0.890  -4.409  -2.435  0.00  0.00    -0.266 OA
ATOM      8  C   UNL     1       0.233  -6.438  -2.125  0.00  0.00    +0.050 A 
ATOM      9  C   UNL     1      -0.801  -7.255  -2.571  0.00  0.00    +0.014 A 
ATOM     10  C   UNL     1      -0.624  -8.622  -2.584  0.00  0.00    +0.001 A 
ATOM     11  C   UNL     1       0.571  -9.187  -2.159  0.00  0.00    +0.001 A 
ATOM     12  C   UNL     1       1.608  -8.394  -1.713  0.00  0.00    +0.011 A 
ATOM     13  C   UNL     1       1.450  -7.013  -1.692  0.00  0.00    +0.020 A 
ATOM     14  C   UNL     1       2.505  -6.096  -1.230  0.00  0.00    +0.154 A 
ATOM     15  N   UNL     1       2.282  -4.805  -1.244  0.00  0.00    -0.163 NA
BRANCH   5  16
ATOM     16  C   UNL     1       1.077  -2.807  -1.583  0.00  0.00    +0.147 C 
BRANCH  16  17
ATOM     17  C   UNL     1       0.528  -2.379  -0.220  0.00  0.00    +0.023 C 
BRANCH  17  18
ATOM     18  C   UNL     1       0.414  -0.854  -0.173  0.00  0.00    +0.002 C 
BRANCH  18  20
ATOM     19  C   UNL     1      -0.248   1.100   1.237  0.00  0.00    +0.004 C 
ATOM     20  C   UNL     1      -0.134  -0.425   1.189  0.00  0.00    -0.003 C 
ENDBRANCH  18  20
ENDBRANCH  17  18
ENDBRANCH  16  17
ENDBRANCH   5  16
ENDBRANCH   1  14
BRANCH   3  21
ATOM     21  C   UNL     1       6.050  -6.304   0.120  0.00  0.00    +0.094 C 
BRANCH  21  22
ATOM     22  C   UNL     1       6.998  -5.141   0.416  0.00  0.00    -0.020 C 
BRANCH  22  23
ATOM     23  C   UNL     1       6.467  -4.344   1.580  0.00  0.00    -0.041 A 
ATOM     24  C   UNL     1       5.688  -3.225   1.353  0.00  0.00    +0.003 A 
ATOM     25  C   UNL     1       5.200  -2.493   2.419  0.00  0.00    +0.000 A 
ATOM     26  C   UNL     1       5.492  -2.880   3.714  0.00  0.00    +0.001 A 
ATOM     27  C   UNL     1       6.271  -3.998   3.943  0.00  0.00    +0.020 A 
ATOM     28  C   UNL     1       6.755  -4.734   2.875  0.00  0.00    +0.043 A 
ATOM     29 CL   UNL     1       7.728  -6.143   3.161  0.00  0.00    -0.083 Cl
ENDBRANCH  22  23
BRANCH  22  30
ATOM     30  N   UNL     1       7.096  -4.276  -0.766  0.00  0.00    +0.382 N 
ATOM     31  C   UNL     1       8.041  -3.183  -0.497  0.00  0.00    -0.096 C 
ATOM     32  C   UNL     1       7.573  -5.063  -1.911  0.00  0.00    -0.096 C 
ATOM     33  H   UNL     1       6.188  -3.890  -0.978  0.00  0.00    -0.082 HD
ENDBRANCH  22  30
ENDBRANCH  21  22
ENDBRANCH   3  21
TORSDOF 9
