REMARK  Name = ZINC35694430
REMARK  17 active torsions:
REMARK  status: ('A' for Active; 'I' for Inactive)
REMARK    1  A    between atoms: C_1  and  C_2
REMARK    2  A    between atoms: C_2  and  O_3
REMARK    3  A    between atoms: O_3  and  C_4
REMARK    4  A    between atoms: C_4  and  C_6
REMARK    5  A    between atoms: C_7  and  C_35
REMARK    6  A    between atoms: C_11  and  C_13
REMARK    7  A    between atoms: C_15  and  O_21
REMARK    8  A    between atoms: C_18  and  O_19
REMARK    9  A    between atoms: O_19  and  C_20
REMARK   10  A    between atoms: O_21  and  C_22
REMARK   11  A    between atoms: C_23  and  C_26
REMARK   12  A    between atoms: C_27  and  N_29
REMARK   13  A    between atoms: N_29  and  C_30
REMARK   14  A    between atoms: C_30  and  C_31
REMARK   15  A    between atoms: C_31  and  N_32
REMARK   16  A    between atoms: N_32  and  C_33
REMARK   17  A    between atoms: N_32  and  C_34
REMARK                            x       y       z     vdW  Elec       q    Type
REMARK                         _______ _______ _______ _____ _____    ______ ____
ROOT
ATOM      1  C   UNL     1       0.750  -2.310  -2.695  0.00  0.00    +0.083 C 
ATOM      2  C   UNL     1       1.032  -3.661  -2.639  0.00  0.00    +0.053 C 
ATOM      3  N   UNL     1       1.878  -4.206  -3.498  0.00  0.00    -0.230 NA
ATOM      4  C   UNL     1       2.510  -3.550  -4.449  0.00  0.00    +0.166 C 
ATOM      5  N   UNL     1       2.370  -2.209  -4.673  0.00  0.00    -0.267 N 
ATOM      6  C   UNL     1       1.435  -1.491  -3.767  0.00  0.00    +0.153 C 
ATOM      7  C   UNL     1       3.101  -1.667  -5.711  0.00  0.00    +0.048 C 
ATOM      8  C   UNL     1       3.893  -2.500  -6.422  0.00  0.00    +0.072 C 
ATOM      9  S   UNL     1       3.603  -4.062  -5.615  0.00  0.00    -0.060 S 
ATOM     10  C   UNL     1       0.370  -4.521  -1.593  0.00  0.00    +0.066 C 
ENDROOT
BRANCH   6  11
ATOM     11  C   UNL     1       0.366  -0.846  -4.611  0.00  0.00    +0.023 A 
ATOM     12  C   UNL     1       0.084   0.498  -4.461  0.00  0.00    +0.055 A 
ATOM     13  C   UNL     1      -0.899   1.091  -5.239  0.00  0.00    +0.121 A 
ATOM     14  C   UNL     1      -1.599   0.335  -6.167  0.00  0.00    +0.049 A 
ATOM     15  C   UNL     1      -1.317  -1.008  -6.317  0.00  0.00    +0.049 A 
ATOM     16  C   UNL     1      -0.330  -1.601  -5.543  0.00  0.00    +0.126 A 
BRANCH  16  17
ATOM     17  O   UNL     1      -0.049  -2.923  -5.694  0.00  0.00    -0.495 OA
ATOM     18  C   UNL     1      -0.729  -3.614  -6.744  0.00  0.00    +0.277 C 
ENDBRANCH  16  17
BRANCH  13  19
ATOM     19  O   UNL     1      -1.176   2.414  -5.091  0.00  0.00    -0.495 OA
ATOM     20  C   UNL     1      -2.201   2.959  -5.925  0.00  0.00    +0.277 C 
ENDBRANCH  13  19
ENDBRANCH   6  11
BRANCH   7  21
ATOM     21  C   UNL     1       3.020  -0.235  -6.033  0.00  0.00    +0.091 C 
ATOM     22  C   UNL     1       3.614   0.240  -7.145  0.00  0.00    +0.239 C 
ATOM     23  O   UNL     1       4.160  -0.618  -8.041  0.00  0.00    -0.271 OA
BRANCH  22  24
ATOM     24  N   UNL     1       3.667   1.605  -7.372  0.00  0.00    -0.314 N 
ATOM     25  H   UNL     1       3.342   2.222  -6.698  0.00  0.00    +0.149 HD
BRANCH  24  26
ATOM     26  C   UNL     1       4.213   2.117  -8.631  0.00  0.00    +0.086 C 
BRANCH  26  27
ATOM     27  C   UNL     1       4.042   3.637  -8.681  0.00  0.00    -0.061 C 
BRANCH  27  28
ATOM     28  N   UNL     1       4.589   4.151  -9.943  0.00  0.00    +0.377 N 
ATOM     29  C   UNL     1       3.796   3.634 -11.067  0.00  0.00    -0.097 C 
ATOM     30  C   UNL     1       4.535   5.619  -9.940  0.00  0.00    -0.097 C 
ATOM     31  H   UNL     1       5.548   3.850 -10.041  0.00  0.00    -0.083 HD
ENDBRANCH  27  28
ENDBRANCH  26  27
ENDBRANCH  24  26
ENDBRANCH  22  24
ENDBRANCH   7  21
BRANCH   1  32
ATOM     32  C   UNL     1      -0.143  -1.719  -1.793  0.00  0.00    +0.339 C 
ATOM     33  O   UNL     1      -0.772  -2.414  -1.014  0.00  0.00    -0.245 OA
BRANCH  32  34
ATOM     34  O   UNL     1      -0.307  -0.377  -1.786  0.00  0.00    -0.462 OA
BRANCH  34  36
ATOM     35  C   UNL     1      -1.312   1.672  -0.991  0.00  0.00    +0.048 C 
ATOM     36  C   UNL     1      -1.148   0.168  -0.767  0.00  0.00    +0.229 C 
ENDBRANCH  34  36
ENDBRANCH  32  34
ENDBRANCH   1  32
TORSDOF 11
