REMARK  Name = ZINC63795856
REMARK  4 active torsions:
REMARK  status: ('A' for Active; 'I' for Inactive)
REMARK    1  A    between atoms: C_1  and  C_2
REMARK    2  A    between atoms: C_4  and  C_15
REMARK    3  A    between atoms: C_19  and  O_21
REMARK    4  A    between atoms: O_21  and  C_22
REMARK                            x       y       z     vdW  Elec       q    Type
REMARK                         _______ _______ _______ _____ _____    ______ ____
ROOT
ATOM      1  C   UNL     1      -0.207   1.439   0.930  0.00  0.00    +0.067 C 
ATOM      2  C   UNL     1      -0.216  -0.068   0.916  0.00  0.00    +0.064 C 
ATOM      3  C   UNL     1      -1.276  -0.820   0.601  0.00  0.00    +0.014 C 
ATOM      4  C   UNL     1      -2.620  -0.346   0.191  0.00  0.00    +0.108 C 
ATOM      5  S   UNL     1      -2.966  -0.705  -1.544  0.00  0.00    -0.139 S 
ATOM      6  C   UNL     1      -3.084  -2.499  -1.655  0.00  0.00    +0.165 C 
ATOM      7  C   UNL     1      -1.792  -3.165  -1.339  0.00  0.00    +0.225 C 
ATOM      8  O   UNL     1      -1.537  -4.065  -2.110  0.00  0.00    -0.275 OA
ATOM      9  N   UNL     1      -0.887  -3.014  -0.449  0.00  0.00    -0.288 N 
ATOM     10  C   UNL     1      -0.777  -2.234   0.748  0.00  0.00    +0.244 C 
ATOM     11  N   UNL     1       0.629  -2.059   1.150  0.00  0.00    -0.160 NA
ATOM     12  N   UNL     1       0.848  -0.846   1.215  0.00  0.00    -0.157 NA
ATOM     13  H   UNL     1      -0.097  -3.549  -0.623  0.00  0.00    +0.151 HD
ENDROOT
BRANCH   4  14
ATOM     14  C   UNL     1      -2.702   1.143   0.407  0.00  0.00    -0.027 A 
ATOM     15  C   UNL     1      -2.350   2.009  -0.612  0.00  0.00    +0.005 A 
ATOM     16  C   UNL     1      -2.424   3.376  -0.416  0.00  0.00    +0.004 A 
ATOM     17  C   UNL     1      -2.849   3.879   0.798  0.00  0.00    +0.045 A 
ATOM     18  C   UNL     1      -3.203   3.012   1.821  0.00  0.00    +0.121 A 
ATOM     19  C   UNL     1      -3.134   1.641   1.621  0.00  0.00    +0.050 A 
BRANCH  18  20
ATOM     20  O   UNL     1      -3.622   3.505   3.016  0.00  0.00    -0.489 OA
BRANCH  20  21
ATOM     21  C   UNL     1      -3.726   4.926   3.132  0.00  0.00    +0.173 C 
ATOM     22  C   UNL     1      -5.121   5.407   2.660  0.00  0.00    +0.044 C 
ATOM     23  C   UNL     1      -5.280   6.763   3.391  0.00  0.00    +0.004 C 
ATOM     24  C   UNL     1      -4.648   6.521   4.777  0.00  0.00    +0.004 C 
ATOM     25  C   UNL     1      -3.660   5.353   4.613  0.00  0.00    +0.044 C 
ENDBRANCH  20  21
ENDBRANCH  18  20
ENDBRANCH   4  14
TORSDOF 3
