REMARK  Name = ZINC37369296
REMARK  3 active torsions:
REMARK  status: ('A' for Active; 'I' for Inactive)
REMARK    1  A    between atoms: C_1  and  C_2
REMARK    2  A    between atoms: C_7  and  N_8
REMARK    3  A    between atoms: C_9  and  N_19
REMARK                            x       y       z     vdW  Elec       q    Type
REMARK                         _______ _______ _______ _____ _____    ______ ____
ROOT
ATOM      1  N   UNL     1       0.026  -0.013   2.418  0.00  0.00    -0.264 N 
ATOM      2  C   UNL     1      -1.169   0.297   3.014  0.00  0.00    +0.104 A 
ATOM      3  C   UNL     1      -1.237   0.963   4.191  0.00  0.00    +0.050 A 
ATOM      4  C   UNL     1      -0.049   1.365   4.847  0.00  0.00    -0.010 A 
ATOM      5  C   UNL     1      -0.076   2.055   6.064  0.00  0.00    +0.009 A 
ATOM      6  C   UNL     1       1.098   2.420   6.659  0.00  0.00    +0.001 A 
ATOM      7  C   UNL     1       2.321   2.117   6.071  0.00  0.00    +0.001 A 
ATOM      8  C   UNL     1       2.380   1.444   4.883  0.00  0.00    +0.014 A 
ATOM      9  C   UNL     1       1.198   1.056   4.251  0.00  0.00    +0.047 A 
ATOM     10  C   UNL     1       1.204   0.328   2.980  0.00  0.00    +0.265 A 
ATOM     11  O   UNL     1       2.256   0.039   2.437  0.00  0.00    -0.267 OA
ENDROOT
BRANCH   1  18
ATOM     12  C   UNL     1      -0.018   1.503   0.010  0.00  0.00    +0.046 C 
ATOM     13  C   UNL     1       0.002  -0.004   0.002  0.00  0.00    -0.026 A 
ATOM     14  C   UNL     1       0.006  -0.689  -1.198  0.00  0.00    +0.006 A 
ATOM     15  C   UNL     1       0.024  -2.071  -1.207  0.00  0.00    +0.015 A 
ATOM     16  C   UNL     1       0.039  -2.773  -0.014  0.00  0.00    +0.020 A 
ATOM     17  C   UNL     1       0.035  -2.094   1.189  0.00  0.00    +0.041 A 
ATOM     18  C   UNL     1       0.023  -0.705   1.200  0.00  0.00    +0.055 A 
ATOM     19 BR   UNL     1       0.063  -4.664  -0.032  0.00  0.00    -0.050 Br
ENDBRANCH   1  18
BRANCH   2  20
ATOM     20  N   UNL     1      -2.344  -0.084   2.394  0.00  0.00    -0.344 N 
ATOM     21  H   UNL     1      -2.314  -0.562   1.550  0.00  0.00    +0.144 HD
ATOM     22  H   UNL     1      -3.198   0.127   2.801  0.00  0.00    +0.144 HD
ENDBRANCH   2  20
TORSDOF 2
