REMARK  Name = ZINC04518682
REMARK  6 active torsions:
REMARK  status: ('A' for Active; 'I' for Inactive)
REMARK    1  A    between atoms: N_4  and  N_6
REMARK    2  A    between atoms: C_7  and  C_23
REMARK    3  A    between atoms: C_10  and  S_11
REMARK    4  A    between atoms: S_11  and  C_12
REMARK    5  A    between atoms: C_12  and  C_13
REMARK    6  A    between atoms: N_15  and  C_16
REMARK                            x       y       z     vdW  Elec       q    Type
REMARK                         _______ _______ _______ _____ _____    ______ ____
ROOT
ATOM      1  N   UNL     1       1.740  -1.744  -0.024  0.00  0.00    -0.207 N 
ATOM      2  C   UNL     1       1.555  -2.665  -1.018  0.00  0.00    +0.157 A 
ATOM      3  N   UNL     1       2.118  -3.774  -0.628  0.00  0.00    -0.131 NA
ATOM      4  N   UNL     1       2.641  -3.618   0.535  0.00  0.00    -0.121 NA
ATOM      5  C   UNL     1       2.445  -2.389   0.951  0.00  0.00    +0.211 A 
ENDROOT
BRANCH   2   6
ATOM      6  C   UNL     1       0.835  -2.439  -2.322  0.00  0.00    +0.059 C 
ATOM      7  C   UNL     1      -0.349  -3.403  -2.424  0.00  0.00    +0.011 C 
ATOM      8  C   UNL     1      -1.081  -3.174  -3.748  0.00  0.00    +0.001 C 
ATOM      9  C   UNL     1      -0.120  -3.423  -4.912  0.00  0.00    +0.000 C 
ATOM     10  C   UNL     1       1.064  -2.459  -4.810  0.00  0.00    +0.001 C 
ATOM     11  C   UNL     1       1.796  -2.688  -3.486  0.00  0.00    +0.011 C 
ENDBRANCH   2   6
BRANCH   1  15
ATOM     12  C   UNL     1      -0.016   1.344   0.009  0.00  0.00    +0.021 A 
ATOM     13  C   UNL     1       1.322   1.784  -0.001  0.00  0.00    +0.021 A 
ATOM     14  C   UNL     1       2.107   0.688  -0.014  0.00  0.00    +0.111 A 
ATOM     15  N   UNL     1       1.303  -0.413  -0.013  0.00  0.00    -0.259 N 
ATOM     16  C   UNL     1       0.002  -0.004   0.002  0.00  0.00    +0.111 A 
ENDBRANCH   1  15
BRANCH   5  17
ATOM     17  S   UNL     1       2.985  -1.702   2.482  0.00  0.00    -0.075 S 
BRANCH  17  18
ATOM     18  C   UNL     1       3.850  -3.072   3.297  0.00  0.00    +0.173 C 
BRANCH  18  19
ATOM     19  C   UNL     1       4.369  -2.613   4.635  0.00  0.00    +0.224 C 
ATOM     20  O   UNL     1       4.175  -1.474   5.002  0.00  0.00    -0.275 OA
ATOM     21  N   UNL     1       5.050  -3.469   5.423  0.00  0.00    -0.312 N 
ATOM     22  H   UNL     1       5.205  -4.380   5.129  0.00  0.00    +0.149 HD
BRANCH  21  23
ATOM     23  C   UNL     1       5.555  -3.022   6.724  0.00  0.00    +0.073 C 
ATOM     24  C   UNL     1       6.888  -2.277   6.513  0.00  0.00    +0.022 C 
ATOM     25  C   UNL     1       7.141  -1.401   7.710  0.00  0.00    +0.002 C 
ATOM     26  C   UNL     1       8.023  -2.091   8.769  0.00  0.00    +0.000 C 
ATOM     27  C   UNL     1       7.652  -3.570   8.985  0.00  0.00    +0.000 C 
ATOM     28  C   UNL     1       6.164  -3.792   9.014  0.00  0.00    +0.002 C 
ATOM     29  C   UNL     1       5.698  -4.179   7.596  0.00  0.00    +0.022 C 
ENDBRANCH  21  23
ENDBRANCH  18  19
ENDBRANCH  17  18
ENDBRANCH   5  17
TORSDOF 6
