REMARK  Name = ZINC63985738
REMARK  11 active torsions:
REMARK  status: ('A' for Active; 'I' for Inactive)
REMARK    1  A    between atoms: C_1  and  C_2
REMARK    2  A    between atoms: C_2  and  C_4
REMARK    3  A    between atoms: C_2  and  N_15
REMARK    4  A    between atoms: C_4  and  C_5
REMARK    5  A    between atoms: C_5  and  C_6
REMARK    6  A    between atoms: N_23  and  C_37
REMARK    7  A    between atoms: N_26  and  C_27
REMARK    8  A    between atoms: C_27  and  C_28
REMARK    9  A    between atoms: C_28  and  C_29
REMARK   10  A    between atoms: C_32  and  O_35
REMARK   11  A    between atoms: O_35  and  C_36
REMARK                            x       y       z     vdW  Elec       q    Type
REMARK                         _______ _______ _______ _____ _____    ______ ____
ROOT
ATOM      1  N   UNL     1       0.435  -1.222   1.052  0.00  0.00    +0.382 N 
ATOM      2  C   UNL     1       1.666  -0.440   1.222  0.00  0.00    -0.076 C 
ATOM      3  C   UNL     1       2.406  -0.915   2.476  0.00  0.00    +0.017 C 
ATOM      4  C   UNL     1       2.736  -2.398   2.335  0.00  0.00    +0.112 C 
ATOM      5  C   UNL     1       1.468  -3.201   2.061  0.00  0.00    +0.017 C 
ATOM      6  C   UNL     1       0.766  -2.634   0.824  0.00  0.00    -0.076 C 
ATOM      7  C   UNL     1       3.428  -2.906   3.578  0.00  0.00    +0.246 C 
ATOM      8  O   UNL     1       2.985  -2.930   4.706  0.00  0.00    -0.273 OA
ATOM      9  N   UNL     1       4.641  -3.329   3.167  0.00  0.00    -0.227 N 
ATOM     10  C   UNL     1       4.803  -3.157   1.849  0.00  0.00    +0.312 C 
ATOM     11  O   UNL     1       5.813  -3.462   1.246  0.00  0.00    -0.252 OA
ATOM     12  N   UNL     1       3.720  -2.607   1.266  0.00  0.00    -0.271 N 
ATOM     13  C   UNL     1       5.656  -3.905   4.053  0.00  0.00    +0.143 C 
ATOM     14  H   UNL     1      -0.130  -1.140   1.884  0.00  0.00    -0.081 HD
ENDROOT
BRANCH   1  16
ATOM     15  C   UNL     1      -0.585   0.788   0.095  0.00  0.00    -0.013 C 
ATOM     16  C   UNL     1      -0.316  -0.705  -0.100  0.00  0.00    -0.071 C 
BRANCH  16  17
ATOM     17  C   UNL     1      -1.646  -1.452  -0.218  0.00  0.00    -0.011 C 
BRANCH  17  18
ATOM     18  C   UNL     1      -2.368  -1.010  -1.493  0.00  0.00    +0.031 C 
BRANCH  18  19
ATOM     19  C   UNL     1      -3.717  -1.677  -1.563  0.00  0.00    -0.042 C 
ATOM     20  C   UNL     1      -4.900  -1.165  -1.154  0.00  0.00    -0.001 A 
ATOM     21  C   UNL     1      -5.270   0.117  -0.543  0.00  0.00    +0.010 A 
ATOM     22  C   UNL     1      -6.567   0.348  -0.236  0.00  0.00    +0.001 A 
ATOM     23  C   UNL     1      -7.564  -0.605  -0.485  0.00  0.00    +0.002 A 
ATOM     24  C   UNL     1      -7.301  -1.806  -1.044  0.00  0.00    +0.026 A 
ATOM     25  C   UNL     1      -5.971  -2.154  -1.408  0.00  0.00    +0.043 A 
ATOM     26  N   UNL     1      -5.471  -3.236  -1.953  0.00  0.00    -0.380 N 
ATOM     27  C   UNL     1      -4.024  -3.053  -2.112  0.00  0.00    +0.144 C 
ATOM     28  H   UNL     1      -5.973  -4.024  -2.211  0.00  0.00    +0.160 HD
ENDBRANCH  18  19
ENDBRANCH  17  18
ENDBRANCH  16  17
ENDBRANCH   1  16
BRANCH  12  29
ATOM     29  C   UNL     1       3.557  -2.284  -0.154  0.00  0.00    +0.115 C 
BRANCH  29  30
ATOM     30  C   UNL     1       3.543  -3.576  -0.973  0.00  0.00    +0.054 C 
BRANCH  30  31
ATOM     31  C   UNL     1       3.490  -3.240  -2.441  0.00  0.00    -0.046 A 
ATOM     32  C   UNL     1       2.269  -3.092  -3.072  0.00  0.00    +0.007 A 
ATOM     33  C   UNL     1       2.219  -2.784  -4.418  0.00  0.00    +0.046 A 
ATOM     34  C   UNL     1       3.394  -2.622  -5.136  0.00  0.00    +0.120 A 
ATOM     35  C   UNL     1       4.619  -2.770  -4.500  0.00  0.00    +0.046 A 
ATOM     36  C   UNL     1       4.664  -3.073  -3.153  0.00  0.00    +0.007 A 
BRANCH  34  37
ATOM     37  O   UNL     1       3.347  -2.320  -6.460  0.00  0.00    -0.495 OA
ATOM     38  C   UNL     1       4.597  -2.168  -7.136  0.00  0.00    +0.277 C 
ENDBRANCH  34  37
ENDBRANCH  30  31
ENDBRANCH  29  30
ENDBRANCH  12  29
TORSDOF 8
