REMARK  Name = ZINC08568363
REMARK  6 active torsions:
REMARK  status: ('A' for Active; 'I' for Inactive)
REMARK    1  A    between atoms: C_1  and  O_2
REMARK    2  A    between atoms: O_2  and  C_3
REMARK    3  A    between atoms: C_8  and  N_9
REMARK    4  A    between atoms: C_10  and  C_12
REMARK    5  A    between atoms: N_22  and  C_23
REMARK    6  A    between atoms: C_24  and  C_32
REMARK                            x       y       z     vdW  Elec       q    Type
REMARK                         _______ _______ _______ _____ _____    ______ ____
ROOT
ATOM      1  C   UNL     1      -0.668  -4.910   0.746  0.00  0.00    +0.098 A 
ATOM      2  C   UNL     1      -0.611  -6.295   0.692  0.00  0.00    +0.030 A 
ATOM      3  C   UNL     1      -1.276  -7.032   1.708  0.00  0.00    +0.018 A 
ATOM      4  C   UNL     1      -1.088  -8.416   1.821  0.00  0.00    +0.011 A 
ATOM      5  C   UNL     1      -1.701  -9.105   2.829  0.00  0.00    +0.001 A 
ATOM      6  C   UNL     1      -2.516  -8.447   3.739  0.00  0.00    +0.004 A 
ATOM      7  C   UNL     1      -2.731  -7.087   3.635  0.00  0.00    +0.047 A 
ATOM      8  C   UNL     1      -2.124  -6.369   2.614  0.00  0.00    +0.137 A 
ATOM      9  O   UNL     1      -2.362  -5.042   2.475  0.00  0.00    -0.439 OA
ATOM     10  C   UNL     1      -1.386  -4.304   1.882  0.00  0.00    +0.212 A 
ATOM     11  N   UNL     1      -1.094  -3.088   2.304  0.00  0.00    -0.319 N 
ATOM     12  H   UNL     1      -0.326  -2.619   1.940  0.00  0.00    +0.169 HD
ENDROOT
BRANCH  11  13
ATOM     13  C   UNL     1      -1.862  -2.497   3.240  0.00  0.00    +0.093 A 
ATOM     14  C   UNL     1      -1.729  -1.225   3.811  0.00  0.00    +0.071 A 
ATOM     15  C   UNL     1      -2.707  -0.831   4.811  0.00  0.00    -0.023 A 
ATOM     16  C   UNL     1      -3.666  -1.739   5.101  0.00  0.00    -0.004 A 
ATOM     17  S   UNL     1      -3.312  -3.130   4.062  0.00  0.00    -0.075 S 
ATOM     18  C   UNL     1      -4.786  -1.591   6.085  0.00  0.00    +0.043 C 
ATOM     19  C   UNL     1      -4.476  -0.395   6.996  0.00  0.00    +0.005 C 
ATOM     20  C   UNL     1      -4.055   0.791   6.123  0.00  0.00    +0.005 C 
ATOM     21  C   UNL     1      -2.680   0.524   5.511  0.00  0.00    +0.037 C 
BRANCH  14  22
ATOM     22  C   UNL     1      -0.644  -0.326   3.417  0.00  0.00    +0.244 C 
ATOM     23  O   UNL     1      -0.804   0.454   2.495  0.00  0.00    -0.270 OA
ATOM     24  N   UNL     1       0.532  -0.359   4.074  0.00  0.00    -0.325 N 
ATOM     25  H   UNL     1       0.660  -0.980   4.808  0.00  0.00    +0.145 HD
ATOM     26  H   UNL     1       1.251   0.237   3.812  0.00  0.00    +0.145 HD
ENDBRANCH  14  22
ENDBRANCH  11  13
BRANCH   1  28
ATOM     27  N   UNL     1      -0.204  -2.740  -0.280  0.00  0.00    -0.278 N 
ATOM     28  C   UNL     1      -0.032  -4.077  -0.289  0.00  0.00    +0.253 C 
ATOM     29  O   UNL     1       0.650  -4.596  -1.153  0.00  0.00    -0.270 OA
ATOM     30  H   UNL     1      -0.706  -2.322   0.438  0.00  0.00    +0.155 HD
BRANCH  27  36
ATOM     31  C   UNL     1      -0.178  -0.689  -1.564  0.00  0.00    +0.141 A 
ATOM     32  C   UNL     1       0.369   0.084  -2.575  0.00  0.00    +0.047 A 
ATOM     33  C   UNL     1       1.421  -0.404  -3.327  0.00  0.00    +0.004 A 
ATOM     34  C   UNL     1       1.932  -1.664  -3.074  0.00  0.00    +0.002 A 
ATOM     35  C   UNL     1       1.392  -2.442  -2.067  0.00  0.00    +0.027 A 
ATOM     36  C   UNL     1       0.340  -1.956  -1.304  0.00  0.00    +0.076 A 
BRANCH  31  38
ATOM     37  C   UNL     1      -1.692   1.096  -1.147  0.00  0.00    +0.277 C 
ATOM     38  O   UNL     1      -1.213  -0.211  -0.824  0.00  0.00    -0.493 OA
ENDBRANCH  31  38
ENDBRANCH  27  36
ENDBRANCH   1  28
TORSDOF 5
