REMARK  Name = ZINC63515144
REMARK  9 active torsions:
REMARK  status: ('A' for Active; 'I' for Inactive)
REMARK    1  A    between atoms: C_1  and  C_2
REMARK    2  A    between atoms: C_2  and  C_3
REMARK    3  A    between atoms: C_6  and  N_9
REMARK    4  A    between atoms: C_11  and  C_17
REMARK    5  A    between atoms: C_13  and  C_15
REMARK    6  A    between atoms: C_15  and  O_16
REMARK    7  A    between atoms: N_19  and  C_20
REMARK    8  A    between atoms: C_20  and  C_21
REMARK    9  A    between atoms: C_21  and  C_22
REMARK                            x       y       z     vdW  Elec       q    Type
REMARK                         _______ _______ _______ _____ _____    ______ ____
ROOT
ATOM      1  N   UNL     1       2.656  -1.834  -4.663  0.00  0.00    -0.156 N 
ATOM      2  N   UNL     1       3.997  -2.085  -4.748  0.00  0.00    -0.202 NA
ATOM      3  C   UNL     1       4.226  -2.536  -6.136  0.00  0.00    +0.208 C 
ATOM      4  C   UNL     1       2.853  -2.494  -6.771  0.00  0.00    +0.091 C 
ATOM      5  N   UNL     1       2.031  -2.097  -5.880  0.00  0.00    -0.169 NA
ATOM      6  H   UNL     1       4.275  -2.795  -4.087  0.00  0.00    +0.148 HD
ENDROOT
BRANCH   1  10
ATOM      7  C   UNL     1       0.707  -0.490  -1.238  0.00  0.00    -0.047 A 
ATOM      8  C   UNL     1      -0.013  -0.718  -2.397  0.00  0.00    +0.005 A 
ATOM      9  C   UNL     1       0.630  -1.164  -3.534  0.00  0.00    +0.027 A 
ATOM     10  C   UNL     1       2.003  -1.383  -3.514  0.00  0.00    +0.069 A 
ATOM     11  C   UNL     1       2.723  -1.152  -2.349  0.00  0.00    +0.027 A 
ATOM     12  C   UNL     1       2.074  -0.702  -1.216  0.00  0.00    +0.005 A 
BRANCH   7  14
ATOM     13  C   UNL     1      -0.019   1.526   0.010  0.00  0.00    +0.009 C 
ATOM     14  C   UNL     1       0.002  -0.004   0.002  0.00  0.00    +0.032 C 
ENDBRANCH   7  14
ENDBRANCH   1  10
BRANCH   3  15
ATOM     15  C   UNL     1       4.774  -3.940  -6.152  0.00  0.00    +0.237 C 
ATOM     16  O   UNL     1       4.654  -4.648  -5.174  0.00  0.00    -0.274 OA
ATOM     17  N   UNL     1       5.396  -4.408  -7.251  0.00  0.00    -0.313 N 
ATOM     18  H   UNL     1       5.492  -3.842  -8.033  0.00  0.00    +0.149 HD
BRANCH  17  19
ATOM     19  C   UNL     1       5.929  -5.773  -7.266  0.00  0.00    +0.108 C 
BRANCH  19  20
ATOM     20  C   UNL     1       6.582  -6.051  -8.621  0.00  0.00    +0.052 C 
BRANCH  20  21
ATOM     21  C   UNL     1       7.130  -7.455  -8.636  0.00  0.00    -0.040 C 
ATOM     22  C   UNL     1       6.517  -8.562  -9.116  0.00  0.00    -0.001 A 
ATOM     23  C   UNL     1       5.208  -8.781  -9.742  0.00  0.00    +0.010 A 
ATOM     24  C   UNL     1       4.866 -10.032 -10.127  0.00  0.00    +0.001 A 
ATOM     25  C   UNL     1       5.729 -11.121  -9.943  0.00  0.00    +0.002 A 
ATOM     26  C   UNL     1       6.948 -10.998  -9.375  0.00  0.00    +0.026 A 
ATOM     27  C   UNL     1       7.410  -9.728  -8.933  0.00  0.00    +0.043 A 
ATOM     28  N   UNL     1       8.531  -9.357  -8.363  0.00  0.00    -0.380 N 
ATOM     29  C   UNL     1       8.478  -7.910  -8.124  0.00  0.00    +0.144 C 
ATOM     30  H   UNL     1       9.273  -9.941  -8.139  0.00  0.00    +0.160 HD
ENDBRANCH  20  21
ENDBRANCH  19  20
ENDBRANCH  17  19
ENDBRANCH   3  15
BRANCH   4  31
ATOM     31  C   UNL     1       2.517  -2.859  -8.194  0.00  0.00    +0.210 C 
BRANCH  31  32
ATOM     32  O   UNL     1       1.115  -2.688  -8.412  0.00  0.00    -0.389 OA
ATOM     33  H   UNL     1       0.827  -2.906  -9.309  0.00  0.00    +0.210 HD
ENDBRANCH  31  32
ENDBRANCH   4  31
TORSDOF 8
