REMARK  Name = ZINC20695378
REMARK  7 active torsions:
REMARK  status: ('A' for Active; 'I' for Inactive)
REMARK    1  A    between atoms: C_1  and  C_2
REMARK    2  A    between atoms: C_2  and  O_3
REMARK    3  A    between atoms: O_3  and  C_4
REMARK    4  A    between atoms: C_4  and  C_5
REMARK    5  A    between atoms: C_5  and  O_6
REMARK    6  A    between atoms: O_6  and  C_7
REMARK    7  A    between atoms: C_20  and  C_23
REMARK                            x       y       z     vdW  Elec       q    Type
REMARK                         _______ _______ _______ _____ _____    ______ ____
ROOT
ATOM      1  C   UNL     1      -1.224   1.750   0.017  0.00  0.00    +0.121 A 
ATOM      2  C   UNL     1      -1.243   3.137   0.035  0.00  0.00    +0.047 A 
ATOM      3  C   UNL     1      -0.059   3.845   0.026  0.00  0.00    +0.027 A 
ATOM      4  C   UNL     1       1.159   3.177   0.002  0.00  0.00    +0.032 A 
ATOM      5  C   UNL     1       1.173   1.778   0.000  0.00  0.00    -0.016 A 
ATOM      6  C   UNL     1      -0.013   1.076   0.008  0.00  0.00    +0.051 A 
ATOM      7  C   UNL     1       2.492   1.108   0.003  0.00  0.00    +0.049 C 
ATOM      8  C   UNL     1       2.679  -0.256  -0.554  0.00  0.00    -0.023 C 
ATOM      9  C   UNL     1       3.910  -0.348  -1.044  0.00  0.00    -0.030 C 
ATOM     10  C   UNL     1       4.641   0.985  -0.877  0.00  0.00    +0.033 C 
ATOM     11  C   UNL     1       3.471   1.977  -0.843  0.00  0.00    +0.029 C 
ATOM     12  C   UNL     1       3.651   3.264  -0.058  0.00  0.00    +0.105 C 
ATOM     13  N   UNL     1       2.325   3.920  -0.059  0.00  0.00    -0.336 N 
ATOM     14  H   UNL     1       2.254   5.016  -0.110  0.00  0.00    +0.147 HD
ENDROOT
BRANCH  12  15
ATOM     15  C   UNL     1       4.672   4.145  -0.731  0.00  0.00    -0.026 A 
ATOM     16  C   UNL     1       4.311   4.908  -1.826  0.00  0.00    +0.005 A 
ATOM     17  C   UNL     1       5.246   5.721  -2.441  0.00  0.00    +0.002 A 
ATOM     18  C   UNL     1       6.544   5.762  -1.967  0.00  0.00    +0.020 A 
ATOM     19  C   UNL     1       6.906   4.995  -0.875  0.00  0.00    +0.041 A 
ATOM     20  C   UNL     1       5.969   4.186  -0.257  0.00  0.00    +0.025 A 
ATOM     21 CL   UNL     1       8.536   5.046  -0.280  0.00  0.00    -0.084 Cl
ENDBRANCH  12  15
BRANCH   1  22
ATOM     22  O   UNL     1      -2.392   1.053   0.015  0.00  0.00    -0.490 OA
BRANCH  22  23
ATOM     23  C   UNL     1      -3.602   1.813   0.025  0.00  0.00    +0.257 C 
BRANCH  23  24
ATOM     24  C   UNL     1      -4.801   0.864   0.020  0.00  0.00    +0.200 C 
BRANCH  24  25
ATOM     25  O   UNL     1      -4.818   0.111   1.234  0.00  0.00    -0.377 OA
BRANCH  25  27
ATOM     26  C   UNL     1      -5.823  -1.558   2.664  0.00  0.00    +0.034 C 
ATOM     27  C   UNL     1      -5.905  -0.812   1.331  0.00  0.00    +0.156 C 
ENDBRANCH  25  27
ENDBRANCH  24  25
ENDBRANCH  23  24
ENDBRANCH  22  23
ENDBRANCH   1  22
TORSDOF 6
