REMARK  Name = ZINC13128604
REMARK  8 active torsions:
REMARK  status: ('A' for Active; 'I' for Inactive)
REMARK    1  A    between atoms: C_4  and  O_7
REMARK    2  A    between atoms: O_7  and  C_8
REMARK    3  A    between atoms: C_8  and  C_9
REMARK    4  A    between atoms: C_9  and  S_10
REMARK    5  A    between atoms: S_10  and  C_11
REMARK    6  A    between atoms: N_12  and  N_13
REMARK    7  A    between atoms: N_24  and  C_25
REMARK    8  A    between atoms: C_25  and  C_26
REMARK                            x       y       z     vdW  Elec       q    Type
REMARK                         _______ _______ _______ _____ _____    ______ ____
ROOT
ATOM      1  C   UNL     1       6.470  -4.912  -0.233  0.00  0.00    +0.148 C 
ATOM      2  N   UNL     1       6.802  -6.186  -0.034  0.00  0.00    -0.258 N 
ATOM      3  N   UNL     1       7.435  -3.992  -0.521  0.00  0.00    -0.322 N 
ATOM      4  H   UNL     1       7.194  -3.064  -0.665  0.00  0.00    +0.148 HD
ATOM      5  H   UNL     1       6.115  -6.840   0.171  0.00  0.00    +0.191 HD
ENDROOT
BRANCH   2   6
ATOM      6  N   UNL     1       8.037  -6.551  -0.114  0.00  0.00    -0.167 NA
ATOM      7  C   UNL     1       8.355  -7.832  -0.024  0.00  0.00    +0.155 C 
ATOM      8  C   UNL     1       7.434  -8.989  -0.010  0.00  0.00    +0.028 A 
ATOM      9  C   UNL     1       6.049  -9.107  -0.079  0.00  0.00    +0.012 A 
ATOM     10  C   UNL     1       5.467 -10.358  -0.041  0.00  0.00    +0.001 A 
ATOM     11  C   UNL     1       6.258 -11.490   0.065  0.00  0.00    +0.002 A 
ATOM     12  C   UNL     1       7.632 -11.384   0.135  0.00  0.00    +0.024 A 
ATOM     13  C   UNL     1       8.238 -10.133   0.098  0.00  0.00    +0.043 A 
ATOM     14  N   UNL     1       9.572  -9.748   0.149  0.00  0.00    -0.280 N 
ATOM     15  C   UNL     1       9.699  -8.413   0.076  0.00  0.00    +0.269 C 
ATOM     16  O   UNL     1      10.748  -7.792   0.093  0.00  0.00    -0.268 OA
ATOM     17  H   UNL     1      10.316 -10.366   0.225  0.00  0.00    +0.155 HD
ENDBRANCH   2   6
BRANCH   1  18
ATOM     18  S   UNL     1       4.881  -4.443  -0.130  0.00  0.00    -0.088 S 
BRANCH  18  19
ATOM     19  C   UNL     1       4.926  -2.661  -0.468  0.00  0.00    +0.118 C 
BRANCH  19  20
ATOM     20  C   UNL     1       3.507  -2.093  -0.404  0.00  0.00    +0.240 C 
BRANCH  20  21
ATOM     21  O   UNL     1       3.543  -0.690  -0.671  0.00  0.00    -0.491 OA
BRANCH  21  25
ATOM     22  C   UNL     1      -0.059   1.320  -0.616  0.00  0.00    +0.000 A 
ATOM     23  C   UNL     1       1.111   2.007  -0.884  0.00  0.00    +0.004 A 
ATOM     24  C   UNL     1       2.318   1.337  -0.903  0.00  0.00    +0.045 A 
ATOM     25  C   UNL     1       2.357  -0.027  -0.653  0.00  0.00    +0.121 A 
ATOM     26  C   UNL     1       1.182  -0.714  -0.384  0.00  0.00    +0.045 A 
ATOM     27  C   UNL     1      -0.023  -0.039  -0.366  0.00  0.00    +0.004 A 
ENDBRANCH  21  25
ENDBRANCH  20  21
ENDBRANCH  19  20
ENDBRANCH  18  19
ENDBRANCH   1  18
BRANCH   3  28
ATOM     28  C   UNL     1       8.838  -4.406  -0.611  0.00  0.00    +0.135 C 
BRANCH  28  29
ATOM     29  C   UNL     1       9.708  -3.192  -0.943  0.00  0.00    +0.135 C 
ATOM     30  C   UNL     1      11.169  -3.639  -1.160  0.00  0.00    +0.035 C 
ATOM     31  C   UNL     1      11.968  -2.491  -0.485  0.00  0.00    +0.031 C 
ATOM     32  C   UNL     1      11.021  -2.121   0.684  0.00  0.00    +0.160 C 
ATOM     33  O   UNL     1       9.693  -2.270   0.153  0.00  0.00    -0.375 OA
ENDBRANCH  28  29
ENDBRANCH   3  28
TORSDOF 8
