REMARK  Name = ZINC12467468
REMARK  14 active torsions:
REMARK  status: ('A' for Active; 'I' for Inactive)
REMARK    1  A    between atoms: C_1  and  C_2
REMARK    2  A    between atoms: C_5  and  C_35
REMARK    3  A    between atoms: C_6  and  N_8
REMARK    4  A    between atoms: N_8  and  C_9
REMARK    5  A    between atoms: C_9  and  C_11
REMARK    6  A    between atoms: C_9  and  C_17
REMARK    7  A    between atoms: C_14  and  C_16
REMARK    8  A    between atoms: N_19  and  C_20
REMARK    9  A    between atoms: C_20  and  C_21
REMARK   10  A    between atoms: C_21  and  O_22
REMARK   11  A    between atoms: O_22  and  C_23
REMARK   12  A    between atoms: C_24  and  C_26
REMARK   13  A    between atoms: C_27  and  N_34
REMARK   14  A    between atoms: C_28  and  C_31
REMARK                            x       y       z     vdW  Elec       q    Type
REMARK                         _______ _______ _______ _____ _____    ______ ____
ROOT
ATOM      1  N   UNL     1      -4.159   2.533   2.233  0.00  0.00    -0.248 N 
ATOM      2  C   UNL     1      -4.715   3.704   1.864  0.00  0.00    +0.262 C 
ATOM      3  O   UNL     1      -5.910   3.882   2.007  0.00  0.00    -0.269 OA
ENDROOT
BRANCH   1   9
ATOM      4  C   UNL     1       0.397   2.731   4.067  0.00  0.00    +0.044 C 
ATOM      5  C   UNL     1      -0.554   2.416   2.942  0.00  0.00    -0.049 A 
ATOM      6  C   UNL     1      -0.068   1.923   1.744  0.00  0.00    +0.004 A 
ATOM      7  C   UNL     1      -0.937   1.633   0.709  0.00  0.00    +0.005 A 
ATOM      8  C   UNL     1      -2.294   1.834   0.868  0.00  0.00    -0.029 A 
ATOM      9  C   UNL     1      -2.785   2.329   2.069  0.00  0.00    +0.041 A 
ATOM     10  C   UNL     1      -1.910   2.615   3.109  0.00  0.00    +0.027 A 
ATOM     11  C   UNL     1      -3.241   1.516  -0.261  0.00  0.00    +0.045 C 
ENDBRANCH   1   9
BRANCH   2  12
ATOM     12  C   UNL     1      -3.881   4.763   1.292  0.00  0.00    +0.116 A 
ATOM     13  C   UNL     1      -4.247   6.033   0.844  0.00  0.00    +0.076 A 
ATOM     14  C   UNL     1      -3.160   6.764   0.364  0.00  0.00    +0.155 A 
ATOM     15  N   UNL     1      -1.964   6.217   0.368  0.00  0.00    -0.203 NA
ATOM     16  S   UNL     1      -2.128   4.771   0.975  0.00  0.00    +0.019 S 
BRANCH  14  17
ATOM     17  C   UNL     1      -3.351   8.133  -0.149  0.00  0.00    +0.262 C 
ATOM     18  O   UNL     1      -4.459   8.633  -0.150  0.00  0.00    -0.269 OA
ATOM     19  N   UNL     1      -2.296   8.831  -0.617  0.00  0.00    -0.324 N 
ATOM     20  H   UNL     1      -1.412   8.432  -0.616  0.00  0.00    +0.145 HD
ATOM     21  H   UNL     1      -2.422   9.731  -0.954  0.00  0.00    +0.145 HD
ENDBRANCH  14  17
BRANCH  13  22
ATOM     22  N   UNL     1      -5.548   6.517   0.876  0.00  0.00    -0.355 N 
ATOM     23  H   UNL     1      -6.263   5.963   1.224  0.00  0.00    +0.142 HD
ATOM     24  H   UNL     1      -5.741   7.410   0.549  0.00  0.00    +0.142 HD
ENDBRANCH  13  22
ENDBRANCH   2  12
BRANCH   1  25
ATOM     25  C   UNL     1      -4.994   1.474   2.805  0.00  0.00    +0.233 C 
BRANCH  25  26
ATOM     26  C   UNL     1      -4.769   0.192   2.046  0.00  0.00    +0.135 A 
ATOM     27  C   UNL     1      -5.730  -0.587   1.516  0.00  0.00    +0.047 A 
ATOM     28  C   UNL     1      -5.077  -1.679   0.899  0.00  0.00    +0.045 A 
ATOM     29  C   UNL     1      -3.758  -1.502   1.088  0.00  0.00    +0.102 A 
ATOM     30  O   UNL     1      -3.577  -0.364   1.778  0.00  0.00    -0.462 OA
ATOM     31  C   UNL     1      -2.667  -2.420   0.601  0.00  0.00    +0.086 C 
ENDBRANCH  25  26
BRANCH  25  32
ATOM     32  C   UNL     1      -4.626   1.272   4.253  0.00  0.00    +0.242 C 
ATOM     33  O   UNL     1      -3.694   1.882   4.733  0.00  0.00    -0.273 OA
ATOM     34  N   UNL     1      -5.332   0.413   5.014  0.00  0.00    -0.311 N 
ATOM     35  H   UNL     1      -6.077  -0.075   4.630  0.00  0.00    +0.149 HD
BRANCH  34  36
ATOM     36  C   UNL     1      -4.975   0.216   6.421  0.00  0.00    +0.132 C 
BRANCH  36  37
ATOM     37  C   UNL     1      -5.926  -0.802   7.051  0.00  0.00    +0.178 C 
BRANCH  37  38
ATOM     38  O   UNL     1      -5.739  -2.077   6.432  0.00  0.00    -0.381 OA
ATOM     39  C   UNL     1      -6.585  -3.105   6.951  0.00  0.00    +0.194 C 
ENDBRANCH  37  38
ENDBRANCH  36  37
ENDBRANCH  34  36
ENDBRANCH  25  32
ENDBRANCH   1  25
TORSDOF 10
