REMARK  Name = ZINC20120521
REMARK  4 active torsions:
REMARK  status: ('A' for Active; 'I' for Inactive)
REMARK    1  A    between atoms: C_6  and  C_7
REMARK    2  A    between atoms: C_7  and  C_12
REMARK    3  A    between atoms: N_14  and  C_15
REMARK    4  A    between atoms: C_16  and  C_24
REMARK                            x       y       z     vdW  Elec       q    Type
REMARK                         _______ _______ _______ _____ _____    ______ ____
ROOT
ATOM      1  C   UNL     1       0.001   1.325  -0.030  0.00  0.00    +0.228 C 
ATOM      2  O   UNL     1       1.015   1.990   0.011  0.00  0.00    -0.274 OA
ATOM      3  N   UNL     1       0.079  -0.017  -0.122  0.00  0.00    -0.279 N 
ATOM      4  H   UNL     1      -0.836  -0.626  -0.071  0.00  0.00    +0.155 HD
ENDROOT
BRANCH   3   5
ATOM      5  C   UNL     1       1.312  -0.631  -0.280  0.00  0.00    +0.084 A 
ATOM      6  C   UNL     1       1.594  -1.986  -0.386  0.00  0.00    +0.068 A 
ATOM      7  C   UNL     1       2.985  -2.371  -0.549  0.00  0.00    -0.023 A 
ATOM      8  C   UNL     1       3.867  -1.348  -0.570  0.00  0.00    -0.004 A 
ATOM      9  S   UNL     1       2.877   0.107  -0.384  0.00  0.00    -0.077 S 
ATOM     10  C   UNL     1       5.355  -1.441  -0.718  0.00  0.00    +0.043 C 
ATOM     11  C   UNL     1       5.776  -2.897  -0.469  0.00  0.00    +0.005 C 
ATOM     12  C   UNL     1       4.864  -3.820  -1.281  0.00  0.00    +0.005 C 
ATOM     13  C   UNL     1       3.454  -3.815  -0.685  0.00  0.00    +0.037 C 
BRANCH   6  14
ATOM     14  C   UNL     1       0.527  -2.990  -0.339  0.00  0.00    +0.244 C 
ATOM     15  O   UNL     1      -0.019  -3.346  -1.367  0.00  0.00    -0.270 OA
ATOM     16  N   UNL     1       0.150  -3.519   0.842  0.00  0.00    -0.325 N 
ATOM     17  H   UNL     1      -0.650  -4.272   0.877  0.00  0.00    +0.145 HD
ATOM     18  H   UNL     1       0.643  -3.197   1.771  0.00  0.00    +0.145 HD
ENDBRANCH   6  14
ENDBRANCH   3   5
BRANCH   1  19
ATOM     19  C   UNL     1      -1.345   2.001   0.015  0.00  0.00    +0.072 C 
ATOM     20  C   UNL     1      -2.172   1.611  -1.223  0.00  0.00    +0.021 C 
ATOM     21  C   UNL     1      -2.470   2.919  -1.984  0.00  0.00    +0.001 C 
ATOM     22  C   UNL     1      -1.345   3.885  -1.535  0.00  0.00    +0.001 C 
ATOM     23  C   UNL     1      -1.170   3.532  -0.037  0.00  0.00    +0.021 C 
BRANCH  19  29
ATOM     24  C   UNL     1      -3.385   2.014   1.465  0.00  0.00    +0.006 A 
ATOM     25  C   UNL     1      -4.059   1.649   2.615  0.00  0.00    +0.015 A 
ATOM     26  C   UNL     1      -3.423   0.885   3.577  0.00  0.00    +0.018 A 
ATOM     27  C   UNL     1      -2.114   0.482   3.385  0.00  0.00    +0.015 A 
ATOM     28  C   UNL     1      -1.442   0.843   2.232  0.00  0.00    +0.006 A 
ATOM     29  C   UNL     1      -2.078   1.607   1.271  0.00  0.00    -0.032 A 
ATOM     30 BR   UNL     1      -4.343   0.391   5.153  0.00  0.00    -0.050 Br
ENDBRANCH  19  29
ENDBRANCH   1  19
TORSDOF 4
