REMARK  Name = ZINC01396762
REMARK  6 active torsions:
REMARK  status: ('A' for Active; 'I' for Inactive)
REMARK    1  A    between atoms: C_1  and  C_2
REMARK    2  A    between atoms: C_2  and  C_3
REMARK    3  A    between atoms: C_2  and  N_4
REMARK    4  A    between atoms: C_7  and  C_20
REMARK    5  A    between atoms: C_9  and  O_11
REMARK    6  A    between atoms: O_11  and  C_12
REMARK                            x       y       z     vdW  Elec       q    Type
REMARK                         _______ _______ _______ _____ _____    ______ ____
ROOT
ATOM      1  N   UNL     1      -1.390  -0.483  -0.058  0.00  0.00    -0.311 N 
ATOM      2  C   UNL     1      -1.639  -1.786  -0.451  0.00  0.00    +0.219 A 
ATOM      3  N   UNL     1      -2.844  -2.302  -0.253  0.00  0.00    -0.210 NA
ATOM      4  C   UNL     1      -3.119  -3.545  -0.617  0.00  0.00    +0.152 A 
ATOM      5  C   UNL     1      -2.133  -4.310  -1.211  0.00  0.00    +0.100 A 
ATOM      6  C   UNL     1      -0.876  -3.739  -1.406  0.00  0.00    +0.225 A 
ATOM      7  N   UNL     1      -0.670  -2.485  -1.022  0.00  0.00    -0.179 NA
ATOM      8  H   UNL     1      -2.091   0.040   0.361  0.00  0.00    +0.149 HD
ENDROOT
BRANCH   4   9
ATOM      9  C   UNL     1      -4.493  -4.120  -0.385  0.00  0.00    +0.434 C 
ATOM     10  F   UNL     1      -5.336  -3.124   0.120  0.00  0.00    -0.164 F 
ATOM     11  F   UNL     1      -5.009  -4.598  -1.594  0.00  0.00    -0.164 F 
ATOM     12  F   UNL     1      -4.410  -5.171   0.535  0.00  0.00    -0.164 F 
ENDBRANCH   4   9
BRANCH   1  14
ATOM     13  C   UNL     1      -0.194   1.629  -0.356  0.00  0.00    +0.027 C 
ATOM     14  C   UNL     1      -0.066   0.107  -0.274  0.00  0.00    +0.067 C 
ATOM     15  C   UNL     1       0.854  -0.266   0.890  0.00  0.00    +0.027 C 
ENDBRANCH   1  14
BRANCH   6  16
ATOM     16  O   UNL     1       0.120  -4.453  -1.985  0.00  0.00    -0.436 OA
BRANCH  16  17
ATOM     17  C   UNL     1       1.354  -3.887  -2.055  0.00  0.00    +0.149 A 
ATOM     18  C   UNL     1       1.737  -3.194  -3.194  0.00  0.00    +0.049 A 
ATOM     19  C   UNL     1       2.991  -2.619  -3.263  0.00  0.00    +0.023 A 
ATOM     20  C   UNL     1       3.866  -2.733  -2.197  0.00  0.00    +0.043 A 
ATOM     21  C   UNL     1       3.487  -3.424  -1.060  0.00  0.00    +0.043 A 
ATOM     22  C   UNL     1       2.230  -3.996  -0.984  0.00  0.00    +0.085 A 
ATOM     23 CL   UNL     1       1.752  -4.856   0.446  0.00  0.00    -0.080 Cl
ATOM     24 CL   UNL     1       5.441  -2.010  -2.287  0.00  0.00    -0.083 Cl
ENDBRANCH  16  17
ENDBRANCH   6  16
TORSDOF 4
