REMARK  Name = ZINC09647914
REMARK  4 active torsions:
REMARK  status: ('A' for Active; 'I' for Inactive)
REMARK    1  A    between atoms: C_1  and  C_2
REMARK    2  A    between atoms: C_10  and  C_11
REMARK    3  A    between atoms: C_11  and  C_13
REMARK    4  A    between atoms: C_13  and  N_14
REMARK                            x       y       z     vdW  Elec       q    Type
REMARK                         _______ _______ _______ _____ _____    ______ ____
ROOT
ATOM      1  N   UNL     1       2.714   4.795   1.221  0.00  0.00    -0.216 N 
ATOM      2  C   UNL     1       1.577   4.093   1.399  0.00  0.00    +0.252 C 
ATOM      3  O   UNL     1       0.987   3.902   2.441  0.00  0.00    -0.272 OA
ATOM      4  C   UNL     1       1.192   3.592   0.026  0.00  0.00    +0.144 C 
ATOM      5  C   UNL     1      -0.168   4.150  -0.380  0.00  0.00    +0.081 C 
ATOM      6  C   UNL     1      -1.252   3.396   0.402  0.00  0.00    +0.232 C 
ATOM      7  O   UNL     1      -1.217   2.022   0.014  0.00  0.00    -0.492 OA
ATOM      8  C   UNL     1      -0.017   1.386   0.010  0.00  0.00    +0.126 A 
ATOM      9  C   UNL     1       1.177   2.089   0.002  0.00  0.00    +0.027 A 
ATOM     10  C   UNL     1       2.379   1.403  -0.023  0.00  0.00    +0.010 A 
ATOM     11  C   UNL     1       2.394   0.021  -0.032  0.00  0.00    +0.001 A 
ATOM     12  C   UNL     1       1.204  -0.682  -0.018  0.00  0.00    +0.004 A 
ATOM     13  C   UNL     1       0.002  -0.004   0.002  0.00  0.00    +0.046 A 
ATOM     14  N   UNL     1       2.247   4.112  -0.852  0.00  0.00    -0.281 N 
ATOM     15  C   UNL     1       3.092   4.804  -0.063  0.00  0.00    +0.310 C 
ATOM     16  O   UNL     1       4.086   5.372  -0.471  0.00  0.00    -0.252 OA
ATOM     17  H   UNL     1       2.321   3.984  -1.811  0.00  0.00    +0.152 HD
ENDROOT
BRANCH   1  18
ATOM     18  C   UNL     1       3.445   5.466   2.299  0.00  0.00    +0.198 C 
BRANCH  18  19
ATOM     19  C   UNL     1       4.458   4.517   2.885  0.00  0.00    +0.188 C 
ATOM     20  O   UNL     1       4.560   3.390   2.445  0.00  0.00    -0.290 OA
BRANCH  19  30
ATOM     21  C   UNL     1       6.548   2.808   4.214  0.00  0.00    +0.045 C 
ATOM     22  C   UNL     1       6.259   4.234   4.605  0.00  0.00    -0.025 A 
ATOM     23  C   UNL     1       6.984   4.840   5.645  0.00  0.00    -0.007 A 
ATOM     24  C   UNL     1       8.018   4.277   6.439  0.00  0.00    +0.009 A 
ATOM     25  C   UNL     1       8.621   5.005   7.412  0.00  0.00    +0.001 A 
ATOM     26  C   UNL     1       8.255   6.321   7.670  0.00  0.00    +0.001 A 
ATOM     27  C   UNL     1       7.255   6.909   6.922  0.00  0.00    +0.015 A 
ATOM     28  C   UNL     1       6.633   6.181   5.930  0.00  0.00    +0.020 A 
ATOM     29  S   UNL     1       5.344   6.530   4.760  0.00  0.00    -0.085 S 
ATOM     30  C   UNL     1       5.293   4.940   3.950  0.00  0.00    +0.060 A 
ENDBRANCH  19  30
ENDBRANCH  18  19
ENDBRANCH   1  18
TORSDOF 3
