REMARK  Name = ZINC23668635
REMARK  7 active torsions:
REMARK  status: ('A' for Active; 'I' for Inactive)
REMARK    1  A    between atoms: C_1  and  C_2
REMARK    2  A    between atoms: C_2  and  C_4
REMARK    3  A    between atoms: C_2  and  N_12
REMARK    4  A    between atoms: N_12  and  C_13
REMARK    5  A    between atoms: N_12  and  C_14
REMARK    6  A    between atoms: C_14  and  C_15
REMARK    7  A    between atoms: C_28  and  C_30
REMARK                            x       y       z     vdW  Elec       q    Type
REMARK                         _______ _______ _______ _____ _____    ______ ____
ROOT
ATOM      1  C   UNL     1       1.275   4.032  -1.198  0.00  0.00    +0.204 C 
ATOM      2  O   UNL     1       1.322   5.236  -1.052  0.00  0.00    -0.277 OA
ATOM      3  N   UNL     1       1.786   3.218  -0.254  0.00  0.00    -0.259 N 
ATOM      4  C   UNL     1       1.737   1.827  -0.410  0.00  0.00    +0.058 A 
ATOM      5  C   UNL     1       0.541   1.142  -0.270  0.00  0.00    +0.025 A 
ATOM      6  C   UNL     1       0.521  -0.237  -0.378  0.00  0.00    +0.002 A 
ATOM      7  C   UNL     1       1.690  -0.933  -0.627  0.00  0.00    +0.002 A 
ATOM      8  C   UNL     1       2.885  -0.256  -0.782  0.00  0.00    +0.025 A 
ATOM      9  C   UNL     1       2.913   1.125  -0.680  0.00  0.00    +0.055 A 
ATOM     10  N   UNL     1       4.105   1.835  -0.863  0.00  0.00    -0.284 N 
ATOM     11  C   UNL     1       4.484   2.779   0.026  0.00  0.00    +0.219 C 
ATOM     12  O   UNL     1       5.474   3.445  -0.188  0.00  0.00    -0.275 OA
ATOM     13  C   UNL     1       3.684   3.008   1.281  0.00  0.00    +0.128 C 
ATOM     14  C   UNL     1       2.400   3.772   0.954  0.00  0.00    +0.194 C 
ATOM     15  H   UNL     1       4.741   1.626  -1.736  0.00  0.00    +0.155 HD
ENDROOT
BRANCH  14  16
ATOM     16  C   UNL     1       1.422   3.646   2.124  0.00  0.00    +0.409 C 
ATOM     17  F   UNL     1       2.004   4.182   3.278  0.00  0.00    -0.169 F 
ATOM     18  F   UNL     1       0.247   4.345   1.827  0.00  0.00    -0.169 F 
ATOM     19  F   UNL     1       1.121   2.297   2.337  0.00  0.00    -0.169 F 
ENDBRANCH  14  16
BRANCH   1  20
ATOM     20  C   UNL     1       0.645   3.448  -2.437  0.00  0.00    +0.020 C 
BRANCH  20  21
ATOM     21  N   UNL     1       0.169   4.535  -3.303  0.00  0.00    +0.388 N 
ATOM     22  C   UNL     1      -0.931   5.272  -2.667  0.00  0.00    -0.095 C 
ATOM     23  H   UNL     1       1.003   5.236  -3.455  0.00  0.00    -0.081 HD
BRANCH  21  25
ATOM     24  C   UNL     1      -1.511   3.190  -4.473  0.00  0.00    -0.008 C 
ATOM     25  C   UNL     1      -0.234   4.020  -4.619  0.00  0.00    -0.040 C 
BRANCH  25  26
ATOM     26  C   UNL     1      -0.490   5.175  -5.553  0.00  0.00    -0.058 A 
ATOM     27  C   UNL     1       0.265   6.329  -5.447  0.00  0.00    +0.005 A 
ATOM     28  C   UNL     1       0.033   7.389  -6.303  0.00  0.00    +0.041 A 
ATOM     29  C   UNL     1      -0.957   7.297  -7.266  0.00  0.00    +0.158 A 
ATOM     30  C   UNL     1      -1.714   6.140  -7.372  0.00  0.00    +0.159 A 
ATOM     31  C   UNL     1      -1.475   5.078  -6.517  0.00  0.00    +0.043 A 
ATOM     32  F   UNL     1      -2.681   6.048  -8.311  0.00  0.00    -0.202 F 
ATOM     33  F   UNL     1      -1.185   8.333  -8.103  0.00  0.00    -0.202 F 
ENDBRANCH  25  26
ENDBRANCH  21  25
ENDBRANCH  20  21
ENDBRANCH   1  20
TORSDOF 5
