REMARK  Name = ZINC66424912
REMARK  9 active torsions:
REMARK  status: ('A' for Active; 'I' for Inactive)
REMARK    1  A    between atoms: C_1  and  C_2
REMARK    2  A    between atoms: C_2  and  N_22
REMARK    3  A    between atoms: C_8  and  C_10
REMARK    4  A    between atoms: N_22  and  C_23
REMARK    5  A    between atoms: C_24  and  O_26
REMARK    6  A    between atoms: O_26  and  C_27
REMARK    7  A    between atoms: C_27  and  C_28
REMARK    8  A    between atoms: C_27  and  C_29
REMARK    9  A    between atoms: C_27  and  C_30
REMARK                            x       y       z     vdW  Elec       q    Type
REMARK                         _______ _______ _______ _____ _____    ______ ____
ROOT
ATOM      1  C   UNL     1       0.981   2.231   0.379  0.00  0.00    +0.032 C 
ATOM      2  C   UNL     1       0.772   0.734   0.146  0.00  0.00    +0.040 C 
ATOM      3  C   UNL     1       1.574   0.292  -1.081  0.00  0.00    +0.045 C 
ATOM      4  C   UNL     1       1.335  -1.200  -1.331  0.00  0.00    +0.110 C 
ATOM      5  N   UNL     1       1.653  -1.943  -0.104  0.00  0.00    -0.297 N 
ATOM      6  C   UNL     1       1.006  -1.541   1.153  0.00  0.00    +0.110 C 
ATOM      7  C   UNL     1       1.248  -0.045   1.375  0.00  0.00    +0.045 C 
ATOM      8  C   UNL     1       2.521  -2.973  -0.130  0.00  0.00    +0.247 C 
ATOM      9  O   UNL     1       2.721  -3.625   0.877  0.00  0.00    -0.270 OA
ENDROOT
BRANCH   8  10
ATOM     10  C   UNL     1       3.230  -3.310  -1.380  0.00  0.00    +0.039 A 
ATOM     11  C   UNL     1       4.583  -3.660  -1.345  0.00  0.00    +0.015 A 
ATOM     12  C   UNL     1       5.247  -3.975  -2.509  0.00  0.00    +0.028 A 
ATOM     13  C   UNL     1       4.572  -3.946  -3.724  0.00  0.00    +0.067 A 
ATOM     14  C   UNL     1       3.218  -3.596  -3.766  0.00  0.00    +0.068 A 
ATOM     15  C   UNL     1       2.547  -3.285  -2.598  0.00  0.00    +0.041 A 
ATOM     16  N   UNL     1       2.829  -3.657  -5.103  0.00  0.00    -0.306 N 
ATOM     17  H   UNL     1       1.942  -3.466  -5.446  0.00  0.00    +0.170 HD
ATOM     18  C   UNL     1       3.897  -4.025  -5.837  0.00  0.00    +0.325 A 
ATOM     19  O   UNL     1       3.899  -4.173  -7.044  0.00  0.00    -0.247 OA
ATOM     20  N   UNL     1       4.960  -4.206  -5.032  0.00  0.00    -0.306 N 
ATOM     21  H   UNL     1       5.848  -4.473  -5.317  0.00  0.00    +0.170 HD
ENDBRANCH   8  10
BRANCH   2  22
ATOM     22  N   UNL     1      -0.651   0.468  -0.079  0.00  0.00    -0.265 N 
ATOM     23  C   UNL     1      -1.116   0.042  -1.401  0.00  0.00    +0.136 C 
ATOM     24  C   UNL     1      -1.532   0.616   0.930  0.00  0.00    +0.404 C 
ATOM     25  O   UNL     1      -1.146   0.970   2.026  0.00  0.00    -0.226 OA
BRANCH  24  26
ATOM     26  O   UNL     1      -2.840   0.372   0.723  0.00  0.00    -0.445 OA
BRANCH  26  27
ATOM     27  C   UNL     1      -3.717   0.550   1.837  0.00  0.00    +0.107 C 
ATOM     28  C   UNL     1      -3.640   1.999   2.321  0.00  0.00    +0.055 C 
ATOM     29  C   UNL     1      -5.151   0.229   1.412  0.00  0.00    +0.055 C 
ATOM     30  C   UNL     1      -3.298  -0.389   2.970  0.00  0.00    +0.055 C 
ENDBRANCH  26  27
ENDBRANCH  24  26
ENDBRANCH   2  22
TORSDOF 4
