REMARK  Name = ZINC08915353
REMARK  7 active torsions:
REMARK  status: ('A' for Active; 'I' for Inactive)
REMARK    1  A    between atoms: C_4  and  C_7
REMARK    2  A    between atoms: C_7  and  C_9
REMARK    3  A    between atoms: C_11  and  C_23
REMARK    4  A    between atoms: C_17  and  C_18
REMARK    5  A    between atoms: C_17  and  O_22
REMARK    6  A    between atoms: C_26  and  C_28
REMARK    7  A    between atoms: C_32  and  N_34
REMARK                            x       y       z     vdW  Elec       q    Type
REMARK                         _______ _______ _______ _____ _____    ______ ____
ROOT
ATOM      1  C   UNL     1       1.423   1.982  -0.001  0.00  0.00    +0.147 C 
ATOM      2  C   UNL     1      -0.018   1.460   0.010  0.00  0.00    +0.156 C 
ATOM      3  N   UNL     1       0.002  -0.004   0.002  0.00  0.00    -0.289 N 
ATOM      4  C   UNL     1       1.007  -0.685  -0.568  0.00  0.00    +0.302 C 
ATOM      5  O   UNL     1       0.970  -1.900  -0.557  0.00  0.00    -0.253 OA
ATOM      6  N   UNL     1       2.052  -0.079  -1.151  0.00  0.00    -0.264 N 
ATOM      7  C   UNL     1       2.150   1.381  -1.208  0.00  0.00    +0.243 C 
ATOM      8  H   UNL     1      -0.727  -0.491   0.417  0.00  0.00    +0.151 HD
ATOM      9  H   UNL     1       2.757  -0.618  -1.542  0.00  0.00    +0.153 HD
ENDROOT
BRANCH   2  10
ATOM     10  C   UNL     1      -0.721   1.947   1.251  0.00  0.00    +0.127 A 
ATOM     11  C   UNL     1      -1.570   2.991   1.314  0.00  0.00    +0.047 A 
ATOM     12  C   UNL     1      -1.997   3.096   2.652  0.00  0.00    +0.050 A 
ATOM     13  C   UNL     1      -1.372   2.105   3.342  0.00  0.00    +0.135 A 
ATOM     14  O   UNL     1      -0.601   1.416   2.478  0.00  0.00    -0.458 OA
BRANCH  13  15
ATOM     15  C   UNL     1      -1.514   1.831   4.787  0.00  0.00    +0.019 A 
ATOM     16  C   UNL     1      -2.351   2.625   5.572  0.00  0.00    +0.012 A 
ATOM     17  C   UNL     1      -2.478   2.364   6.921  0.00  0.00    +0.003 A 
ATOM     18  C   UNL     1      -1.779   1.317   7.495  0.00  0.00    +0.033 A 
ATOM     19  C   UNL     1      -0.948   0.526   6.723  0.00  0.00    +0.127 A 
ATOM     20  C   UNL     1      -0.816   0.773   5.372  0.00  0.00    +0.044 A 
BRANCH  19  21
ATOM     21  N   UNL     1      -0.205  -0.593   7.345  0.00  0.00    +0.056 N 
ATOM     22  O   UNL     1      -0.325  -0.815   8.537  0.00  0.00    -0.126 OA
ATOM     23  O   UNL     1       0.527  -1.290   6.666  0.00  0.00    -0.126 OA
ENDBRANCH  19  21
ENDBRANCH  13  15
ENDBRANCH   2  10
BRANCH   7  24
ATOM     24  C   UNL     1       3.623   1.796  -1.178  0.00  0.00    +0.436 C 
ATOM     25  F   UNL     1       4.287   1.241  -2.277  0.00  0.00    -0.166 F 
ATOM     26  F   UNL     1       3.715   3.191  -1.233  0.00  0.00    -0.166 F 
ATOM     27  F   UNL     1       4.212   1.336   0.005  0.00  0.00    -0.166 F 
ENDBRANCH   7  24
BRANCH   1  28
ATOM     28  C   UNL     1       2.121   1.568   1.269  0.00  0.00    +0.173 C 
ATOM     29  O   UNL     1       2.795   0.560   1.289  0.00  0.00    -0.292 OA
BRANCH  28  33
ATOM     30  C   UNL     1       1.730   3.928   4.771  0.00  0.00    +0.000 A 
ATOM     31  C   UNL     1       2.499   2.778   4.799  0.00  0.00    +0.001 A 
ATOM     32  C   UNL     1       2.631   2.005   3.664  0.00  0.00    +0.011 A 
ATOM     33  C   UNL     1       1.985   2.386   2.484  0.00  0.00    +0.018 A 
ATOM     34  C   UNL     1       1.213   3.553   2.463  0.00  0.00    +0.011 A 
ATOM     35  C   UNL     1       1.086   4.311   3.607  0.00  0.00    +0.001 A 
ENDBRANCH  28  33
ENDBRANCH   1  28
BRANCH   7  36
ATOM     36  O   UNL     1       1.546   1.853  -2.414  0.00  0.00    -0.364 OA
ATOM     37  H   UNL     1       1.955   1.508  -3.220  0.00  0.00    +0.212 HD
ENDBRANCH   7  36
TORSDOF 7
