REMARK  Name = ZINC32860163
REMARK  11 active torsions:
REMARK  status: ('A' for Active; 'I' for Inactive)
REMARK    1  A    between atoms: C_1  and  C_2
REMARK    2  A    between atoms: C_2  and  C_3
REMARK    3  A    between atoms: C_7  and  C_32
REMARK    4  A    between atoms: C_8  and  N_9
REMARK    5  A    between atoms: C_10  and  C_12
REMARK    6  A    between atoms: C_12  and  N_13
REMARK    7  A    between atoms: N_13  and  C_14
REMARK    8  A    between atoms: N_13  and  C_15
REMARK    9  A    between atoms: C_15  and  C_16
REMARK   10  A    between atoms: C_29  and  C_31
REMARK   11  A    between atoms: C_32  and  C_33
REMARK                            x       y       z     vdW  Elec       q    Type
REMARK                         _______ _______ _______ _____ _____    ______ ____
ROOT
ATOM      1  N   UNL     1      -2.814   5.162  -2.774  0.00  0.00    +0.389 N 
ATOM      2  C   UNL     1      -2.610   6.606  -2.595  0.00  0.00    -0.095 C 
ATOM      3  H   UNL     1      -1.836   4.669  -2.684  0.00  0.00    -0.081 HD
ENDROOT
BRANCH   1   4
ATOM      4  C   UNL     1      -3.349   4.868  -4.110  0.00  0.00    +0.019 C 
BRANCH   4   6
ATOM      5  N   UNL     1      -2.587   5.027  -6.458  0.00  0.00    -0.287 N 
ATOM      6  C   UNL     1      -2.316   5.215  -5.152  0.00  0.00    +0.201 C 
ATOM      7  O   UNL     1      -1.241   5.664  -4.814  0.00  0.00    -0.278 OA
ATOM      8  H   UNL     1      -3.563   4.622  -6.765  0.00  0.00    +0.155 HD
BRANCH   5  14
ATOM      9  C   UNL     1      -1.383   4.475  -8.477  0.00  0.00    -0.026 A 
ATOM     10  C   UNL     1      -0.438   4.795  -9.433  0.00  0.00    +0.007 A 
ATOM     11  C   UNL     1       0.271   5.978  -9.337  0.00  0.00    +0.020 A 
ATOM     12  C   UNL     1       0.033   6.848  -8.287  0.00  0.00    +0.046 A 
ATOM     13  C   UNL     1      -0.914   6.535  -7.331  0.00  0.00    -0.008 A 
ATOM     14  C   UNL     1      -1.628   5.347  -7.425  0.00  0.00    +0.041 A 
ATOM     15 CL   UNL     1       0.926   8.332  -8.171  0.00  0.00    -0.083 Cl
BRANCH   9  17
ATOM     16  C   UNL     1      -3.508   3.446  -9.234  0.00  0.00    +0.009 C 
ATOM     17  C   UNL     1      -2.151   3.182  -8.580  0.00  0.00    +0.033 C 
ENDBRANCH   9  17
BRANCH  13  18
ATOM     18  C   UNL     1      -1.173   7.481  -6.187  0.00  0.00    +0.035 C 
ATOM     19  C   UNL     1       0.160   8.000  -5.643  0.00  0.00    +0.009 C 
ENDBRANCH  13  18
ENDBRANCH   5  14
ENDBRANCH   4   6
ENDBRANCH   1   4
BRANCH   1  20
ATOM     20  C   UNL     1      -3.690   4.621  -1.726  0.00  0.00    +0.019 C 
BRANCH  20  21
ATOM     21  C   UNL     1      -2.998   4.723  -0.391  0.00  0.00    +0.204 C 
ATOM     22  O   UNL     1      -1.885   5.199  -0.320  0.00  0.00    -0.277 OA
ATOM     23  N   UNL     1      -3.616   4.284   0.724  0.00  0.00    -0.268 N 
ATOM     24  C   UNL     1      -4.902   3.733   0.655  0.00  0.00    +0.058 A 
ATOM     25  C   UNL     1      -6.006   4.540   0.433  0.00  0.00    +0.025 A 
ATOM     26  C   UNL     1      -7.272   3.985   0.418  0.00  0.00    +0.002 A 
ATOM     27  C   UNL     1      -7.441   2.627   0.623  0.00  0.00    +0.002 A 
ATOM     28  C   UNL     1      -6.343   1.813   0.833  0.00  0.00    +0.025 A 
ATOM     29  C   UNL     1      -5.071   2.360   0.844  0.00  0.00    +0.055 A 
ATOM     30  N   UNL     1      -3.943   1.551   1.024  0.00  0.00    -0.284 N 
ATOM     31  C   UNL     1      -2.993   1.891   1.922  0.00  0.00    +0.219 C 
ATOM     32  O   UNL     1      -1.981   1.228   2.008  0.00  0.00    -0.275 OA
ATOM     33  C   UNL     1      -3.183   3.087   2.817  0.00  0.00    +0.118 C 
ATOM     34  C   UNL     1      -2.956   4.376   2.027  0.00  0.00    +0.087 C 
ATOM     35  C   UNL     1      -3.535   5.559   2.806  0.00  0.00    +0.029 C 
ATOM     36  H   UNL     1      -3.825   0.632   0.432  0.00  0.00    +0.155 HD
ENDBRANCH  20  21
ENDBRANCH   1  20
TORSDOF 7
