REMARK  Name = ZINC24528364
REMARK  8 active torsions:
REMARK  status: ('A' for Active; 'I' for Inactive)
REMARK    1  A    between atoms: C_1  and  C_2
REMARK    2  A    between atoms: C_2  and  C_4
REMARK    3  A    between atoms: C_2  and  N_11
REMARK    4  A    between atoms: C_4  and  C_5
REMARK    5  A    between atoms: C_5  and  C_6
REMARK    6  A    between atoms: N_17  and  C_20
REMARK    7  A    between atoms: C_20  and  C_21
REMARK    8  A    between atoms: C_26  and  C_31
REMARK                            x       y       z     vdW  Elec       q    Type
REMARK                         _______ _______ _______ _____ _____    ______ ____
ROOT
ATOM      1  N   UNL     1       1.710   6.537   1.513  0.00  0.00    -0.297 N 
ATOM      2  C   UNL     1       1.980   7.739   0.966  0.00  0.00    +0.302 C 
ATOM      3  O   UNL     1       3.057   8.268   1.164  0.00  0.00    -0.253 OA
ATOM      4  N   UNL     1       1.057   8.354   0.201  0.00  0.00    -0.289 N 
ATOM      5  C   UNL     1      -0.278   7.767   0.011  0.00  0.00    +0.091 C 
ATOM      6  C   UNL     1      -1.328   8.845   0.326  0.00  0.00    -0.059 C 
ATOM      7  N   UNL     1      -1.054  10.040  -0.484  0.00  0.00    +0.386 N 
ATOM      8  C   UNL     1       0.248  10.628  -0.142  0.00  0.00    -0.059 C 
ATOM      9  C   UNL     1       1.360   9.627  -0.471  0.00  0.00    +0.091 C 
ATOM     10  H   UNL     1       0.708   6.096   1.403  0.00  0.00    +0.151 HD
ATOM     11  H   UNL     1      -1.013   9.728  -1.538  0.00  0.00    -0.081 HD
ENDROOT
BRANCH   1  13
ATOM     12  C   UNL     1       2.775   6.308   3.703  0.00  0.00    +0.028 C 
ATOM     13  C   UNL     1       2.750   5.819   2.253  0.00  0.00    +0.072 C 
BRANCH  13  14
ATOM     14  C   UNL     1       2.450   4.318   2.227  0.00  0.00    +0.030 C 
BRANCH  14  15
ATOM     15  C   UNL     1       2.549   3.804   0.789  0.00  0.00    +0.076 C 
BRANCH  15  16
ATOM     16  C   UNL     1       2.254   2.326   0.763  0.00  0.00    +0.105 A 
ATOM     17  C   UNL     1       1.040   1.769   0.601  0.00  0.00    +0.044 A 
ATOM     18  C   UNL     1       1.225   0.368   0.640  0.00  0.00    +0.041 A 
ATOM     19  C   UNL     1       2.540   0.153   0.824  0.00  0.00    +0.195 A 
ATOM     20  O   UNL     1       3.158   1.343   0.898  0.00  0.00    -0.468 OA
ENDBRANCH  15  16
ENDBRANCH  14  15
ENDBRANCH  13  14
ENDBRANCH   1  13
BRANCH   7  21
ATOM     21  C   UNL     1      -2.131  11.028  -0.345  0.00  0.00    -0.003 C 
BRANCH  21  22
ATOM     22  C   UNL     1      -1.954  12.114  -1.375  0.00  0.00    +0.095 A 
ATOM     23  N   UNL     1      -2.771  13.198  -1.350  0.00  0.00    -0.197 NA
ATOM     24  C   UNL     1      -2.642  14.191  -2.249  0.00  0.00    +0.282 A 
ATOM     25  O   UNL     1      -3.381  15.160  -2.211  0.00  0.00    -0.265 OA
ATOM     26  C   UNL     1      -1.629  14.089  -3.255  0.00  0.00    +0.080 A 
ATOM     27  C   UNL     1      -1.298  15.019  -4.329  0.00  0.00    +0.010 A 
ATOM     28  C   UNL     1      -0.282  14.706  -5.172  0.00  0.00    +0.057 A 
ATOM     29  S   UNL     1       0.289  13.131  -4.563  0.00  0.00    -0.078 S 
ATOM     30  C   UNL     1      -0.836  12.931  -3.205  0.00  0.00    +0.092 A 
ATOM     31  N   UNL     1      -1.020  11.992  -2.280  0.00  0.00    -0.339 N 
ATOM     32  H   UNL     1      -0.371  11.104  -2.286  0.00  0.00    +0.167 HD
BRANCH  27  33
ATOM     33  C   UNL     1      -2.054  16.278  -4.495  0.00  0.00    +0.021 A 
ATOM     34  C   UNL     1      -1.583  17.556  -4.635  0.00  0.00    +0.016 A 
ATOM     35  C   UNL     1      -2.490  18.585  -4.781  0.00  0.00    +0.008 A 
ATOM     36  C   UNL     1      -3.817  18.302  -4.772  0.00  0.00    +0.046 A 
ATOM     37  S   UNL     1      -3.821  16.530  -4.559  0.00  0.00    -0.097 S 
ENDBRANCH  27  33
ENDBRANCH  21  22
ENDBRANCH   7  21
TORSDOF 7
