REMARK  Name = ZINC05082345
REMARK  9 active torsions:
REMARK  status: ('A' for Active; 'I' for Inactive)
REMARK    1  A    between atoms: C_1  and  C_2
REMARK    2  A    between atoms: C_5  and  C_8
REMARK    3  A    between atoms: C_8  and  N_9
REMARK    4  A    between atoms: C_10  and  C_12
REMARK    5  A    between atoms: C_12  and  S_13
REMARK    6  A    between atoms: S_13  and  C_14
REMARK    7  A    between atoms: C_19  and  N_23
REMARK    8  A    between atoms: C_20  and  N_22
REMARK    9  A    between atoms: C_24  and  C_26
REMARK                            x       y       z     vdW  Elec       q    Type
REMARK                         _______ _______ _______ _____ _____    ______ ____
ROOT
ATOM      1  C   UNL     1      -0.006   0.010   0.012  0.00  0.00    +0.171 A 
ATOM      2  N   UNL     1      -0.019   1.372   0.011  0.00  0.00    -0.300 N 
ATOM      3  H   UNL     1      -0.890   1.862   0.018  0.00  0.00    +0.171 HD
ATOM      4  C   UNL     1       1.141   2.062   0.000  0.00  0.00    +0.275 A 
ATOM      5  O   UNL     1       1.138   3.283  -0.001  0.00  0.00    -0.266 OA
ATOM      6  C   UNL     1       2.350   1.351  -0.010  0.00  0.00    +0.139 A 
ATOM      7  C   UNL     1       2.306  -0.040  -0.009  0.00  0.00    +0.146 A 
ATOM      8  N   UNL     1       1.124  -0.666   0.002  0.00  0.00    -0.207 NA
ENDROOT
BRANCH   6   9
ATOM      9  N   UNL     1       3.583   2.031  -0.021  0.00  0.00    -0.272 N 
ATOM     10  C   UNL     1       3.879   2.874  -1.031  0.00  0.00    +0.284 C 
ATOM     11  O   UNL     1       3.047   3.113  -1.887  0.00  0.00    -0.266 OA
ATOM     12  H   UNL     1       4.220   1.892   0.697  0.00  0.00    +0.155 HD
BRANCH  10  13
ATOM     13  C   UNL     1       5.202   3.502  -1.097  0.00  0.00    +0.189 A 
ATOM     14  C   UNL     1       5.630   4.371  -2.060  0.00  0.00    +0.054 A 
ATOM     15  C   UNL     1       6.950   4.719  -1.732  0.00  0.00    +0.042 A 
ATOM     16  C   UNL     1       7.265   4.056  -0.597  0.00  0.00    +0.196 A 
ATOM     17  O   UNL     1       6.208   3.328  -0.215  0.00  0.00    -0.458 OA
ENDBRANCH  10  13
ENDBRANCH   6   9
BRANCH   7  18
ATOM     18  N   UNL     1       3.480  -0.772  -0.019  0.00  0.00    -0.341 N 
ATOM     19  H   UNL     1       3.447  -1.741  -0.018  0.00  0.00    +0.144 HD
ATOM     20  H   UNL     1       4.336  -0.316  -0.027  0.00  0.00    +0.144 HD
ENDBRANCH   7  18
BRANCH   1  21
ATOM     21  S   UNL     1      -1.534  -0.867   0.026  0.00  0.00    -0.078 S 
BRANCH  21  22
ATOM     22  C   UNL     1      -0.920  -2.569   0.022  0.00  0.00    +0.173 C 
BRANCH  22  24
ATOM     23  N   UNL     1      -1.868  -4.854   0.033  0.00  0.00    -0.311 N 
ATOM     24  C   UNL     1      -2.086  -3.524   0.034  0.00  0.00    +0.224 C 
ATOM     25  O   UNL     1      -3.221  -3.095   0.044  0.00  0.00    -0.275 OA
ATOM     26  H   UNL     1      -0.961  -5.197   0.025  0.00  0.00    +0.149 HD
BRANCH  23  27
ATOM     27  C   UNL     1      -3.002  -5.782   0.044  0.00  0.00    +0.139 C 
BRANCH  27  32
ATOM     28  C   UNL     1      -1.042 -11.218   0.030  0.00  0.00    +0.044 C 
ATOM     29  C   UNL     1      -1.553  -9.800   0.033  0.00  0.00    -0.050 A 
ATOM     30  C   UNL     1      -1.776  -9.149   1.232  0.00  0.00    +0.003 A 
ATOM     31  C   UNL     1      -2.245  -7.849   1.236  0.00  0.00    +0.005 A 
ATOM     32  C   UNL     1      -2.490  -7.199   0.040  0.00  0.00    -0.030 A 
ATOM     33  C   UNL     1      -2.272  -7.853  -1.159  0.00  0.00    +0.005 A 
ATOM     34  C   UNL     1      -1.799  -9.151  -1.162  0.00  0.00    +0.003 A 
ENDBRANCH  27  32
ENDBRANCH  23  27
ENDBRANCH  22  24
ENDBRANCH  21  22
ENDBRANCH   1  21
TORSDOF 8
