REMARK  Name = ZINC16890248
REMARK  8 active torsions:
REMARK  status: ('A' for Active; 'I' for Inactive)
REMARK    1  A    between atoms: C_1  and  C_2
REMARK    2  A    between atoms: C_2  and  C_12
REMARK    3  A    between atoms: N_3  and  N_4
REMARK    4  A    between atoms: C_5  and  C_7
REMARK    5  A    between atoms: C_7  and  C_8
REMARK    6  A    between atoms: C_8  and  C_9
REMARK    7  A    between atoms: C_9  and  C_10
REMARK    8  A    between atoms: C_13  and  C_25
REMARK                            x       y       z     vdW  Elec       q    Type
REMARK                         _______ _______ _______ _____ _____    ______ ____
ROOT
ATOM      1  C   UNL     1      -2.842   4.751  -0.981  0.00  0.00    +0.070 A 
ATOM      2  C   UNL     1      -2.538   3.805   0.000  0.00  0.00    +0.005 A 
ATOM      3  C   UNL     1      -3.484   3.625   1.111  0.00  0.00    +0.008 A 
ATOM      4  C   UNL     1      -3.229   2.686   2.116  0.00  0.00    +0.030 A 
ATOM      5  C   UNL     1      -4.127   2.531   3.148  0.00  0.00    +0.042 A 
ATOM      6  C   UNL     1      -5.282   3.302   3.195  0.00  0.00    +0.022 A 
ATOM      7  C   UNL     1      -5.540   4.239   2.218  0.00  0.00    +0.028 A 
ATOM      8  C   UNL     1      -4.650   4.408   1.161  0.00  0.00    +0.050 A 
ATOM      9  N   UNL     1      -4.916   5.335   0.172  0.00  0.00    -0.322 N 
ATOM     10  H   UNL     1      -5.729   5.862   0.226  0.00  0.00    +0.169 HD
ATOM     11  C   UNL     1      -4.080   5.526  -0.862  0.00  0.00    +0.259 A 
ATOM     12  O   UNL     1      -4.355   6.353  -1.712  0.00  0.00    -0.267 OA
ATOM     13 CL   UNL     1      -3.814   1.368   4.398  0.00  0.00    -0.084 Cl
ENDROOT
BRANCH   2  14
ATOM     14  C   UNL     1      -1.301   3.001  -0.079  0.00  0.00    -0.016 A 
ATOM     15  C   UNL     1      -1.372   1.625  -0.307  0.00  0.00    +0.008 A 
ATOM     16  C   UNL     1      -0.213   0.880  -0.376  0.00  0.00    +0.001 A 
ATOM     17  C   UNL     1       1.018   1.495  -0.230  0.00  0.00    +0.000 A 
ATOM     18  C   UNL     1       1.096   2.858  -0.008  0.00  0.00    +0.001 A 
ATOM     19  C   UNL     1      -0.055   3.615   0.068  0.00  0.00    +0.008 A 
ENDBRANCH   2  14
BRANCH   1  21
ATOM     20  C   UNL     1      -1.061   6.194  -2.159  0.00  0.00    +0.068 C 
ATOM     21  C   UNL     1      -1.934   4.967  -2.115  0.00  0.00    +0.069 C 
ATOM     22  N   UNL     1      -1.884   4.098  -3.082  0.00  0.00    -0.184 NA
BRANCH  22  23
ATOM     23  N   UNL     1      -2.778   3.019  -3.101  0.00  0.00    -0.207 N 
ATOM     24  C   UNL     1      -2.660   2.064  -4.045  0.00  0.00    +0.232 C 
ATOM     25  O   UNL     1      -1.780   2.138  -4.877  0.00  0.00    -0.274 OA
ATOM     26  H   UNL     1      -3.481   2.960  -2.436  0.00  0.00    +0.177 HD
BRANCH  24  27
ATOM     27  C   UNL     1      -3.621   0.903  -4.065  0.00  0.00    +0.098 C 
BRANCH  27  28
ATOM     28  C   UNL     1      -3.270  -0.029  -5.227  0.00  0.00    +0.020 C 
BRANCH  28  29
ATOM     29  C   UNL     1      -4.245  -1.207  -5.248  0.00  0.00    +0.125 C 
BRANCH  29  30
ATOM     30  C   UNL     1      -3.899  -2.125  -6.391  0.00  0.00    +0.356 C 
ATOM     31  O   UNL     1      -2.968  -1.864  -7.115  0.00  0.00    -0.246 OA
ATOM     32  O   UNL     1      -4.626  -3.233  -6.606  0.00  0.00    -0.246 OA
ENDBRANCH  29  30
ENDBRANCH  28  29
ENDBRANCH  27  28
ENDBRANCH  24  27
ENDBRANCH  22  23
ENDBRANCH   1  21
TORSDOF 7
