REMARK  Name = ZINC35543418
REMARK  5 active torsions:
REMARK  status: ('A' for Active; 'I' for Inactive)
REMARK    1  A    between atoms: C_1  and  C_2
REMARK    2  A    between atoms: C_2  and  N_3
REMARK    3  A    between atoms: N_3  and  C_4
REMARK    4  A    between atoms: C_4  and  C_6
REMARK    5  A    between atoms: C_4  and  C_12
REMARK                            x       y       z     vdW  Elec       q    Type
REMARK                         _______ _______ _______ _____ _____    ______ ____
ROOT
ATOM      1  C   UNL     1      -1.356  -1.981   0.004  0.00  0.00    -0.000 C 
ENDROOT
BRANCH   1   2
ATOM      2  C   UNL     1      -2.766  -2.502  -0.109  0.00  0.00    -0.019 A 
ATOM      3  C   UNL     1      -3.832  -1.687   0.219  0.00  0.00    +0.043 A 
ATOM      4  C   UNL     1      -5.127  -2.165   0.114  0.00  0.00    +0.124 A 
ATOM      5  C   UNL     1      -5.354  -3.461  -0.318  0.00  0.00    +0.041 A 
ATOM      6  C   UNL     1      -4.288  -4.276  -0.646  0.00  0.00    +0.041 A 
ATOM      7  C   UNL     1      -2.993  -3.796  -0.546  0.00  0.00    +0.125 A 
ATOM      8  F   UNL     1      -1.950  -4.592  -0.871  0.00  0.00    -0.205 F 
ATOM      9  F   UNL     1      -6.170  -1.368   0.435  0.00  0.00    -0.205 F 
ENDBRANCH   1   2
BRANCH   1  10
ATOM     10  C   UNL     1      -0.737  -2.482   1.284  0.00  0.00    -0.019 A 
ATOM     11  C   UNL     1       0.123  -3.513   1.468  0.00  0.00    +0.011 A 
ATOM     12  C   UNL     1       0.567  -3.796   2.747  0.00  0.00    +0.023 A 
ATOM     13  C   UNL     1       0.128  -3.032   3.779  0.00  0.00    +0.055 A 
ATOM     14  S   UNL     1      -0.939  -1.867   2.947  0.00  0.00    -0.088 S 
ATOM     15 BR   UNL     1       0.544  -3.162   5.619  0.00  0.00    -0.043 Br
ENDBRANCH   1  10
BRANCH   1  16
ATOM     16  N   UNL     1      -1.376  -0.512   0.012  0.00  0.00    +0.387 N 
ATOM     17  H   UNL     1      -1.848  -0.187   0.843  0.00  0.00    -0.085 HD
ATOM     18  H   UNL     1      -1.864  -0.178  -0.805  0.00  0.00    -0.085 HD
BRANCH  16  20
ATOM     19  C   UNL     1      -0.019   1.526   0.010  0.00  0.00    -0.017 C 
ATOM     20  C   UNL     1       0.002  -0.004   0.002  0.00  0.00    -0.085 C 
ENDBRANCH  16  20
ENDBRANCH   1  16
TORSDOF 4
