REMARK  Name = ZINC40915880
REMARK  9 active torsions:
REMARK  status: ('A' for Active; 'I' for Inactive)
REMARK    1  A    between atoms: C_1  and  C_2
REMARK    2  A    between atoms: C_7  and  N_8
REMARK    3  A    between atoms: C_9  and  C_11
REMARK    4  A    between atoms: C_12  and  C_31
REMARK    5  A    between atoms: C_19  and  C_21
REMARK    6  A    between atoms: C_24  and  O_27
REMARK    7  A    between atoms: O_27  and  C_28
REMARK    8  A    between atoms: C_28  and  C_29
REMARK    9  A    between atoms: C_28  and  C_30
REMARK                            x       y       z     vdW  Elec       q    Type
REMARK                         _______ _______ _______ _____ _____    ______ ____
ROOT
ATOM      1  C   UNL     1       0.100   0.174   4.723  0.00  0.00    +0.060 C 
ATOM      2  C   UNL     1       0.181  -0.439   5.913  0.00  0.00    +0.018 C 
ATOM      3  N   UNL     1       0.205   0.260   7.096  0.00  0.00    -0.287 N 
ATOM      4  C   UNL     1      -0.119   1.609   7.048  0.00  0.00    +0.218 A 
ATOM      5  N   UNL     1      -0.387   2.446   8.012  0.00  0.00    -0.201 NA
ATOM      6  C   UNL     1      -0.651   3.651   7.498  0.00  0.00    +0.247 A 
ATOM      7  N   UNL     1      -0.552   3.594   6.193  0.00  0.00    -0.156 NA
ATOM      8  N   UNL     1      -0.204   2.283   5.873  0.00  0.00    -0.221 N 
ATOM      9  C   UNL     1       0.047   1.671   4.570  0.00  0.00    +0.177 C 
ATOM     10  C   UNL     1       0.246  -1.944   5.955  0.00  0.00    +0.061 C 
ATOM     11  H   UNL     1       0.439  -0.172   7.932  0.00  0.00    +0.155 HD
ENDROOT
BRANCH   9  12
ATOM     12  C   UNL     1       1.361   2.166   4.023  0.00  0.00    -0.018 A 
ATOM     13  C   UNL     1       2.531   1.938   4.723  0.00  0.00    +0.009 A 
ATOM     14  C   UNL     1       3.736   2.392   4.224  0.00  0.00    +0.046 A 
ATOM     15  C   UNL     1       3.772   3.077   3.018  0.00  0.00    +0.121 A 
ATOM     16  C   UNL     1       2.597   3.305   2.317  0.00  0.00    +0.046 A 
ATOM     17  C   UNL     1       1.395   2.844   2.818  0.00  0.00    +0.009 A 
BRANCH  15  18
ATOM     18  O   UNL     1       4.957   3.525   2.525  0.00  0.00    -0.489 OA
BRANCH  18  19
ATOM     19  C   UNL     1       6.138   3.151   3.236  0.00  0.00    +0.167 C 
ATOM     20  C   UNL     1       7.336   3.175   2.283  0.00  0.00    +0.051 C 
ATOM     21  C   UNL     1       6.378   4.138   4.380  0.00  0.00    +0.051 C 
ENDBRANCH  18  19
ENDBRANCH  15  18
ENDBRANCH   9  12
BRANCH   1  23
ATOM     22  N   UNL     1       1.180  -1.272   3.152  0.00  0.00    -0.281 N 
ATOM     23  C   UNL     1       0.069  -0.624   3.555  0.00  0.00    +0.248 C 
ATOM     24  O   UNL     1      -0.962  -0.726   2.915  0.00  0.00    -0.270 OA
ATOM     25  H   UNL     1       1.985  -1.237   3.692  0.00  0.00    +0.155 HD
BRANCH  22  32
ATOM     26  C   UNL     1       3.565  -1.328   1.602  0.00  0.00    +0.045 C 
ATOM     27  C   UNL     1       2.315  -2.048   1.167  0.00  0.00    -0.029 A 
ATOM     28  C   UNL     1       2.306  -2.767  -0.012  0.00  0.00    +0.005 A 
ATOM     29  C   UNL     1       1.159  -3.428  -0.412  0.00  0.00    +0.000 A 
ATOM     30  C   UNL     1       0.017  -3.371   0.367  0.00  0.00    +0.002 A 
ATOM     31  C   UNL     1       0.020  -2.654   1.547  0.00  0.00    +0.023 A 
ATOM     32  C   UNL     1       1.172  -1.994   1.954  0.00  0.00    +0.037 A 
ENDBRANCH  22  32
ENDBRANCH   1  23
TORSDOF 5
