REMARK  Name = ZINC63383579
REMARK  12 active torsions:
REMARK  status: ('A' for Active; 'I' for Inactive)
REMARK    1  A    between atoms: C_1  and  C_2
REMARK    2  A    between atoms: C_2  and  C_3
REMARK    3  A    between atoms: C_3  and  C_5
REMARK    4  A    between atoms: C_3  and  C_6
REMARK    5  A    between atoms: C_6  and  C_8
REMARK    6  A    between atoms: C_6  and  N_16
REMARK    7  A    between atoms: N_10  and  C_11
REMARK    8  A    between atoms: C_11  and  C_12
REMARK    9  A    between atoms: C_12  and  C_13
REMARK   10  A    between atoms: C_13  and  O_14
REMARK   11  A    between atoms: O_14  and  C_15
REMARK   12  A    between atoms: C_17  and  C_19
REMARK                            x       y       z     vdW  Elec       q    Type
REMARK                         _______ _______ _______ _____ _____    ______ ____
ROOT
ATOM      1  C   UNL     1      -1.610  -3.803  -3.873  0.00  0.00    +0.167 C 
ATOM      2  C   UNL     1      -1.293  -5.276  -3.551  0.00  0.00    +0.065 C 
ATOM      3  C   UNL     1      -1.036  -5.970  -4.865  0.00  0.00    -0.034 C 
ATOM      4  C   UNL     1      -1.553  -7.088  -5.367  0.00  0.00    -0.001 A 
ATOM      5  C   UNL     1      -2.474  -8.082  -4.793  0.00  0.00    +0.010 A 
ATOM      6  C   UNL     1      -2.819  -9.117  -5.603  0.00  0.00    +0.001 A 
ATOM      7  C   UNL     1      -2.345  -9.261  -6.911  0.00  0.00    +0.002 A 
ATOM      8  C   UNL     1      -1.491  -8.399  -7.517  0.00  0.00    +0.026 A 
ATOM      9  C   UNL     1      -1.052  -7.272  -6.763  0.00  0.00    +0.043 A 
ATOM     10  N   UNL     1      -0.234  -6.313  -7.081  0.00  0.00    -0.375 N 
ATOM     11  C   UNL     1      -0.073  -5.439  -5.918  0.00  0.00    +0.131 C 
ATOM     12  C   UNL     1      -0.481  -3.998  -6.222  0.00  0.00    +0.134 C 
ATOM     13  N   UNL     1      -1.606  -3.643  -5.333  0.00  0.00    -0.276 N 
ATOM     14  C   UNL     1      -2.616  -3.170  -6.088  0.00  0.00    +0.248 C 
ATOM     15  O   UNL     1      -3.639  -2.677  -5.654  0.00  0.00    -0.270 OA
ATOM     16  C   UNL     1      -2.303  -3.337  -7.508  0.00  0.00    +0.042 A 
ATOM     17  C   UNL     1      -0.971  -3.849  -7.625  0.00  0.00    -0.013 A 
ATOM     18  C   UNL     1      -0.378  -4.114  -8.839  0.00  0.00    +0.006 A 
ATOM     19  C   UNL     1      -1.129  -3.846  -9.980  0.00  0.00    +0.000 A 
ATOM     20  C   UNL     1      -2.410  -3.336  -9.905  0.00  0.00    +0.001 A 
ATOM     21  C   UNL     1      -3.063  -3.068  -8.649  0.00  0.00    +0.013 A 
ATOM     22  H   UNL     1       0.196  -6.197  -7.943  0.00  0.00    +0.160 HD
ENDROOT
BRANCH   1  24
ATOM     23  N   UNL     1      -0.378  -2.905  -1.926  0.00  0.00    -0.302 N 
ATOM     24  C   UNL     1      -0.561  -2.911  -3.261  0.00  0.00    +0.235 C 
ATOM     25  O   UNL     1       0.118  -2.199  -3.970  0.00  0.00    -0.274 OA
ATOM     26  H   UNL     1      -0.921  -3.474  -1.359  0.00  0.00    +0.150 HD
BRANCH  23  27
ATOM     27  C   UNL     1       0.642  -2.038  -1.330  0.00  0.00    +0.162 C 
BRANCH  27  28
ATOM     28  C   UNL     1       1.081  -2.614  -0.009  0.00  0.00    +0.234 C 
ATOM     29  O   UNL     1       0.349  -3.365   0.599  0.00  0.00    -0.274 OA
ATOM     30  N   UNL     1       2.289  -2.293   0.498  0.00  0.00    -0.314 N 
ATOM     31  H   UNL     1       2.901  -1.745  -0.017  0.00  0.00    +0.149 HD
BRANCH  30  32
ATOM     32  C   UNL     1       2.676  -2.773   1.827  0.00  0.00    +0.106 C 
BRANCH  32  33
ATOM     33  C   UNL     1       4.083  -2.272   2.160  0.00  0.00    +0.047 C 
BRANCH  33  34
ATOM     34  C   UNL     1       4.488  -2.773   3.547  0.00  0.00    +0.161 C 
BRANCH  34  35
ATOM     35  O   UNL     1       5.801  -2.305   3.858  0.00  0.00    -0.383 OA
ATOM     36  C   UNL     1       6.278  -2.719   5.140  0.00  0.00    +0.193 C 
ENDBRANCH  34  35
ENDBRANCH  33  34
ENDBRANCH  32  33
ENDBRANCH  30  32
ENDBRANCH  27  28
BRANCH  27  37
ATOM     37  C   UNL     1       0.058  -0.641  -1.109  0.00  0.00    +0.015 C 
ATOM     38  C   UNL     1      -1.226  -0.750  -0.285  0.00  0.00    +0.010 C 
BRANCH  37  40
ATOM     39  C   UNL     1      -0.723   1.441  -2.247  0.00  0.00    +0.004 C 
ATOM     40  C   UNL     1      -0.257   0.000  -2.462  0.00  0.00    +0.002 C 
ENDBRANCH  37  40
ENDBRANCH  27  37
ENDBRANCH  23  27
ENDBRANCH   1  24
TORSDOF 9
