REMARK  Name = ZINC18067485
REMARK  4 active torsions:
REMARK  status: ('A' for Active; 'I' for Inactive)
REMARK    1  A    between atoms: C_6  and  C_10
REMARK    2  A    between atoms: C_14  and  N_16
REMARK    3  A    between atoms: C_17  and  C_18
REMARK    4  A    between atoms: C_21  and  N_24
REMARK                            x       y       z     vdW  Elec       q    Type
REMARK                         _______ _______ _______ _____ _____    ______ ____
ROOT
ATOM      1  C   UNL     1       5.335  -4.465   1.327  0.00  0.00    +0.004 A 
ATOM      2  C   UNL     1       6.466  -5.199   1.684  0.00  0.00    +0.010 A 
ATOM      3  C   UNL     1       6.487  -6.569   1.514  0.00  0.00    +0.003 A 
ATOM      4  C   UNL     1       5.390  -7.223   0.990  0.00  0.00    +0.028 A 
ATOM      5  C   UNL     1       4.251  -6.500   0.628  0.00  0.00    +0.064 A 
ATOM      6  C   UNL     1       4.223  -5.116   0.804  0.00  0.00    +0.037 A 
ENDROOT
BRANCH   1  12
ATOM      7  C   UNL     1       4.544   1.443   1.786  0.00  0.00    +0.005 A 
ATOM      8  C   UNL     1       5.852   1.401   2.297  0.00  0.00    +0.018 A 
ATOM      9  C   UNL     1       6.505   0.225   2.401  0.00  0.00    +0.093 A 
ATOM     10  N   UNL     1       5.907  -0.940   2.013  0.00  0.00    -0.306 N 
ATOM     11  C   UNL     1       6.333  -2.238   2.012  0.00  0.00    +0.121 A 
ATOM     12  C   UNL     1       5.316  -2.993   1.512  0.00  0.00    +0.090 A 
ATOM     13  N   UNL     1       4.292  -2.177   1.215  0.00  0.00    -0.228 NA
ATOM     14  C   UNL     1       4.631  -0.931   1.511  0.00  0.00    +0.138 A 
ATOM     15  C   UNL     1       3.936   0.291   1.396  0.00  0.00    +0.047 A 
ENDBRANCH   1  12
BRANCH   5  16
ATOM     16  N   UNL     1       3.163  -7.147   0.108  0.00  0.00    -0.255 NA
ATOM     17  C   UNL     1       3.295  -7.896  -0.950  0.00  0.00    +0.119 C 
BRANCH  17  18
ATOM     18  C   UNL     1       4.436  -7.692  -1.858  0.00  0.00    -0.007 A 
ATOM     19  C   UNL     1       4.704  -8.620  -2.869  0.00  0.00    +0.011 A 
ATOM     20  C   UNL     1       5.774  -8.422  -3.716  0.00  0.00    +0.033 A 
ATOM     21  C   UNL     1       6.581  -7.309  -3.568  0.00  0.00    +0.126 A 
ATOM     22  C   UNL     1       6.323  -6.386  -2.570  0.00  0.00    +0.033 A 
ATOM     23  C   UNL     1       5.253  -6.567  -1.718  0.00  0.00    +0.011 A 
BRANCH  21  24
ATOM     24  N   UNL     1       7.728  -7.104  -4.481  0.00  0.00    +0.056 N 
ATOM     25  O   UNL     1       7.957  -7.909  -5.354  0.00  0.00    -0.126 OA
ATOM     26  O   UNL     1       8.436  -6.132  -4.354  0.00  0.00    -0.126 OA
ENDBRANCH  21  24
ENDBRANCH  17  18
ENDBRANCH   5  16
TORSDOF 4
