REMARK  Name = ZINC39666317
REMARK  7 active torsions:
REMARK  status: ('A' for Active; 'I' for Inactive)
REMARK    1  A    between atoms: C_1  and  C_2
REMARK    2  A    between atoms: C_2  and  C_4
REMARK    3  A    between atoms: C_2  and  O_28
REMARK    4  A    between atoms: C_4  and  N_5
REMARK    5  A    between atoms: C_6  and  C_8
REMARK    6  A    between atoms: C_19  and  C_21
REMARK    7  A    between atoms: O_28  and  C_29
REMARK                            x       y       z     vdW  Elec       q    Type
REMARK                         _______ _______ _______ _____ _____    ______ ____
ROOT
ATOM      1  C   UNL     1      -2.379  -4.029   0.568  0.00  0.00    +0.100 C 
ATOM      2  C   UNL     1      -1.598  -4.283  -0.741  0.00  0.00    +0.121 C 
ATOM      3  N   UNL     1      -2.211  -5.506  -1.311  0.00  0.00    -0.296 N 
ATOM      4  C   UNL     1      -3.661  -5.348  -1.048  0.00  0.00    +0.115 C 
ATOM      5  C   UNL     1      -3.733  -4.729   0.362  0.00  0.00    -0.004 C 
ATOM      6  C   UNL     1      -4.869  -3.713   0.434  0.00  0.00    -0.010 C 
ATOM      7  C   UNL     1      -6.208  -4.440   0.285  0.00  0.00    -0.082 C 
ATOM      8  N   UNL     1      -6.347  -5.437   1.354  0.00  0.00    +0.379 N 
ATOM      9  C   UNL     1      -5.305  -6.462   1.221  0.00  0.00    -0.082 C 
ATOM     10  C   UNL     1      -3.928  -5.820   1.409  0.00  0.00    -0.010 C 
ATOM     11  C   UNL     1      -1.590  -6.530  -1.929  0.00  0.00    +0.248 C 
ATOM     12  O   UNL     1      -0.376  -6.556  -1.993  0.00  0.00    -0.270 OA
ATOM     13  H   UNL     1      -6.258  -4.982   2.250  0.00  0.00    -0.086 HD
ATOM     14  H   UNL     1      -7.255  -5.872   1.290  0.00  0.00    -0.086 HD
ENDROOT
BRANCH  11  15
ATOM     15  C   UNL     1      -2.385  -7.622  -2.530  0.00  0.00    +0.055 A 
ATOM     16  C   UNL     1      -3.610  -7.344  -3.139  0.00  0.00    +0.014 A 
ATOM     17  C   UNL     1      -4.346  -8.367  -3.698  0.00  0.00    +0.001 A 
ATOM     18  C   UNL     1      -3.874  -9.668  -3.657  0.00  0.00    +0.001 A 
ATOM     19  C   UNL     1      -2.662  -9.951  -3.055  0.00  0.00    +0.021 A 
ATOM     20  C   UNL     1      -1.911  -8.935  -2.496  0.00  0.00    +0.053 A 
ATOM     21 CL   UNL     1      -0.385  -9.291  -1.748  0.00  0.00    -0.083 Cl
ENDBRANCH  11  15
BRANCH   1  23
ATOM     22  N   UNL     1      -2.670  -2.055   2.030  0.00  0.00    -0.312 N 
ATOM     23  C   UNL     1      -2.579  -2.550   0.780  0.00  0.00    +0.218 C 
ATOM     24  O   UNL     1      -2.659  -1.806  -0.174  0.00  0.00    -0.275 OA
ATOM     25  H   UNL     1      -2.606  -2.651   2.793  0.00  0.00    +0.149 HD
BRANCH  22  26
ATOM     26  C   UNL     1      -2.864  -0.618   2.237  0.00  0.00    +0.148 C 
BRANCH  26  28
ATOM     27  C   UNL     1      -3.260   1.156   3.951  0.00  0.00    +0.053 C 
ATOM     28  C   UNL     1      -2.933  -0.323   3.737  0.00  0.00    +0.187 C 
BRANCH  28  29
ATOM     29  O   UNL     1      -1.673  -0.624   4.340  0.00  0.00    -0.486 OA
BRANCH  29  30
ATOM     30  C   UNL     1      -1.677  -0.905   5.670  0.00  0.00    +0.139 A 
ATOM     31  C   UNL     1      -2.874  -0.938   6.369  0.00  0.00    +0.047 A 
ATOM     32  C   UNL     1      -2.875  -1.224   7.721  0.00  0.00    +0.004 A 
ATOM     33  C   UNL     1      -1.684  -1.476   8.377  0.00  0.00    +0.002 A 
ATOM     34  C   UNL     1      -0.489  -1.442   7.683  0.00  0.00    +0.023 A 
ATOM     35  C   UNL     1      -0.483  -1.163   6.329  0.00  0.00    +0.083 A 
ATOM     36 CL   UNL     1       1.017  -1.129   5.456  0.00  0.00    -0.080 Cl
ENDBRANCH  29  30
ENDBRANCH  28  29
ENDBRANCH  26  28
ENDBRANCH  22  26
ENDBRANCH   1  23
TORSDOF 6
