REMARK  Name = ZINC36028924
REMARK  9 active torsions:
REMARK  status: ('A' for Active; 'I' for Inactive)
REMARK    1  A    between atoms: C_1  and  C_2
REMARK    2  A    between atoms: C_2  and  C_3
REMARK    3  A    between atoms: C_3  and  C_5
REMARK    4  A    between atoms: C_3  and  C_6
REMARK    5  A    between atoms: N_10  and  C_24
REMARK    6  A    between atoms: N_20  and  C_21
REMARK    7  A    between atoms: C_21  and  C_22
REMARK    8  A    between atoms: C_21  and  C_23
REMARK    9  A    between atoms: C_24  and  C_25
REMARK                            x       y       z     vdW  Elec       q    Type
REMARK                         _______ _______ _______ _____ _____    ______ ____
ROOT
ATOM      1  C   UNL     1      -0.985  -1.949  -0.239  0.00  0.00    +0.022 C 
ATOM      2  C   UNL     1      -0.424  -2.503  -1.531  0.00  0.00    +0.201 C 
ATOM      3  O   UNL     1       0.657  -2.231  -2.009  0.00  0.00    -0.277 OA
ATOM      4  N   UNL     1      -1.330  -3.350  -2.062  0.00  0.00    -0.309 N 
ATOM      5  C   UNL     1      -2.505  -3.420  -1.190  0.00  0.00    +0.006 C 
ATOM      6  N   UNL     1      -2.437  -2.240  -0.299  0.00  0.00    +0.401 N 
ATOM      7  C   UNL     1      -2.467  -4.697  -0.353  0.00  0.00    +0.025 C 
ATOM      8  C   UNL     1      -2.497  -5.914  -1.284  0.00  0.00    +0.109 C 
ATOM      9  N   UNL     1      -3.660  -5.799  -2.175  0.00  0.00    -0.286 N 
ATOM     10  C   UNL     1      -3.826  -4.573  -2.967  0.00  0.00    +0.109 C 
ATOM     11  C   UNL     1      -3.785  -3.367  -2.022  0.00  0.00    +0.025 C 
ATOM     12  C   UNL     1      -4.558  -6.801  -2.265  0.00  0.00    +0.302 C 
ATOM     13  O   UNL     1      -5.458  -6.739  -3.080  0.00  0.00    -0.253 OA
ATOM     14  N   UNL     1      -4.457  -7.870  -1.451  0.00  0.00    -0.297 N 
ATOM     15  H   UNL     1      -2.794  -2.463   0.618  0.00  0.00    -0.082 HD
ATOM     16  H   UNL     1      -3.789  -7.884  -0.749  0.00  0.00    +0.150 HD
ATOM     17  H   UNL     1      -2.940  -1.462  -0.700  0.00  0.00    -0.082 HD
ENDROOT
BRANCH  14  18
ATOM     18  C   UNL     1      -5.358  -9.012  -1.628  0.00  0.00    +0.068 C 
ATOM     19  C   UNL     1      -4.787  -9.952  -2.692  0.00  0.00    +0.027 C 
ATOM     20  C   UNL     1      -5.494  -9.765  -0.303  0.00  0.00    +0.027 C 
ENDBRANCH  14  18
BRANCH   1  21
ATOM     21  C   UNL     1      -0.746  -0.440  -0.159  0.00  0.00    -0.020 C 
ATOM     22  C   UNL     1      -1.384   0.110   1.119  0.00  0.00    +0.006 C 
BRANCH  21  24
ATOM     23  C   UNL     1       0.999   1.349  -0.182  0.00  0.00    +0.004 C 
ATOM     24  C   UNL     1       0.758  -0.162  -0.137  0.00  0.00    -0.001 C 
ENDBRANCH  21  24
ENDBRANCH   1  21
BRANCH   4  25
ATOM     25  C   UNL     1      -1.164  -4.088  -3.317  0.00  0.00    +0.141 C 
BRANCH  25  26
ATOM     26  C   UNL     1      -1.405  -3.160  -4.480  0.00  0.00    -0.026 A 
ATOM     27  C   UNL     1      -2.649  -3.116  -5.081  0.00  0.00    +0.009 A 
ATOM     28  C   UNL     1      -2.875  -2.267  -6.148  0.00  0.00    +0.050 A 
ATOM     29  C   UNL     1      -1.854  -1.457  -6.618  0.00  0.00    +0.166 A 
ATOM     30  C   UNL     1      -0.601  -1.501  -6.013  0.00  0.00    +0.167 A 
ATOM     31  C   UNL     1      -0.383  -2.351  -4.941  0.00  0.00    +0.054 A 
ATOM     32  O   UNL     1       0.224  -0.620  -6.652  0.00  0.00    -0.453 OA
ATOM     33  C   UNL     1      -0.418  -0.336  -7.909  0.00  0.00    +0.466 C 
ATOM     34  O   UNL     1      -1.815  -0.548  -7.636  0.00  0.00    -0.453 OA
ENDBRANCH  25  26
ENDBRANCH   4  25
TORSDOF 5
