REMARK  Name = ZINC58571510
REMARK  8 active torsions:
REMARK  status: ('A' for Active; 'I' for Inactive)
REMARK    1  A    between atoms: C_1  and  C_2
REMARK    2  A    between atoms: N_16  and  C_17
REMARK    3  A    between atoms: C_17  and  C_18
REMARK    4  A    between atoms: C_18  and  C_20
REMARK    5  A    between atoms: C_18  and  O_29
REMARK    6  A    between atoms: C_20  and  O_21
REMARK    7  A    between atoms: O_21  and  C_22
REMARK    8  A    between atoms: C_22  and  C_23
REMARK                            x       y       z     vdW  Elec       q    Type
REMARK                         _______ _______ _______ _____ _____    ______ ____
ROOT
ATOM      1  C   UNL     1      -0.315   1.778   0.248  0.00  0.00    -0.008 C 
ATOM      2  C   UNL     1       0.041   0.305   0.035  0.00  0.00    -0.040 C 
ATOM      3  C   UNL     1       0.746   0.151  -1.286  0.00  0.00    -0.054 A 
ATOM      4  C   UNL     1       0.286   0.880  -2.373  0.00  0.00    +0.051 A 
ATOM      5  C   UNL     1       0.904   0.765  -3.607  0.00  0.00    +0.162 A 
ATOM      6  C   UNL     1       1.992  -0.087  -3.756  0.00  0.00    +0.162 A 
ATOM      7  C   UNL     1       2.448  -0.813  -2.668  0.00  0.00    +0.053 A 
ATOM      8  C   UNL     1       1.827  -0.693  -1.435  0.00  0.00    -0.038 A 
ATOM      9  C   UNL     1       2.358  -1.491  -0.274  0.00  0.00    -0.019 C 
ATOM     10  C   UNL     1       2.674  -2.927  -0.733  0.00  0.00    +0.010 C 
ATOM     11  C   UNL     1       4.189  -2.897  -1.056  0.00  0.00    +0.001 C 
ATOM     12  C   UNL     1       4.757  -1.971   0.049  0.00  0.00    +0.001 C 
ATOM     13  C   UNL     1       3.678  -0.880   0.220  0.00  0.00    +0.010 C 
ATOM     14  C   UNL     1       1.340  -1.524   0.863  0.00  0.00    -0.066 C 
ATOM     15  N   UNL     1       0.896  -0.148   1.135  0.00  0.00    +0.386 N 
ATOM     16  O   UNL     1       2.619  -0.214  -4.957  0.00  0.00    -0.485 OA
ATOM     17  C   UNL     1       1.901   0.245  -6.108  0.00  0.00    +0.270 C 
ATOM     18  C   UNL     1       1.311   1.625  -5.787  0.00  0.00    +0.270 C 
ATOM     19  O   UNL     1       0.436   1.487  -4.662  0.00  0.00    -0.485 OA
ATOM     20  H   UNL     1       1.700   0.458   1.209  0.00  0.00    -0.081 HD
ENDROOT
BRANCH  15  21
ATOM     21  C   UNL     1       0.138  -0.118   2.392  0.00  0.00    -0.044 C 
BRANCH  21  22
ATOM     22  C   UNL     1       1.082  -0.391   3.565  0.00  0.00    +0.124 C 
BRANCH  22  23
ATOM     23  O   UNL     1       1.514  -1.753   3.521  0.00  0.00    -0.391 OA
ATOM     24  H   UNL     1       0.793  -2.395   3.579  0.00  0.00    +0.210 HD
ENDBRANCH  22  23
BRANCH  22  25
ATOM     25  C   UNL     1       0.349  -0.130   4.882  0.00  0.00    +0.189 C 
BRANCH  25  26
ATOM     26  O   UNL     1       1.263  -0.272   5.972  0.00  0.00    -0.375 OA
BRANCH  26  27
ATOM     27  C   UNL     1       0.676  -0.048   7.255  0.00  0.00    +0.191 C 
BRANCH  27  28
ATOM     28  C   UNL     1       1.739  -0.225   8.340  0.00  0.00    +0.144 C 
ATOM     29  C   UNL     1       1.089  -0.104   9.736  0.00  0.00    +0.036 C 
ATOM     30  C   UNL     1       2.163   0.687  10.532  0.00  0.00    +0.031 C 
ATOM     31  C   UNL     1       2.731   1.609   9.424  0.00  0.00    +0.160 C 
ATOM     32  O   UNL     1       2.725   0.808   8.229  0.00  0.00    -0.374 OA
ENDBRANCH  27  28
ENDBRANCH  26  27
ENDBRANCH  25  26
ENDBRANCH  22  25
ENDBRANCH  21  22
ENDBRANCH  15  21
TORSDOF 7
