REMARK  Name = ZINC37125237
REMARK  5 active torsions:
REMARK  status: ('A' for Active; 'I' for Inactive)
REMARK    1  A    between atoms: C_1  and  C_2
REMARK    2  A    between atoms: C_5  and  N_8
REMARK    3  A    between atoms: N_8  and  C_9
REMARK    4  A    between atoms: C_13  and  C_15
REMARK    5  A    between atoms: N_19  and  C_20
REMARK                            x       y       z     vdW  Elec       q    Type
REMARK                         _______ _______ _______ _____ _____    ______ ____
ROOT
ATOM      1  C   UNL     1      -0.411  -2.572   4.035  0.00  0.00    +0.028 A 
ATOM      2  C   UNL     1       0.403  -3.687   4.199  0.00  0.00    +0.023 A 
ATOM      3  C   UNL     1       0.347  -4.424   5.367  0.00  0.00    +0.002 A 
ATOM      4  C   UNL     1      -0.518  -4.057   6.378  0.00  0.00    +0.012 A 
ATOM      5  C   UNL     1      -1.339  -2.940   6.224  0.00  0.00    +0.021 A 
ATOM      6  C   UNL     1      -1.279  -2.193   5.048  0.00  0.00    +0.034 A 
ENDROOT
BRANCH   5   7
ATOM      7  C   UNL     1      -2.267  -2.545   7.307  0.00  0.00    +0.164 A 
ATOM      8  N   UNL     1      -2.803  -1.358   7.484  0.00  0.00    -0.129 NA
ATOM      9  N   UNL     1      -3.559  -1.374   8.523  0.00  0.00    -0.138 NA
ATOM     10  C   UNL     1      -3.550  -2.562   9.065  0.00  0.00    +0.225 A 
ATOM     11  N   UNL     1      -2.736  -3.349   8.310  0.00  0.00    -0.317 N 
ATOM     12  C   UNL     1      -2.423  -4.764   8.529  0.00  0.00    +0.152 C 
ENDBRANCH   5   7
BRANCH   1  13
ATOM     13  N   UNL     1      -0.350  -1.830   2.853  0.00  0.00    -0.341 N 
ATOM     14  H   UNL     1      -0.915  -1.050   2.741  0.00  0.00    +0.146 HD
BRANCH  13  19
ATOM     15  C   UNL     1       1.238   1.931   0.802  0.00  0.00    +0.007 C 
ATOM     16  C   UNL     1       1.334   0.404   0.756  0.00  0.00    -0.014 C 
ATOM     17  C   UNL     1      -0.052  -0.186   0.488  0.00  0.00    +0.005 C 
ATOM     18  C   UNL     1       0.043  -1.712   0.443  0.00  0.00    +0.022 C 
ATOM     19  C   UNL     1       0.567  -2.230   1.784  0.00  0.00    +0.070 C 
ATOM     20  C   UNL     1       1.953  -1.640   2.052  0.00  0.00    +0.022 C 
ATOM     21  C   UNL     1       1.857  -0.114   2.098  0.00  0.00    +0.005 C 
ENDBRANCH  13  19
ENDBRANCH   1  13
TORSDOF 3
