REMARK  Name = ZINC08127205
REMARK  10 active torsions:
REMARK  status: ('A' for Active; 'I' for Inactive)
REMARK    1  A    between atoms: C_1  and  C_2
REMARK    2  A    between atoms: C_2  and  C_21
REMARK    3  A    between atoms: N_3  and  N_4
REMARK    4  A    between atoms: C_8  and  S_11
REMARK    5  A    between atoms: S_11  and  N_14
REMARK    6  A    between atoms: N_17  and  C_20
REMARK    7  A    between atoms: C_24  and  C_27
REMARK    8  A    between atoms: C_27  and  C_28
REMARK    9  A    between atoms: C_27  and  C_29
REMARK   10  A    between atoms: C_27  and  C_30
REMARK                            x       y       z     vdW  Elec       q    Type
REMARK                         _______ _______ _______ _____ _____    ______ ____
ROOT
ATOM      1  N   UNL     1       0.024   0.035   2.340  0.00  0.00    -0.221 N 
ATOM      2  C   UNL     1       0.045  -0.666   3.539  0.00  0.00    +0.138 A 
ATOM      3  C   UNL     1       0.041   0.029   4.745  0.00  0.00    +0.047 A 
ATOM      4  C   UNL     1       0.062  -0.682   5.931  0.00  0.00    +0.033 A 
ATOM      5  C   UNL     1       0.086  -2.069   5.872  0.00  0.00    +0.124 A 
ATOM      6  C   UNL     1       0.088  -2.694   4.641  0.00  0.00    +0.141 A 
ATOM      7  N   UNL     1       0.062  -1.991   3.525  0.00  0.00    -0.237 NA
ATOM      8  H   UNL     1       0.011   1.005   2.345  0.00  0.00    +0.176 HD
ENDROOT
BRANCH   1  11
ATOM      9  C   UNL     1      -0.018   1.503   0.010  0.00  0.00    +0.068 C 
ATOM     10  C   UNL     1       0.002  -0.004   0.002  0.00  0.00    +0.063 C 
ATOM     11  N   UNL     1       0.022  -0.659   1.123  0.00  0.00    -0.186 NA
BRANCH  10  12
ATOM     12  C   UNL     1      -0.000  -0.734  -1.279  0.00  0.00    -0.003 A 
ATOM     13  C   UNL     1      -0.015  -0.033  -2.487  0.00  0.00    +0.010 A 
ATOM     14  C   UNL     1      -0.017  -0.723  -3.681  0.00  0.00    +0.005 A 
ATOM     15  C   UNL     1      -0.003  -2.106  -3.685  0.00  0.00    -0.042 A 
ATOM     16  C   UNL     1       0.011  -2.808  -2.493  0.00  0.00    +0.005 A 
ATOM     17  C   UNL     1       0.019  -2.131  -1.290  0.00  0.00    +0.010 A 
BRANCH  15  18
ATOM     18  C   UNL     1      -0.005  -2.853  -4.994  0.00  0.00    -0.013 C 
ATOM     19  C   UNL     1       1.235  -2.466  -5.803  0.00  0.00    +0.015 C 
ATOM     20  C   UNL     1       0.012  -4.358  -4.723  0.00  0.00    +0.015 C 
ATOM     21  C   UNL     1      -1.263  -2.491  -5.786  0.00  0.00    +0.015 C 
ENDBRANCH  15  18
ENDBRANCH  10  12
ENDBRANCH   1  11
BRANCH   5  22
ATOM     22  S   UNL     1       0.114  -3.022   7.354  0.00  0.00    +0.062 S 
ATOM     23  O   UNL     1       0.685  -4.279   7.018  0.00  0.00    -0.153 OA
ATOM     24  O   UNL     1       0.658  -2.185   8.365  0.00  0.00    -0.153 OA
BRANCH  22  25
ATOM     25  N   UNL     1      -1.460  -3.315   7.778  0.00  0.00    -0.180 NA
ATOM     26  C   UNL     1      -2.195  -2.385   8.649  0.00  0.00    +0.091 C 
ATOM     27  C   UNL     1      -3.534  -2.051   7.983  0.00  0.00    -0.062 C 
ATOM     28  N   UNL     1      -4.253  -3.295   7.682  0.00  0.00    +0.380 N 
ATOM     29  C   UNL     1      -3.504  -4.078   6.691  0.00  0.00    -0.062 C 
ATOM     30  C   UNL     1      -2.165  -4.510   7.288  0.00  0.00    +0.091 C 
ATOM     31  C   UNL     1      -5.582  -2.973   7.146  0.00  0.00    -0.096 C 
ATOM     32  H   UNL     1      -4.357  -3.835   8.528  0.00  0.00    -0.082 HD
ENDBRANCH  22  25
ENDBRANCH   5  22
TORSDOF 5
