REMARK  Name = ZINC41092296
REMARK  3 active torsions:
REMARK  status: ('A' for Active; 'I' for Inactive)
REMARK    1  A    between atoms: C_3  and  N_18
REMARK    2  A    between atoms: C_6  and  N_7
REMARK    3  A    between atoms: N_7  and  C_8
REMARK                            x       y       z     vdW  Elec       q    Type
REMARK                         _______ _______ _______ _____ _____    ______ ____
ROOT
ATOM      1  C   UNL     1       0.196   1.249   0.050  0.00  0.00    +0.025 A 
ATOM      2  C   UNL     1       1.450   1.828   0.063  0.00  0.00    +0.025 A 
ATOM      3  C   UNL     1       2.585   1.027   0.049  0.00  0.00    +0.030 A 
ATOM      4  C   UNL     1       2.458  -0.355   0.021  0.00  0.00    +0.025 A 
ATOM      5  C   UNL     1       1.205  -0.934   0.009  0.00  0.00    +0.025 A 
ATOM      6  C   UNL     1       0.070  -0.134   0.023  0.00  0.00    +0.027 A 
ENDROOT
BRANCH   3   7
ATOM      7  N   UNL     1       3.856   1.614   0.061  0.00  0.00    -0.326 N 
ATOM      8  C   UNL     1       5.070   0.790   0.168  0.00  0.00    +0.133 C 
ATOM      9  C   UNL     1       6.036   1.205  -0.947  0.00  0.00    +0.178 C 
ATOM     10  O   UNL     1       6.224   2.621  -0.903  0.00  0.00    -0.377 OA
ATOM     11  C   UNL     1       5.034   3.378  -1.138  0.00  0.00    +0.178 C 
ATOM     12  C   UNL     1       4.017   3.074  -0.038  0.00  0.00    +0.133 C 
ENDBRANCH   3   7
BRANCH   6  13
ATOM     13  N   UNL     1      -1.201  -0.721   0.010  0.00  0.00    -0.341 N 
ATOM     14  H   UNL     1      -1.993  -0.161   0.020  0.00  0.00    +0.146 HD
BRANCH  13  15
ATOM     15  C   UNL     1      -1.334  -2.179  -0.019  0.00  0.00    +0.074 C 
ATOM     16  C   UNL     1      -2.771  -2.597   0.368  0.00  0.00    +0.026 C 
ATOM     17  C   UNL     1      -3.315  -3.345  -0.887  0.00  0.00    -0.009 C 
ATOM     18  C   UNL     1      -3.525  -2.223  -1.950  0.00  0.00    +0.004 C 
ATOM     19  C   UNL     1      -2.095  -1.786  -2.344  0.00  0.00    +0.005 C 
ATOM     20  C   UNL     1      -1.142  -2.714  -1.471  0.00  0.00    +0.009 C 
ATOM     21  C   UNL     1      -2.002  -4.027  -1.411  0.00  0.00    +0.009 C 
ENDBRANCH  13  15
ENDBRANCH   6  13
TORSDOF 3
