REMARK  Name = ZINC20713577
REMARK  7 active torsions:
REMARK  status: ('A' for Active; 'I' for Inactive)
REMARK    1  A    between atoms: C_1  and  C_2
REMARK    2  A    between atoms: C_2  and  C_3
REMARK    3  A    between atoms: C_3  and  C_5
REMARK    4  A    between atoms: C_3  and  N_6
REMARK    5  A    between atoms: C_7  and  C_9
REMARK    6  A    between atoms: C_16  and  C_25
REMARK    7  A    between atoms: C_30  and  N_31
REMARK                            x       y       z     vdW  Elec       q    Type
REMARK                         _______ _______ _______ _____ _____    ______ ____
ROOT
ATOM      1  C   UNL     1      -2.127   5.427   2.803  0.00  0.00    +0.058 A 
ATOM      2  C   UNL     1      -3.434   5.612   2.352  0.00  0.00    +0.015 A 
ATOM      3  C   UNL     1      -3.840   5.017   1.177  0.00  0.00    +0.001 A 
ATOM      4  C   UNL     1      -2.957   4.240   0.450  0.00  0.00    +0.006 A 
ATOM      5  C   UNL     1      -1.654   4.043   0.882  0.00  0.00    -0.019 A 
ATOM      6  C   UNL     1      -1.230   4.636   2.059  0.00  0.00    +0.044 A 
ATOM      7  N   UNL     1       0.061   4.488   2.541  0.00  0.00    -0.336 N 
ATOM      8  C   UNL     1       0.684   3.226   2.086  0.00  0.00    +0.107 C 
ATOM      9  C   UNL     1       0.699   3.213   0.555  0.00  0.00    +0.029 C 
ATOM     10  C   UNL     1      -0.756   3.183   0.041  0.00  0.00    +0.049 C 
ATOM     11  C   UNL     1      -1.150   1.726   0.129  0.00  0.00    -0.023 C 
ATOM     12  C   UNL     1      -0.085   0.965   0.169  0.00  0.00    -0.030 C 
ATOM     13  C   UNL     1       1.173   1.806   0.095  0.00  0.00    +0.033 C 
ATOM     14  H   UNL     1       0.624   5.178   3.186  0.00  0.00    +0.147 HD
ENDROOT
BRANCH   8  15
ATOM     15  C   UNL     1       2.097   3.152   2.603  0.00  0.00    +0.003 A 
ATOM     16  C   UNL     1       3.159   3.387   1.749  0.00  0.00    +0.008 A 
ATOM     17  C   UNL     1       4.455   3.323   2.224  0.00  0.00    +0.000 A 
ATOM     18  C   UNL     1       4.691   3.016   3.551  0.00  0.00    +0.002 A 
ATOM     19  C   UNL     1       3.630   2.777   4.404  0.00  0.00    +0.033 A 
ATOM     20  C   UNL     1       2.333   2.845   3.929  0.00  0.00    +0.131 A 
BRANCH  20  21
ATOM     21  N   UNL     1       1.196   2.588   4.843  0.00  0.00    +0.057 N 
ATOM     22  O   UNL     1       1.398   2.411   6.031  0.00  0.00    -0.126 OA
ATOM     23  O   UNL     1       0.060   2.554   4.406  0.00  0.00    -0.126 OA
ENDBRANCH  20  21
ENDBRANCH   8  15
BRANCH   1  25
ATOM     24  N   UNL     1      -2.543   6.816   4.772  0.00  0.00    -0.309 N 
ATOM     25  C   UNL     1      -1.684   6.059   4.059  0.00  0.00    +0.246 C 
ATOM     26  O   UNL     1      -0.545   5.899   4.453  0.00  0.00    -0.270 OA
ATOM     27  H   UNL     1      -3.574   6.961   4.416  0.00  0.00    +0.149 HD
BRANCH  24  28
ATOM     28  C   UNL     1      -2.103   7.444   6.020  0.00  0.00    +0.070 C 
ATOM     29  C   UNL     1      -2.253   6.449   7.173  0.00  0.00    +0.028 C 
BRANCH  28  31
ATOM     30  C   UNL     1      -2.716   9.727   5.210  0.00  0.00    +0.005 C 
ATOM     31  C   UNL     1      -2.961   8.680   6.299  0.00  0.00    +0.018 C 
ENDBRANCH  28  31
ENDBRANCH  24  28
ENDBRANCH   1  25
TORSDOF 5
