REMARK  Name = ZINC40323889
REMARK  6 active torsions:
REMARK  status: ('A' for Active; 'I' for Inactive)
REMARK    1  A    between atoms: C_1  and  C_2
REMARK    2  A    between atoms: C_7  and  C_8
REMARK    3  A    between atoms: C_7  and  C_9
REMARK    4  A    between atoms: C_11  and  N_13
REMARK    5  A    between atoms: N_13  and  S_14
REMARK    6  A    between atoms: S_14  and  C_17
REMARK                            x       y       z     vdW  Elec       q    Type
REMARK                         _______ _______ _______ _____ _____    ______ ____
ROOT
ATOM      1  N   UNL     1      -1.957   0.542   0.948  0.00  0.00    -0.186 NA
ATOM      2  H   UNL     1      -1.427   0.847   1.701  0.00  0.00    +0.148 HD
ENDROOT
BRANCH   1  12
ATOM      3  C   UNL     1       0.394   1.699  -0.306  0.00  0.00    +0.013 C 
ATOM      4  C   UNL     1       0.142   0.190  -0.333  0.00  0.00    -0.010 C 
ATOM      5  C   UNL     1       0.605  -0.556  -1.622  0.00  0.00    +0.009 C 
ATOM      6  C   UNL     1       0.719  -2.037  -1.196  0.00  0.00    +0.005 C 
ATOM      7  C   UNL     1       0.313  -2.047   0.309  0.00  0.00    -0.003 C 
ATOM      8  C   UNL     1       0.872  -0.655   0.770  0.00  0.00    -0.025 C 
ATOM      9  C   UNL     1       2.394  -0.575   0.639  0.00  0.00    +0.012 C 
ATOM     10  C   UNL     1       0.404  -0.286   2.179  0.00  0.00    +0.012 C 
ATOM     11  C   UNL     1      -1.222  -1.776   0.302  0.00  0.00    +0.025 C 
ATOM     12  C   UNL     1      -1.335  -0.259  -0.109  0.00  0.00    +0.083 C 
ENDBRANCH   1  12
BRANCH   1  13
ATOM     13  S   UNL     1      -3.566   0.925   0.859  0.00  0.00    +0.063 S 
ATOM     14  O   UNL     1      -3.875   1.655   2.038  0.00  0.00    -0.153 OA
ATOM     15  O   UNL     1      -3.786   1.451  -0.442  0.00  0.00    -0.153 OA
BRANCH  13  16
ATOM     16  C   UNL     1      -4.467  -0.586   0.951  0.00  0.00    +0.164 A 
ATOM     17  C   UNL     1      -5.231  -1.118  -0.030  0.00  0.00    +0.135 A 
ATOM     18  N   UNL     1      -5.749  -2.276   0.431  0.00  0.00    -0.281 N 
ATOM     19  H   UNL     1      -6.337  -2.872  -0.059  0.00  0.00    +0.188 HD
ATOM     20  N   UNL     1      -5.290  -2.466   1.740  0.00  0.00    -0.157 NA
ATOM     21  C   UNL     1      -4.514  -1.455   2.053  0.00  0.00    +0.164 A 
ATOM     22  N   UNL     1      -3.853  -1.273   3.273  0.00  0.00    -0.340 N 
ATOM     23  H   UNL     1      -3.359  -0.455   3.439  0.00  0.00    +0.144 HD
ATOM     24  H   UNL     1      -3.888  -1.965   3.952  0.00  0.00    +0.144 HD
ENDBRANCH  13  16
ENDBRANCH   1  13
TORSDOF 3
