REMARK  Name = ZINC49463041
REMARK  4 active torsions:
REMARK  status: ('A' for Active; 'I' for Inactive)
REMARK    1  A    between atoms: C_6  and  N_7
REMARK    2  A    between atoms: C_8  and  C_10
REMARK    3  A    between atoms: C_10  and  C_11
REMARK    4  A    between atoms: C_11  and  C_12
REMARK                            x       y       z     vdW  Elec       q    Type
REMARK                         _______ _______ _______ _____ _____    ______ ____
ROOT
ATOM      1  C   UNL     1      -0.013   1.376   0.196  0.00  0.00    +0.027 A 
ATOM      2  C   UNL     1       1.170   2.089   0.195  0.00  0.00    +0.048 A 
ATOM      3  C   UNL     1       2.374   1.433   0.008  0.00  0.00    +0.133 A 
ATOM      4  C   UNL     1       2.401   0.043  -0.178  0.00  0.00    +0.080 A 
ATOM      5  C   UNL     1       1.198  -0.669  -0.180  0.00  0.00    +0.040 A 
ATOM      6  C   UNL     1       0.001  -0.002   0.007  0.00  0.00    +0.034 A 
ATOM      7  C   UNL     1       3.677  -0.664  -0.360  0.00  0.00    +0.250 C 
ATOM      8  O   UNL     1       3.852  -1.330  -1.362  0.00  0.00    -0.270 OA
ATOM      9  N   UNL     1       4.656  -0.588   0.563  0.00  0.00    -0.294 N 
ATOM     10  C   UNL     1       5.949  -1.216   0.287  0.00  0.00    +0.108 C 
ATOM     11  C   UNL     1       6.401  -2.030   1.498  0.00  0.00    +0.019 C 
ATOM     12  C   UNL     1       6.377  -1.140   2.742  0.00  0.00    +0.003 C 
ATOM     13  C   UNL     1       4.950  -0.671   3.009  0.00  0.00    +0.023 C 
ATOM     14  C   UNL     1       4.408   0.113   1.821  0.00  0.00    +0.080 C 
ATOM     15  C   UNL     1       5.067   1.494   1.777  0.00  0.00    +0.063 C 
ATOM     16  C   UNL     1       4.062   2.527   1.268  0.00  0.00    +0.231 C 
ATOM     17  O   UNL     1       3.544   2.126  -0.002  0.00  0.00    -0.491 OA
ENDROOT
BRANCH   6  18
ATOM     18  N   UNL     1      -1.204  -0.718   0.007  0.00  0.00    -0.285 N 
ATOM     19  C   UNL     1      -2.326  -0.148  -0.476  0.00  0.00    +0.217 C 
ATOM     20  O   UNL     1      -2.275   0.946  -0.996  0.00  0.00    -0.275 OA
ATOM     21  H   UNL     1      -1.230  -1.623   0.353  0.00  0.00    +0.155 HD
BRANCH  19  22
ATOM     22  C   UNL     1      -3.644  -0.871  -0.368  0.00  0.00    +0.096 C 
BRANCH  22  23
ATOM     23  C   UNL     1      -4.748  -0.012  -0.988  0.00  0.00    +0.013 C 
BRANCH  23  24
ATOM     24  C   UNL     1      -6.087  -0.745  -0.879  0.00  0.00    -0.011 C 
ATOM     25  C   UNL     1      -6.041  -2.018  -1.726  0.00  0.00    +0.003 C 
ATOM     26  C   UNL     1      -7.379  -2.752  -1.617  0.00  0.00    +0.000 C 
ATOM     27  C   UNL     1      -8.502  -1.843  -2.122  0.00  0.00    +0.000 C 
ATOM     28  C   UNL     1      -8.547  -0.570  -1.275  0.00  0.00    +0.000 C 
ATOM     29  C   UNL     1      -7.209   0.164  -1.384  0.00  0.00    +0.003 C 
ENDBRANCH  23  24
ENDBRANCH  22  23
ENDBRANCH  19  22
ENDBRANCH   6  18
TORSDOF 4
