REMARK  Name = ZINC37317489
REMARK  5 active torsions:
REMARK  status: ('A' for Active; 'I' for Inactive)
REMARK    1  A    between atoms: C_1  and  C_2
REMARK    2  A    between atoms: C_5  and  S_18
REMARK    3  A    between atoms: C_7  and  N_8
REMARK    4  A    between atoms: N_8  and  C_9
REMARK    5  A    between atoms: S_18  and  N_21
REMARK                            x       y       z     vdW  Elec       q    Type
REMARK                         _______ _______ _______ _____ _____    ______ ____
ROOT
ATOM      1  C   UNL     1      -0.014   1.509   0.011  0.00  0.00    +0.045 C 
ATOM      2  C   UNL     1       0.006   0.002   0.002  0.00  0.00    -0.030 A 
ATOM      3  C   UNL     1       0.010  -0.682  -1.198  0.00  0.00    +0.007 A 
ATOM      4  C   UNL     1       0.028  -2.064  -1.208  0.00  0.00    +0.029 A 
ATOM      5  C   UNL     1       0.043  -2.767  -0.017  0.00  0.00    +0.107 A 
ATOM      6  C   UNL     1       0.039  -2.090   1.187  0.00  0.00    +0.051 A 
ATOM      7  C   UNL     1       0.026  -0.700   1.200  0.00  0.00    +0.032 A 
ENDROOT
BRANCH   5   8
ATOM      8  S   UNL     1       0.065  -4.529  -0.035  0.00  0.00    +0.056 S 
ATOM      9  O   UNL     1      -0.475  -4.954   1.209  0.00  0.00    -0.153 OA
ATOM     10  O   UNL     1      -0.486  -4.929  -1.282  0.00  0.00    -0.153 OA
BRANCH   8  11
ATOM     11  N   UNL     1       1.653  -4.998  -0.047  0.00  0.00    -0.204 NA
ATOM     12  H   UNL     1       2.356  -4.330  -0.043  0.00  0.00    +0.144 HD
ATOM     13  H   UNL     1       1.880  -5.941  -0.057  0.00  0.00    +0.144 HD
ENDBRANCH   8  11
ENDBRANCH   5   8
BRANCH   7  14
ATOM     14  N   UNL     1       0.028  -0.012   2.415  0.00  0.00    -0.341 N 
ATOM     15  H   UNL     1       0.015   0.958   2.423  0.00  0.00    +0.146 HD
BRANCH  14  16
ATOM     16  C   UNL     1       0.049  -0.755   3.678  0.00  0.00    +0.073 C 
ATOM     17  C   UNL     1       1.495  -1.104   4.040  0.00  0.00    +0.041 C 
ATOM     18  C   UNL     1       1.510  -1.910   5.342  0.00  0.00    +0.111 C 
ATOM     19  N   UNL     1       0.796  -1.150   6.377  0.00  0.00    -0.286 N 
ATOM     20  C   UNL     1      -0.570  -0.687   6.097  0.00  0.00    +0.111 C 
ATOM     21  C   UNL     1      -0.562   0.106   4.786  0.00  0.00    +0.041 C 
ATOM     22  C   UNL     1       1.382  -0.884   7.561  0.00  0.00    +0.300 C 
ATOM     23  O   UNL     1       2.475  -1.351   7.817  0.00  0.00    -0.253 OA
ATOM     24  N   UNL     1       0.756  -0.101   8.462  0.00  0.00    -0.313 N 
ATOM     25  H   UNL     1      -0.146   0.211   8.290  0.00  0.00    +0.146 HD
ATOM     26  H   UNL     1       1.207   0.150   9.283  0.00  0.00    +0.146 HD
ENDBRANCH  14  16
ENDBRANCH   7  14
TORSDOF 4
