REMARK  Name = ZINC46769691
REMARK  8 active torsions:
REMARK  status: ('A' for Active; 'I' for Inactive)
REMARK    1  A    between atoms: C_1  and  C_2
REMARK    2  A    between atoms: C_4  and  N_21
REMARK    3  A    between atoms: C_6  and  C_7
REMARK    4  A    between atoms: N_9  and  C_10
REMARK    5  A    between atoms: C_14  and  C_17
REMARK    6  A    between atoms: C_15  and  C_16
REMARK    7  A    between atoms: N_19  and  C_20
REMARK    8  A    between atoms: C_22  and  C_24
REMARK                            x       y       z     vdW  Elec       q    Type
REMARK                         _______ _______ _______ _____ _____    ______ ____
ROOT
ATOM      1  C   UNL     1      -0.454   0.397   2.650  0.00  0.00    +0.255 C 
ATOM      2  O   UNL     1      -0.392   1.525   3.104  0.00  0.00    -0.269 OA
ATOM      3  N   UNL     1      -0.333  -0.667   3.468  0.00  0.00    -0.281 N 
ATOM      4  H   UNL     1      -0.457  -1.564   3.120  0.00  0.00    +0.155 HD
ENDROOT
BRANCH   3   5
ATOM      5  C   UNL     1      -0.027  -0.478   4.820  0.00  0.00    +0.037 A 
ATOM      6  C   UNL     1       0.564   0.708   5.240  0.00  0.00    +0.023 A 
ATOM      7  C   UNL     1       0.869   0.899   6.575  0.00  0.00    +0.003 A 
ATOM      8  C   UNL     1       0.588  -0.086   7.499  0.00  0.00    +0.013 A 
ATOM      9  C   UNL     1      -0.006  -1.281   7.088  0.00  0.00    +0.041 A 
ATOM     10  C   UNL     1      -0.319  -1.472   5.742  0.00  0.00    -0.017 A 
ATOM     11  C   UNL     1      -0.965  -2.756   5.291  0.00  0.00    +0.046 C 
BRANCH   9  12
ATOM     12  C   UNL     1      -0.308  -2.338   8.077  0.00  0.00    +0.244 C 
ATOM     13  O   UNL     1      -0.708  -3.423   7.703  0.00  0.00    -0.270 OA
ATOM     14  N   UNL     1      -0.140  -2.098   9.392  0.00  0.00    -0.314 N 
ATOM     15  C   UNL     1      -0.439  -3.146  10.372  0.00  0.00    +0.128 C 
ATOM     16  H   UNL     1       0.179  -1.232   9.691  0.00  0.00    +0.149 HD
ENDBRANCH   9  12
ENDBRANCH   3   5
BRANCH   1  22
ATOM     17  C   UNL     1      -0.765   2.632   0.547  0.00  0.00    +0.045 C 
ATOM     18  C   UNL     1      -0.802   1.153   0.258  0.00  0.00    -0.029 A 
ATOM     19  C   UNL     1      -0.978   0.665  -1.010  0.00  0.00    +0.035 A 
ATOM     20  C   UNL     1      -1.000  -0.698  -1.195  0.00  0.00    +0.073 A 
ATOM     21  S   UNL     1      -0.783  -1.324   0.349  0.00  0.00    -0.069 S 
ATOM     22  C   UNL     1      -0.654   0.203   1.260  0.00  0.00    +0.079 A 
BRANCH  20  23
ATOM     23  N   UNL     1      -1.165  -1.396  -2.384  0.00  0.00    -0.273 N 
ATOM     24  C   UNL     1      -1.161  -2.744  -2.380  0.00  0.00    +0.284 C 
ATOM     25  O   UNL     1      -1.012  -3.349  -1.335  0.00  0.00    -0.266 OA
ATOM     26  H   UNL     1      -1.283  -0.914  -3.217  0.00  0.00    +0.156 HD
BRANCH  24  27
ATOM     27  C   UNL     1      -1.335  -3.481  -3.635  0.00  0.00    +0.189 A 
ATOM     28  C   UNL     1      -1.355  -4.840  -3.772  0.00  0.00    +0.054 A 
ATOM     29  C   UNL     1      -1.545  -5.105  -5.137  0.00  0.00    +0.042 A 
ATOM     30  C   UNL     1      -1.630  -3.912  -5.766  0.00  0.00    +0.196 A 
ATOM     31  O   UNL     1      -1.508  -2.936  -4.857  0.00  0.00    -0.458 OA
ENDBRANCH  24  27
ENDBRANCH  20  23
ENDBRANCH   1  22
TORSDOF 5
