REMARK  Name = ZINC36206296
REMARK  14 active torsions:
REMARK  status: ('A' for Active; 'I' for Inactive)
REMARK    1  A    between atoms: C_1  and  C_2
REMARK    2  A    between atoms: C_2  and  C_3
REMARK    3  A    between atoms: C_2  and  O_4
REMARK    4  A    between atoms: O_4  and  C_5
REMARK    5  A    between atoms: C_5  and  C_6
REMARK    6  A    between atoms: C_6  and  C_8
REMARK    7  A    between atoms: C_6  and  O_33
REMARK    8  A    between atoms: C_8  and  N_9
REMARK    9  A    between atoms: N_9  and  C_10
REMARK   10  A    between atoms: N_9  and  C_30
REMARK   11  A    between atoms: C_10  and  C_11
REMARK   12  A    between atoms: C_17  and  C_22
REMARK   13  A    between atoms: C_25  and  O_28
REMARK   14  A    between atoms: O_28  and  C_29
REMARK                            x       y       z     vdW  Elec       q    Type
REMARK                         _______ _______ _______ _____ _____    ______ ____
ROOT
ATOM      1  C   UNL     1      -6.124  -5.400  -2.242  0.00  0.00    +0.094 A 
ATOM      2  N   UNL     1      -6.424  -6.558  -2.885  0.00  0.00    -0.312 N 
ATOM      3  H   UNL     1      -5.707  -7.094  -3.258  0.00  0.00    +0.170 HD
ATOM      4  C   UNL     1      -7.696  -6.976  -3.016  0.00  0.00    +0.260 A 
ATOM      5  O   UNL     1      -7.949  -8.018  -3.596  0.00  0.00    -0.267 OA
ATOM      6  C   UNL     1      -8.749  -6.178  -2.463  0.00  0.00    +0.080 A 
ATOM      7  C   UNL     1     -10.187  -6.414  -2.473  0.00  0.00    +0.004 A 
ATOM      8  C   UNL     1     -11.000  -5.508  -1.877  0.00  0.00    +0.056 A 
ATOM      9  S   UNL     1      -9.867  -4.277  -1.265  0.00  0.00    -0.076 S 
ATOM     10  C   UNL     1      -8.343  -4.999  -1.817  0.00  0.00    +0.116 A 
ATOM     11  N   UNL     1      -7.062  -4.654  -1.723  0.00  0.00    -0.229 NA
ENDROOT
BRANCH   7  12
ATOM     12  C   UNL     1     -10.750  -7.622  -3.122  0.00  0.00    -0.016 A 
ATOM     13  C   UNL     1     -10.366  -7.961  -4.419  0.00  0.00    +0.012 A 
ATOM     14  C   UNL     1     -10.892  -9.086  -5.020  0.00  0.00    +0.046 A 
ATOM     15  C   UNL     1     -11.802  -9.880  -4.336  0.00  0.00    +0.120 A 
ATOM     16  C   UNL     1     -12.186  -9.545  -3.045  0.00  0.00    +0.046 A 
ATOM     17  C   UNL     1     -11.661  -8.425  -2.436  0.00  0.00    +0.012 A 
BRANCH  15  18
ATOM     18  O   UNL     1     -12.318 -10.988  -4.931  0.00  0.00    -0.495 OA
ATOM     19  C   UNL     1     -13.249 -11.759  -4.170  0.00  0.00    +0.277 C 
ENDBRANCH  15  18
ENDBRANCH   7  12
BRANCH   1  20
ATOM     20  C   UNL     1      -4.684  -4.972  -2.119  0.00  0.00    -0.003 C 
BRANCH  20  21
ATOM     21  N   UNL     1      -4.611  -3.703  -1.384  0.00  0.00    +0.388 N 
ATOM     22  H   UNL     1      -5.197  -3.018  -1.837  0.00  0.00    -0.081 HD
BRANCH  21  23
ATOM     23  C   UNL     1      -5.074  -3.909  -0.005  0.00  0.00    -0.068 C 
ATOM     24  C   UNL     1      -6.328  -3.153   0.440  0.00  0.00    -0.017 C 
ATOM     25  C   UNL     1      -4.954  -2.731   0.964  0.00  0.00    -0.017 C 
ENDBRANCH  21  23
BRANCH  21  26
ATOM     26  C   UNL     1      -3.222  -3.225  -1.368  0.00  0.00    -0.044 C 
BRANCH  26  27
ATOM     27  C   UNL     1      -2.789  -2.869  -2.791  0.00  0.00    +0.124 C 
BRANCH  27  28
ATOM     28  O   UNL     1      -3.633  -1.834  -3.301  0.00  0.00    -0.391 OA
ATOM     29  H   UNL     1      -3.611  -1.018  -2.783  0.00  0.00    +0.210 HD
ENDBRANCH  27  28
BRANCH  27  30
ATOM     30  C   UNL     1      -1.338  -2.383  -2.776  0.00  0.00    +0.189 C 
BRANCH  30  31
ATOM     31  O   UNL     1      -0.896  -2.161  -4.117  0.00  0.00    -0.375 OA
BRANCH  31  33
ATOM     32  C   UNL     1       1.062  -2.188  -5.533  0.00  0.00    +0.037 C 
ATOM     33  C   UNL     1       0.453  -1.703  -4.216  0.00  0.00    +0.112 C 
ATOM     34  C   UNL     1       0.477  -0.174  -4.176  0.00  0.00    +0.037 C 
ENDBRANCH  31  33
ENDBRANCH  30  31
ENDBRANCH  27  30
ENDBRANCH  26  27
ENDBRANCH  21  26
ENDBRANCH  20  21
ENDBRANCH   1  20
TORSDOF 11
