REMARK  Name = ZINC04479419
REMARK  2 active torsions:
REMARK  status: ('A' for Active; 'I' for Inactive)
REMARK    1  A    between atoms: C_4  and  C_8
REMARK    2  A    between atoms: C_14  and  C_16
REMARK                            x       y       z     vdW  Elec       q    Type
REMARK                         _______ _______ _______ _____ _____    ______ ____
ROOT
ATOM      1  C   UNL     1       4.460   0.764  -0.036  0.00  0.00    +0.251 A 
ATOM      2  N   UNL     1       3.769  -0.351  -0.036  0.00  0.00    -0.106 NA
ATOM      3  N   UNL     1       2.513  -0.075  -0.017  0.00  0.00    -0.092 NA
ATOM      4  C   UNL     1       2.352   1.227  -0.014  0.00  0.00    +0.315 A 
ATOM      5  O   UNL     1       3.576   1.785  -0.022  0.00  0.00    -0.405 OA
ATOM      6  N   UNL     1       1.143   1.903   0.001  0.00  0.00    -0.234 N 
ATOM      7  C   UNL     1      -0.014   1.213   0.009  0.00  0.00    +0.258 C 
ATOM      8  O   UNL     1       0.002  -0.004   0.002  0.00  0.00    -0.269 OA
ATOM      9  H   UNL     1       1.130   2.873   0.007  0.00  0.00    +0.160 HD
ENDROOT
BRANCH   1  13
ATOM     10  C   UNL     1       8.695   1.097  -0.078  0.00  0.00    +0.021 A 
ATOM     11  C   UNL     1       8.103  -0.153  -0.077  0.00  0.00    +0.022 A 
ATOM     12  C   UNL     1       6.727  -0.269  -0.064  0.00  0.00    +0.053 A 
ATOM     13  C   UNL     1       5.933   0.880  -0.050  0.00  0.00    +0.058 A 
ATOM     14  C   UNL     1       6.536   2.139  -0.056  0.00  0.00    +0.034 A 
ATOM     15  C   UNL     1       7.913   2.240  -0.064  0.00  0.00    +0.042 A 
ATOM     16 CL   UNL     1       8.666   3.805  -0.065  0.00  0.00    -0.084 Cl
ATOM     17 CL   UNL     1       5.987  -1.839  -0.065  0.00  0.00    -0.083 Cl
ENDBRANCH   1  13
BRANCH   7  18
ATOM     18  C   UNL     1      -1.292   1.928   0.019  0.00  0.00    +0.076 A 
ATOM     19  C   UNL     1      -2.581   1.415   0.022  0.00  0.00    +0.022 A 
ATOM     20  C   UNL     1      -3.613   2.318   0.032  0.00  0.00    +0.028 A 
ATOM     21  C   UNL     1      -3.330   3.649   0.039  0.00  0.00    +0.079 A 
ATOM     22  S   UNL     1      -1.597   3.685   0.038  0.00  0.00    -0.072 S 
ATOM     23 CL   UNL     1      -4.437   4.987   0.052  0.00  0.00    -0.076 Cl
ENDBRANCH   7  18
TORSDOF 2
