REMARK  Name = ZINC38862875
REMARK  5 active torsions:
REMARK  status: ('A' for Active; 'I' for Inactive)
REMARK    1  A    between atoms: C_1  and  C_2
REMARK    2  A    between atoms: C_4  and  N_19
REMARK    3  A    between atoms: C_9  and  C_12
REMARK    4  A    between atoms: C_20  and  C_22
REMARK    5  A    between atoms: N_27  and  C_29
REMARK                            x       y       z     vdW  Elec       q    Type
REMARK                         _______ _______ _______ _____ _____    ______ ____
ROOT
ATOM      1  C   UNL     1       0.047   1.511   0.012  0.00  0.00    +0.067 C 
ATOM      2  C   UNL     1       0.049   0.004   0.003  0.00  0.00    +0.062 A 
ATOM      3  C   UNL     1       0.048  -0.806  -1.137  0.00  0.00    +0.068 A 
ATOM      4  C   UNL     1       0.051  -2.104  -0.727  0.00  0.00    +0.131 A 
ATOM      5  N   UNL     1       0.054  -2.101   0.635  0.00  0.00    -0.194 N 
ATOM      6  N   UNL     1       0.059  -0.767   1.060  0.00  0.00    -0.168 NA
ATOM      7  C   UNL     1       0.058  -3.225   1.458  0.00  0.00    +0.196 A 
ATOM      8  N   UNL     1       0.056  -3.295   2.776  0.00  0.00    -0.221 NA
ATOM      9  C   UNL     1       0.060  -4.461   3.403  0.00  0.00    +0.080 A 
ATOM     10  C   UNL     1       0.067  -5.616   2.671  0.00  0.00    +0.077 A 
ATOM     11  S   UNL     1       0.059  -4.955   1.010  0.00  0.00    -0.056 S 
ENDROOT
BRANCH   9  12
ATOM     12  C   UNL     1       0.059  -4.513   4.885  0.00  0.00    +0.001 A 
ATOM     13  C   UNL     1       0.069  -5.743   5.541  0.00  0.00    +0.011 A 
ATOM     14  C   UNL     1       0.068  -5.787   6.920  0.00  0.00    +0.020 A 
ATOM     15  C   UNL     1       0.056  -4.612   7.652  0.00  0.00    +0.041 A 
ATOM     16  C   UNL     1       0.044  -3.388   7.006  0.00  0.00    +0.020 A 
ATOM     17  C   UNL     1       0.052  -3.333   5.627  0.00  0.00    +0.011 A 
ATOM     18 CL   UNL     1       0.053  -4.673   9.387  0.00  0.00    -0.084 Cl
ENDBRANCH   9  12
BRANCH   4  19
ATOM     19  N   UNL     1       0.050  -3.229  -1.550  0.00  0.00    -0.270 N 
ATOM     20  C   UNL     1       0.046  -3.083  -2.890  0.00  0.00    +0.223 C 
ATOM     21  O   UNL     1       0.043  -1.974  -3.380  0.00  0.00    -0.275 OA
ATOM     22  H   UNL     1       0.052  -4.116  -1.159  0.00  0.00    +0.156 HD
BRANCH  20  23
ATOM     23  C   UNL     1       0.045  -4.300  -3.780  0.00  0.00    +0.102 C 
ATOM     24  C   UNL     1       1.349  -5.112  -3.609  0.00  0.00    +0.110 C 
ATOM     25  C   UNL     1       1.662  -5.610  -5.003  0.00  0.00    +0.221 C 
ATOM     26  O   UNL     1       2.436  -6.507  -5.262  0.00  0.00    -0.275 OA
ATOM     27  N   UNL     1       0.955  -4.916  -5.911  0.00  0.00    -0.271 N 
ATOM     28  C   UNL     1       0.118  -3.895  -5.269  0.00  0.00    +0.127 C 
BRANCH  27  29
ATOM     29  C   UNL     1       1.011  -5.138  -7.292  0.00  0.00    +0.036 A 
ATOM     30  C   UNL     1       1.917  -6.051  -7.814  0.00  0.00    +0.025 A 
ATOM     31  C   UNL     1       1.969  -6.269  -9.177  0.00  0.00    +0.022 A 
ATOM     32  C   UNL     1       1.120  -5.576 -10.022  0.00  0.00    +0.041 A 
ATOM     33  C   UNL     1       0.216  -4.665  -9.505  0.00  0.00    +0.022 A 
ATOM     34  C   UNL     1       0.156  -4.449  -8.142  0.00  0.00    +0.025 A 
ATOM     35 CL   UNL     1       1.189  -5.851 -11.735  0.00  0.00    -0.084 Cl
ENDBRANCH  27  29
ENDBRANCH  20  23
ENDBRANCH   4  19
TORSDOF 4
