REMARK  Name = ZINC39594715
REMARK  11 active torsions:
REMARK  status: ('A' for Active; 'I' for Inactive)
REMARK    1  A    between atoms: C_1  and  C_2
REMARK    2  A    between atoms: C_5  and  C_34
REMARK    3  A    between atoms: C_6  and  N_8
REMARK    4  A    between atoms: C_9  and  C_11
REMARK    5  A    between atoms: C_11  and  O_12
REMARK    6  A    between atoms: O_12  and  C_13
REMARK    7  A    between atoms: C_13  and  C_15
REMARK    8  A    between atoms: C_19  and  S_21
REMARK    9  A    between atoms: S_21  and  N_24
REMARK   10  A    between atoms: C_26  and  C_33
REMARK   11  A    between atoms: C_29  and  C_32
REMARK                            x       y       z     vdW  Elec       q    Type
REMARK                         _______ _______ _______ _____ _____    ______ ____
ROOT
ATOM      1  C   UNL     1       0.584  -1.619   8.355  0.00  0.00    +0.061 A 
ATOM      2  C   UNL     1       0.543  -0.233   8.192  0.00  0.00    +0.015 A 
ATOM      3  C   UNL     1       0.633   0.591   9.294  0.00  0.00    +0.003 A 
ATOM      4  C   UNL     1       0.763   0.047  10.560  0.00  0.00    +0.028 A 
ATOM      5  C   UNL     1       0.805  -1.326  10.729  0.00  0.00    +0.106 A 
ATOM      6  C   UNL     1       0.710  -2.162   9.635  0.00  0.00    +0.043 A 
ENDROOT
BRANCH   5   7
ATOM      7  S   UNL     1       0.972  -2.008  12.345  0.00  0.00    +0.061 S 
ATOM      8  O   UNL     1       1.534  -3.303  12.183  0.00  0.00    -0.153 OA
ATOM      9  O   UNL     1       1.584  -1.007  13.147  0.00  0.00    -0.153 OA
BRANCH   7  10
ATOM     10  N   UNL     1      -0.556  -2.227  12.944  0.00  0.00    -0.176 NA
ATOM     11  C   UNL     1      -1.224  -1.158  13.700  0.00  0.00    +0.112 C 
ATOM     12  C   UNL     1      -2.588  -0.881  13.061  0.00  0.00    +0.002 C 
ATOM     13  C   UNL     1      -3.384  -2.187  12.982  0.00  0.00    +0.009 C 
ATOM     14  C   UNL     1      -2.634  -3.191  12.104  0.00  0.00    +0.002 C 
ATOM     15  C   UNL     1      -1.272  -3.491  12.726  0.00  0.00    +0.112 C 
ATOM     16  C   UNL     1      -3.446  -4.483  11.998  0.00  0.00    +0.009 C 
ATOM     17  C   UNL     1      -2.389  -0.319  11.653  0.00  0.00    +0.009 C 
ENDBRANCH   7  10
ENDBRANCH   5   7
BRANCH   1  18
ATOM     18  C   UNL     1       0.489  -2.508   7.179  0.00  0.00    +0.340 C 
ATOM     19  O   UNL     1       0.519  -3.714   7.325  0.00  0.00    -0.245 OA
BRANCH  18  20
ATOM     20  O   UNL     1       0.367  -1.982   5.945  0.00  0.00    -0.452 OA
BRANCH  20  21
ATOM     21  C   UNL     1       0.280  -2.900   4.854  0.00  0.00    +0.328 C 
BRANCH  21  23
ATOM     22  N   UNL     1       0.052  -2.797   2.393  0.00  0.00    -0.282 N 
ATOM     23  C   UNL     1       0.150  -2.135   3.562  0.00  0.00    +0.255 C 
ATOM     24  O   UNL     1       0.134  -0.922   3.575  0.00  0.00    -0.272 OA
ATOM     25  H   UNL     1      -0.016  -3.765   2.388  0.00  0.00    +0.155 HD
BRANCH  22  31
ATOM     26  C   UNL     1       1.264   1.227  -0.158  0.00  0.00    +0.044 C 
ATOM     27  C   UNL     1       0.628  -0.137  -0.079  0.00  0.00    -0.049 A 
ATOM     28  C   UNL     1       0.039  -0.690  -1.201  0.00  0.00    +0.004 A 
ATOM     29  C   UNL     1      -0.546  -1.941  -1.133  0.00  0.00    +0.005 A 
ATOM     30  C   UNL     1      -0.543  -2.643   0.057  0.00  0.00    -0.029 A 
ATOM     31  C   UNL     1       0.048  -2.090   1.185  0.00  0.00    +0.037 A 
ATOM     32  C   UNL     1       0.639  -0.835   1.112  0.00  0.00    +0.027 A 
ATOM     33  C   UNL     1      -1.181  -4.006   0.131  0.00  0.00    +0.045 C 
ENDBRANCH  22  31
ENDBRANCH  21  23
ENDBRANCH  20  21
ENDBRANCH  18  20
ENDBRANCH   1  18
TORSDOF 7
