REMARK  Name = ZINC03325664
REMARK  7 active torsions:
REMARK  status: ('A' for Active; 'I' for Inactive)
REMARK    1  A    between atoms: C_1  and  C_2
REMARK    2  A    between atoms: C_12  and  C_16
REMARK    3  A    between atoms: N_17  and  C_18
REMARK    4  A    between atoms: C_18  and  C_19
REMARK    5  A    between atoms: C_19  and  C_20
REMARK    6  A    between atoms: C_23  and  S_26
REMARK    7  A    between atoms: S_26  and  N_29
REMARK                            x       y       z     vdW  Elec       q    Type
REMARK                         _______ _______ _______ _____ _____    ______ ____
ROOT
ATOM      1  C   UNL     1       0.973  -3.996  -6.250  0.00  0.00    +0.088 C 
ATOM      2  C   UNL     1       1.113  -4.805  -4.986  0.00  0.00    +0.129 A 
ATOM      3  N   UNL     1       1.114  -4.186  -3.819  0.00  0.00    -0.217 NA
ATOM      4  C   UNL     1       1.239  -4.839  -2.675  0.00  0.00    +0.131 A 
ATOM      5  C   UNL     1       1.365  -6.256  -2.697  0.00  0.00    +0.051 A 
ATOM      6  C   UNL     1       1.509  -7.181  -1.571  0.00  0.00    -0.025 A 
ATOM      7  C   UNL     1       1.611  -8.492  -1.867  0.00  0.00    -0.004 A 
ATOM      8  S   UNL     1       1.522  -8.576  -3.635  0.00  0.00    -0.073 S 
ATOM      9  C   UNL     1       1.349  -6.845  -3.977  0.00  0.00    +0.114 A 
ATOM     10  N   UNL     1       1.226  -6.117  -5.070  0.00  0.00    -0.225 NA
ATOM     11  C   UNL     1       1.766  -9.630  -0.904  0.00  0.00    +0.046 C 
ATOM     12  C   UNL     1       2.167  -9.058   0.463  0.00  0.00    -0.009 C 
ATOM     13  C   UNL     1       1.238  -7.887   0.796  0.00  0.00    +0.008 C 
ATOM     14  C   UNL     1       1.545  -6.703  -0.122  0.00  0.00    +0.037 C 
ATOM     15  C   UNL     1       2.035 -10.143   1.532  0.00  0.00    +0.008 C 
ATOM     16  N   UNL     1       1.242  -4.153  -1.474  0.00  0.00    -0.328 N 
ATOM     17  H   UNL     1       1.412  -4.628  -0.645  0.00  0.00    +0.147 HD
ENDROOT
BRANCH  16  18
ATOM     18  C   UNL     1       0.987  -2.711  -1.453  0.00  0.00    +0.107 C 
BRANCH  18  19
ATOM     19  C   UNL     1       1.046  -2.203  -0.011  0.00  0.00    +0.054 C 
BRANCH  19  20
ATOM     20  C   UNL     1       0.784  -0.719   0.011  0.00  0.00    -0.046 A 
ATOM     21  C   UNL     1      -0.509  -0.247   0.142  0.00  0.00    +0.005 A 
ATOM     22  C   UNL     1      -0.749   1.114   0.162  0.00  0.00    +0.029 A 
ATOM     23  C   UNL     1       0.303   2.003   0.051  0.00  0.00    +0.105 A 
ATOM     24  C   UNL     1       1.595   1.531  -0.082  0.00  0.00    +0.029 A 
ATOM     25  C   UNL     1       1.836   0.170  -0.101  0.00  0.00    +0.005 A 
BRANCH  23  26
ATOM     26  S   UNL     1      -0.004   3.738   0.076  0.00  0.00    +0.056 S 
ATOM     27  O   UNL     1       1.089   4.353  -0.592  0.00  0.00    -0.153 OA
ATOM     28  O   UNL     1      -1.350   3.919  -0.341  0.00  0.00    -0.153 OA
BRANCH  26  29
ATOM     29  N   UNL     1       0.073   4.226   1.657  0.00  0.00    -0.204 NA
ATOM     30  H   UNL     1       0.260   3.579   2.355  0.00  0.00    +0.144 HD
ATOM     31  H   UNL     1      -0.070   5.158   1.884  0.00  0.00    +0.144 HD
ENDBRANCH  26  29
ENDBRANCH  23  26
ENDBRANCH  19  20
ENDBRANCH  18  19
ENDBRANCH  16  18
TORSDOF 5
