REMARK  Name = ZINC07572217
REMARK  7 active torsions:
REMARK  status: ('A' for Active; 'I' for Inactive)
REMARK    1  A    between atoms: C_1  and  C_2
REMARK    2  A    between atoms: C_3  and  N_9
REMARK    3  A    between atoms: N_9  and  C_10
REMARK    4  A    between atoms: C_10  and  N_12
REMARK    5  A    between atoms: N_12  and  N_13
REMARK    6  A    between atoms: C_14  and  C_16
REMARK    7  A    between atoms: C_25  and  O_26
REMARK                            x       y       z     vdW  Elec       q    Type
REMARK                         _______ _______ _______ _____ _____    ______ ____
ROOT
ATOM      1  N   UNL     1       0.162   1.431  -4.730  0.00  0.00    -0.231 N 
ATOM      2  C   UNL     1       0.249   2.114  -5.888  0.00  0.00    +0.264 C 
ATOM      3  O   UNL     1       0.344   1.514  -6.942  0.00  0.00    -0.269 OA
ATOM      4  H   UNL     1       0.086   1.909  -3.889  0.00  0.00    +0.173 HD
ENDROOT
BRANCH   2   5
ATOM      5  C   UNL     1       0.228   3.590  -5.878  0.00  0.00    +0.080 A 
ATOM      6  C   UNL     1       0.125   4.268  -4.674  0.00  0.00    +0.025 A 
ATOM      7  C   UNL     1       0.106   5.670  -4.671  0.00  0.00    -0.017 A 
ATOM      8  C   UNL     1       0.003   6.391  -3.467  0.00  0.00    +0.008 A 
ATOM      9  C   UNL     1      -0.012   7.751  -3.496  0.00  0.00    +0.001 A 
ATOM     10  C   UNL     1       0.072   8.444  -4.703  0.00  0.00    +0.001 A 
ATOM     11  C   UNL     1       0.172   7.781  -5.887  0.00  0.00    +0.008 A 
ATOM     12  C   UNL     1       0.192   6.375  -5.899  0.00  0.00    -0.014 A 
ATOM     13  C   UNL     1       0.295   5.664  -7.106  0.00  0.00    +0.054 A 
ATOM     14  C   UNL     1       0.319   4.300  -7.093  0.00  0.00    +0.130 A 
BRANCH  14  15
ATOM     15  O   UNL     1       0.424   3.620  -8.263  0.00  0.00    -0.506 OA
ATOM     16  H   UNL     1      -0.425   3.410  -8.674  0.00  0.00    +0.292 HD
ENDBRANCH  14  15
ENDBRANCH   2   5
BRANCH   1  17
ATOM     17  N   UNL     1       0.182   0.030  -4.739  0.00  0.00    -0.245 N 
ATOM     18  H   UNL     1       0.258  -0.448  -5.580  0.00  0.00    +0.172 HD
BRANCH  17  19
ATOM     19  C   UNL     1       0.095  -0.653  -3.581  0.00  0.00    +0.151 C 
ATOM     20  S   UNL     1       0.119  -2.365  -3.593  0.00  0.00    -0.017 S 
BRANCH  19  21
ATOM     21  N   UNL     1      -0.010   0.011  -2.413  0.00  0.00    -0.296 N 
ATOM     22  H   UNL     1      -0.104   0.976  -2.411  0.00  0.00    +0.154 HD
BRANCH  21  25
ATOM     23  C   UNL     1      -1.912   0.706  -0.414  0.00  0.00    +0.047 C 
ATOM     24  C   UNL     1      -0.895  -0.385  -0.201  0.00  0.00    -0.011 A 
ATOM     25  C   UNL     1       0.016  -0.692  -1.204  0.00  0.00    +0.037 A 
ATOM     26  C   UNL     1       0.952  -1.698  -1.004  0.00  0.00    +0.023 A 
ATOM     27  C   UNL     1       0.975  -2.391   0.191  0.00  0.00    +0.003 A 
ATOM     28  C   UNL     1       0.068  -2.084   1.188  0.00  0.00    +0.020 A 
ATOM     29  C   UNL     1      -0.863  -1.078   0.994  0.00  0.00    +0.046 A 
ATOM     30 CL   UNL     1      -1.996  -0.690   2.252  0.00  0.00    -0.083 Cl
ENDBRANCH  21  25
ENDBRANCH  19  21
ENDBRANCH  17  19
ENDBRANCH   1  17
TORSDOF 6
