REMARK  Name = ZINC35954616
REMARK  15 active torsions:
REMARK  status: ('A' for Active; 'I' for Inactive)
REMARK    1  A    between atoms: C_1  and  C_2
REMARK    2  A    between atoms: C_2  and  N_3
REMARK    3  A    between atoms: N_6  and  C_9
REMARK    4  A    between atoms: C_10  and  C_22
REMARK    5  A    between atoms: C_11  and  C_21
REMARK    6  A    between atoms: N_13  and  C_14
REMARK    7  A    between atoms: C_22  and  N_23
REMARK    8  A    between atoms: N_23  and  C_24
REMARK    9  A    between atoms: N_23  and  C_28
REMARK   10  A    between atoms: C_24  and  C_25
REMARK   11  A    between atoms: C_25  and  O_26
REMARK   12  A    between atoms: O_26  and  C_27
REMARK   13  A    between atoms: C_28  and  C_29
REMARK   14  A    between atoms: C_32  and  C_36
REMARK   15  A    between atoms: C_34  and  O_35
REMARK                            x       y       z     vdW  Elec       q    Type
REMARK                         _______ _______ _______ _____ _____    ______ ____
ROOT
ATOM      1  C   UNL     1       3.557  -2.582  -3.446  0.00  0.00    +0.126 A 
ATOM      2  C   UNL     1       3.566  -3.910  -3.145  0.00  0.00    -0.001 A 
ATOM      3  C   UNL     1       4.857  -4.394  -3.377  0.00  0.00    +0.064 A 
ATOM      4  N   UNL     1       5.601  -3.404  -3.801  0.00  0.00    -0.170 NA
ATOM      5  N   UNL     1       4.810  -2.249  -3.861  0.00  0.00    -0.218 N 
ATOM      6  C   UNL     1       5.314  -5.815  -3.174  0.00  0.00    +0.068 C 
ENDROOT
BRANCH   1  10
ATOM      7  N   UNL     1      -0.112  -0.804  -2.785  0.00  0.00    +0.382 N 
ATOM      8  C   UNL     1       0.808  -1.095  -1.679  0.00  0.00    -0.060 C 
ATOM      9  C   UNL     1       2.252  -0.899  -2.153  0.00  0.00    +0.088 C 
ATOM     10  N   UNL     1       2.466  -1.723  -3.352  0.00  0.00    -0.318 N 
ATOM     11  C   UNL     1       1.492  -1.615  -4.450  0.00  0.00    +0.088 C 
ATOM     12  C   UNL     1       0.084  -1.777  -3.868  0.00  0.00    -0.060 C 
ATOM     13  H   UNL     1       0.067   0.126  -3.134  0.00  0.00    -0.082 HD
BRANCH   7  15
ATOM     14  C   UNL     1      -1.739   0.211  -1.262  0.00  0.00    -0.017 C 
ATOM     15  C   UNL     1      -1.497  -0.885  -2.302  0.00  0.00    -0.082 C 
ENDBRANCH   7  15
ENDBRANCH   1  10
BRANCH   5  16
ATOM     16  C   UNL     1       5.234  -0.977  -4.272  0.00  0.00    +0.068 A 
ATOM     17  C   UNL     1       4.415  -0.199  -5.080  0.00  0.00    +0.030 A 
ATOM     18  C   UNL     1       4.835   1.053  -5.483  0.00  0.00    +0.040 A 
ATOM     19  C   UNL     1       6.070   1.533  -5.083  0.00  0.00    +0.124 A 
ATOM     20  C   UNL     1       6.888   0.759  -4.277  0.00  0.00    +0.040 A 
ATOM     21  C   UNL     1       6.470  -0.492  -3.867  0.00  0.00    +0.030 A 
ATOM     22  F   UNL     1       6.479   2.758  -5.479  0.00  0.00    -0.205 F 
ENDBRANCH   5  16
BRANCH   2  23
ATOM     23  C   UNL     1       2.393  -4.715  -2.649  0.00  0.00    -0.037 C 
BRANCH  23  24
ATOM     24  N   UNL     1       1.571  -5.138  -3.792  0.00  0.00    +0.387 N 
ATOM     25  H   UNL     1       1.304  -4.328  -4.332  0.00  0.00    -0.081 HD
BRANCH  24  26
ATOM     26  C   UNL     1       2.344  -6.057  -4.637  0.00  0.00    -0.049 C 
BRANCH  26  27
ATOM     27  C   UNL     1       1.543  -6.386  -5.898  0.00  0.00    +0.141 C 
BRANCH  27  28
ATOM     28  O   UNL     1       1.347  -5.195  -6.662  0.00  0.00    -0.385 OA
ATOM     29  C   UNL     1       0.605  -5.392  -7.868  0.00  0.00    +0.193 C 
ENDBRANCH  27  28
ENDBRANCH  26  27
ENDBRANCH  24  26
BRANCH  24  30
ATOM     30  C   UNL     1       0.365  -5.819  -3.302  0.00  0.00    -0.039 C 
BRANCH  30  31
ATOM     31  C   UNL     1       0.764  -7.023  -2.488  0.00  0.00    -0.022 A 
ATOM     32  C   UNL     1       0.808  -8.272  -3.077  0.00  0.00    +0.005 A 
ATOM     33  C   UNL     1       1.174  -9.377  -2.330  0.00  0.00    +0.004 A 
ATOM     34  C   UNL     1       1.496  -9.235  -0.993  0.00  0.00    -0.047 A 
ATOM     35  C   UNL     1       1.455  -7.988  -0.400  0.00  0.00    +0.049 A 
ATOM     36  C   UNL     1       1.093  -6.877  -1.148  0.00  0.00    +0.118 A 
ATOM     37  C   UNL     1       1.894 -10.442  -0.182  0.00  0.00    +0.044 C 
BRANCH  36  38
ATOM     38  O   UNL     1       1.057  -5.649  -0.568  0.00  0.00    -0.507 OA
ATOM     39  H   UNL     1       0.201  -5.423  -0.179  0.00  0.00    +0.292 HD
ENDBRANCH  36  38
ENDBRANCH  30  31
ENDBRANCH  24  30
ENDBRANCH  23  24
ENDBRANCH   2  23
TORSDOF 11
