REMARK  Name = ZINC22135315
REMARK  8 active torsions:
REMARK  status: ('A' for Active; 'I' for Inactive)
REMARK    1  A    between atoms: C_1  and  C_2
REMARK    2  A    between atoms: C_5  and  C_28
REMARK    3  A    between atoms: C_6  and  C_15
REMARK    4  A    between atoms: C_10  and  N_12
REMARK    5  A    between atoms: N_17  and  N_18
REMARK    6  A    between atoms: C_19  and  C_20
REMARK    7  A    between atoms: C_23  and  O_27
REMARK    8  A    between atoms: C_25  and  O_26
REMARK                            x       y       z     vdW  Elec       q    Type
REMARK                         _______ _______ _______ _____ _____    ______ ____
ROOT
ATOM      1  C   UNL     1      -2.298  -8.093  -0.019  0.00  0.00    +0.044 C 
ATOM      2  C   UNL     1      -1.623  -6.746  -0.019  0.00  0.00    -0.048 A 
ATOM      3  C   UNL     1      -2.379  -5.608  -0.005  0.00  0.00    +0.014 A 
ATOM      4  C   UNL     1      -1.754  -4.359  -0.005  0.00  0.00    +0.011 A 
ATOM      5  C   UNL     1      -2.251  -2.978   0.008  0.00  0.00    +0.020 A 
ATOM      6  C   UNL     1      -1.136  -2.160   0.001  0.00  0.00    +0.112 A 
ATOM      7  N   UNL     1      -0.002  -2.945  -0.020  0.00  0.00    -0.348 N 
ATOM      8  H   UNL     1       0.992  -2.475  -0.035  0.00  0.00    +0.166 HD
ATOM      9  C   UNL     1      -0.349  -4.276  -0.018  0.00  0.00    +0.078 A 
ATOM     10  C   UNL     1       0.401  -5.450  -0.031  0.00  0.00    +0.150 A 
ATOM     11  C   UNL     1      -0.236  -6.671  -0.032  0.00  0.00    +0.038 A 
ENDROOT
BRANCH   5  12
ATOM     12  C   UNL     1      -3.666  -2.547   0.023  0.00  0.00    -0.015 A 
ATOM     13  C   UNL     1      -4.477  -2.841   1.120  0.00  0.00    +0.008 A 
ATOM     14  C   UNL     1      -5.794  -2.432   1.131  0.00  0.00    +0.001 A 
ATOM     15  C   UNL     1      -6.315  -1.740   0.051  0.00  0.00    +0.000 A 
ATOM     16  C   UNL     1      -5.518  -1.450  -1.042  0.00  0.00    +0.001 A 
ATOM     17  C   UNL     1      -4.198  -1.849  -1.062  0.00  0.00    +0.008 A 
ENDBRANCH   5  12
BRANCH   6  18
ATOM     18  C   UNL     1      -1.156  -0.694   0.009  0.00  0.00    +0.280 C 
ATOM     19  O   UNL     1      -2.218  -0.099   0.023  0.00  0.00    -0.267 OA
ATOM     20  N   UNL     1       0.002  -0.004   0.002  0.00  0.00    -0.202 N 
ATOM     21  H   UNL     1       0.962  -0.541  -0.010  0.00  0.00    +0.178 HD
BRANCH  20  22
ATOM     22  N   UNL     1      -0.017   1.397   0.010  0.00  0.00    -0.187 NA
ATOM     23  C   UNL     1       1.099   2.061   0.003  0.00  0.00    +0.142 C 
BRANCH  23  24
ATOM     24  C   UNL     1       1.079   3.534   0.011  0.00  0.00    +0.036 A 
ATOM     25  C   UNL     1       2.278   4.252   0.003  0.00  0.00    +0.016 A 
ATOM     26  C   UNL     1       2.255   5.630   0.011  0.00  0.00    +0.046 A 
ATOM     27  C   UNL     1       1.042   6.309   0.026  0.00  0.00    +0.120 A 
ATOM     28  C   UNL     1      -0.153   5.605   0.033  0.00  0.00    +0.091 A 
ATOM     29  C   UNL     1      -0.143   4.222   0.020  0.00  0.00    +0.129 A 
BRANCH  29  30
ATOM     30  O   UNL     1      -1.313   3.532   0.022  0.00  0.00    -0.506 OA
ATOM     31  H   UNL     1      -2.271   4.073   0.029  0.00  0.00    +0.292 HD
ENDBRANCH  29  30
BRANCH  27  32
ATOM     32  O   UNL     1       1.028   7.667   0.034  0.00  0.00    -0.507 OA
ATOM     33  H   UNL     1       0.070   8.207   0.046  0.00  0.00    +0.292 HD
ENDBRANCH  27  32
ENDBRANCH  23  24
ENDBRANCH  20  22
ENDBRANCH   6  18
BRANCH  10  34
ATOM     34  N   UNL     1       1.880  -5.386  -0.044  0.00  0.00    +0.058 N 
ATOM     35  O   UNL     1       2.534  -6.413  -0.056  0.00  0.00    -0.126 OA
ATOM     36  O   UNL     1       2.442  -4.305  -0.043  0.00  0.00    -0.126 OA
ENDBRANCH  10  34
TORSDOF 7
