REMARK  Name = ZINC06282670
REMARK  8 active torsions:
REMARK  status: ('A' for Active; 'I' for Inactive)
REMARK    1  A    between atoms: C_1  and  O_2
REMARK    2  A    between atoms: O_2  and  C_3
REMARK    3  A    between atoms: C_10  and  C_15
REMARK    4  A    between atoms: C_15  and  C_17
REMARK    5  A    between atoms: C_15  and  N_71
REMARK    6  A    between atoms: N_21  and  C_22
REMARK    7  A    between atoms: C_29  and  C_32
REMARK    8  A    between atoms: C_32  and  C_33
REMARK                            x       y       z     vdW  Elec       q    Type
REMARK                         _______ _______ _______ _____ _____    ______ ____
ROOT
ATOM      1  C   UNL     1      -1.334   2.140   0.020  0.00  0.00    +0.039 C 
ENDROOT
BRANCH   1   9
ATOM      2  C   UNL     1       2.683  -1.953   2.374  0.00  0.00    +0.121 A 
ATOM      3  C   UNL     1       3.588  -1.900   1.317  0.00  0.00    +0.047 A 
ATOM      4  C   UNL     1       3.354  -1.083   0.233  0.00  0.00    +0.030 A 
ATOM      5  C   UNL     1       2.204  -0.300   0.188  0.00  0.00    +0.049 A 
ATOM      6  C   UNL     1       1.287  -0.351   1.255  0.00  0.00    +0.002 A 
ATOM      7  C   UNL     1       1.536  -1.185   2.350  0.00  0.00    +0.055 A 
ATOM      8  C   UNL     1       0.083   0.479   1.195  0.00  0.00    +0.017 A 
ATOM      9  C   UNL     1      -0.107   1.269   0.109  0.00  0.00    +0.011 A 
ATOM     10  C   UNL     1       0.843   1.283  -0.934  0.00  0.00    +0.251 A 
ATOM     11  O   UNL     1       0.652   2.001  -1.901  0.00  0.00    -0.268 OA
ATOM     12  N   UNL     1       1.952   0.525  -0.889  0.00  0.00    -0.322 N 
ATOM     13  H   UNL     1       2.585   0.559  -1.623  0.00  0.00    +0.169 HD
BRANCH   2  15
ATOM     14  C   UNL     1       4.134  -3.534   3.398  0.00  0.00    +0.277 C 
ATOM     15  O   UNL     1       2.930  -2.766   3.436  0.00  0.00    -0.495 OA
ENDBRANCH   2  15
ENDBRANCH   1   9
BRANCH   1  21
ATOM     16  C   UNL     1      -2.385   0.339  -1.209  0.00  0.00    -0.077 C 
ATOM     17  C   UNL     1      -3.059  -0.023  -2.535  0.00  0.00    -0.015 C 
ATOM     18  C   UNL     1      -4.359   0.773  -2.674  0.00  0.00    -0.010 C 
ATOM     19  C   UNL     1      -4.045   2.269  -2.590  0.00  0.00    -0.015 C 
ATOM     20  C   UNL     1      -3.342   2.564  -1.263  0.00  0.00    -0.077 C 
ATOM     21  N   UNL     1      -2.087   1.787  -1.201  0.00  0.00    +0.389 N 
ATOM     22  H   UNL     1      -1.514   2.013  -2.023  0.00  0.00    -0.080 HD
BRANCH  18  23
ATOM     23  C   UNL     1      -5.007   0.462  -4.025  0.00  0.00    +0.038 C 
BRANCH  23  24
ATOM     24  C   UNL     1      -5.428  -0.985  -4.059  0.00  0.00    -0.047 A 
ATOM     25  C   UNL     1      -4.552  -1.948  -4.524  0.00  0.00    +0.003 A 
ATOM     26  C   UNL     1      -4.937  -3.276  -4.551  0.00  0.00    +0.000 A 
ATOM     27  C   UNL     1      -6.200  -3.638  -4.122  0.00  0.00    +0.000 A 
ATOM     28  C   UNL     1      -7.077  -2.674  -3.663  0.00  0.00    +0.000 A 
ATOM     29  C   UNL     1      -6.691  -1.347  -3.631  0.00  0.00    +0.003 A 
ENDBRANCH  23  24
ENDBRANCH  18  23
ENDBRANCH   1  21
BRANCH   1  30
ATOM     30  C   UNL     1      -2.186   1.935   1.246  0.00  0.00    +0.143 A 
ATOM     31  N   UNL     1      -2.950   0.902   1.504  0.00  0.00    -0.115 NA
ATOM     32  N   UNL     1      -3.513   1.098   2.646  0.00  0.00    -0.023 NA
ATOM     33  N   UNL     1      -3.133   2.233   3.120  0.00  0.00    -0.044 NA
ATOM     34  N   UNL     1      -2.315   2.780   2.286  0.00  0.00    -0.227 N 
BRANCH  34  35
ATOM     35  C   UNL     1      -1.651   4.076   2.441  0.00  0.00    +0.111 C 
ATOM     36  C   UNL     1      -0.818   4.092   3.739  0.00  0.00    +0.027 C 
ATOM     37  C   UNL     1      -0.989   5.533   4.283  0.00  0.00    +0.002 C 
ATOM     38  C   UNL     1      -2.470   5.849   3.954  0.00  0.00    +0.002 C 
ATOM     39  C   UNL     1      -2.700   5.193   2.577  0.00  0.00    +0.027 C 
ENDBRANCH  34  35
ENDBRANCH   1  30
TORSDOF 7
