REMARK  Name = ZINC01254801
REMARK  2 active torsions:
REMARK  status: ('A' for Active; 'I' for Inactive)
REMARK    1  A    between atoms: C_1  and  C_2
REMARK    2  A    between atoms: N_10  and  C_14
REMARK                            x       y       z     vdW  Elec       q    Type
REMARK                         _______ _______ _______ _____ _____    ______ ____
ROOT
ATOM      1  C   UNL     1       0.585   0.865  -0.514  0.00  0.00    +0.011 C 
ATOM      2  C   UNL     1       0.375  -0.577  -0.048  0.00  0.00    +0.028 C 
ATOM      3  C   UNL     1       1.220  -1.519  -0.909  0.00  0.00    +0.007 C 
ATOM      4  C   UNL     1       1.022  -2.960  -0.433  0.00  0.00    +0.000 C 
ATOM      5  C   UNL     1       1.466  -3.080   1.027  0.00  0.00    +0.004 C 
ATOM      6  C   UNL     1       0.621  -2.143   1.894  0.00  0.00    +0.046 C 
ATOM      7  C   UNL     1       0.796  -0.706   1.413  0.00  0.00    +0.110 C 
ATOM      8  N   UNL     1       2.194  -0.277   1.581  0.00  0.00    -0.209 NA
ATOM      9  N   UNL     1       2.174   0.785   2.440  0.00  0.00    -0.212 N 
ATOM     10  C   UNL     1       0.901   1.069   2.830  0.00  0.00    +0.161 C 
ATOM     11  N   UNL     1       0.011   0.209   2.251  0.00  0.00    -0.346 N 
ATOM     12  S   UNL     1       0.486   2.293   3.871  0.00  0.00    -0.014 SA
ATOM     13  H   UNL     1       2.761  -1.027   1.947  0.00  0.00    +0.147 HD
ATOM     14  H   UNL     1      -0.951   0.205   2.369  0.00  0.00    +0.163 HD
ENDROOT
BRANCH   9  15
ATOM     15  C   UNL     1       3.309   1.486   2.862  0.00  0.00    +0.052 A 
ATOM     16  C   UNL     1       4.245   1.919   1.932  0.00  0.00    +0.025 A 
ATOM     17  C   UNL     1       5.364   2.612   2.352  0.00  0.00    +0.002 A 
ATOM     18  C   UNL     1       5.553   2.874   3.696  0.00  0.00    +0.000 A 
ATOM     19  C   UNL     1       4.623   2.444   4.625  0.00  0.00    +0.002 A 
ATOM     20  C   UNL     1       3.499   1.756   4.211  0.00  0.00    +0.025 A 
ENDBRANCH   9  15
TORSDOF 1
