REMARK  Name = ZINC38650722
REMARK  13 active torsions:
REMARK  status: ('A' for Active; 'I' for Inactive)
REMARK    1  A    between atoms: C_1  and  C_2
REMARK    2  A    between atoms: C_2  and  C_3
REMARK    3  A    between atoms: C_3  and  O_4
REMARK    4  A    between atoms: O_4  and  C_5
REMARK    5  A    between atoms: C_8  and  C_11
REMARK    6  A    between atoms: C_16  and  O_25
REMARK    7  A    between atoms: C_20  and  N_24
REMARK    8  A    between atoms: C_21  and  C_22
REMARK    9  A    between atoms: O_25  and  C_26
REMARK   10  A    between atoms: C_26  and  C_28
REMARK   11  A    between atoms: C_33  and  O_34
REMARK   12  A    between atoms: O_34  and  C_35
REMARK   13  A    between atoms: C_35  and  C_36
REMARK                            x       y       z     vdW  Elec       q    Type
REMARK                         _______ _______ _______ _____ _____    ______ ____
ROOT
ATOM      1  C   UNL     1      -6.437  -4.543   0.011  0.00  0.00    +0.098 C 
ATOM      2  C   UNL     1      -6.548  -5.408  -1.216  0.00  0.00    +0.008 A 
ATOM      3  C   UNL     1      -6.916  -4.837  -2.421  0.00  0.00    +0.012 A 
ATOM      4  C   UNL     1      -7.023  -5.615  -3.557  0.00  0.00    +0.047 A 
ATOM      5  C   UNL     1      -6.760  -6.976  -3.492  0.00  0.00    +0.135 A 
ATOM      6  C   UNL     1      -6.390  -7.551  -2.287  0.00  0.00    +0.093 A 
ATOM      7  C   UNL     1      -6.283  -6.767  -1.146  0.00  0.00    +0.138 A 
ATOM      8  O   UNL     1      -5.920  -7.346   0.025  0.00  0.00    -0.441 OA
ATOM      9  C   UNL     1      -6.179  -6.724   1.188  0.00  0.00    +0.199 C 
ATOM     10  C   UNL     1      -6.430  -5.398   1.247  0.00  0.00    +0.098 C 
ENDROOT
BRANCH   1  14
ATOM     11  C   UNL     1      -2.811  -2.288  -0.169  0.00  0.00    +0.121 A 
ATOM     12  C   UNL     1      -4.034  -1.634  -0.113  0.00  0.00    +0.046 A 
ATOM     13  C   UNL     1      -5.205  -2.366  -0.055  0.00  0.00    +0.008 A 
ATOM     14  C   UNL     1      -5.158  -3.748  -0.052  0.00  0.00    -0.034 A 
ATOM     15  C   UNL     1      -3.941  -4.401  -0.107  0.00  0.00    +0.008 A 
ATOM     16  C   UNL     1      -2.768  -3.674  -0.172  0.00  0.00    +0.046 A 
BRANCH  11  17
ATOM     17  O   UNL     1      -1.659  -1.570  -0.226  0.00  0.00    -0.492 OA
BRANCH  17  18
ATOM     18  C   UNL     1      -1.779  -0.146  -0.220  0.00  0.00    +0.229 C 
BRANCH  18  20
ATOM     19  C   UNL     1      -0.516   2.008  -0.282  0.00  0.00    +0.007 C 
ATOM     20  C   UNL     1      -0.387   0.484  -0.289  0.00  0.00    +0.038 C 
ENDBRANCH  18  20
ENDBRANCH  17  18
ENDBRANCH  11  17
ENDBRANCH   1  14
BRANCH   9  21
ATOM     21  N   UNL     1      -6.186  -7.457   2.348  0.00  0.00    -0.328 N 
ATOM     22  H   UNL     1      -6.006  -8.410   2.321  0.00  0.00    +0.145 HD
ATOM     23  H   UNL     1      -6.370  -7.023   3.196  0.00  0.00    +0.145 HD
ENDBRANCH   9  21
BRANCH  10  24
ATOM     24  C   UNL     1      -6.697  -4.795   2.518  0.00  0.00    +0.101 C 
ATOM     25  N   UNL     1      -6.909  -4.317   3.527  0.00  0.00    -0.191 NA
ENDBRANCH  10  24
BRANCH   5  26
ATOM     26  O   UNL     1      -6.865  -7.743  -4.609  0.00  0.00    -0.422 OA
BRANCH  26  27
ATOM     27  C   UNL     1      -5.955  -7.566  -5.587  0.00  0.00    +0.348 C 
ATOM     28  O   UNL     1      -5.015  -6.815  -5.413  0.00  0.00    -0.244 OA
BRANCH  27  29
ATOM     29  C   UNL     1      -6.100  -8.281  -6.867  0.00  0.00    +0.101 A 
ATOM     30  C   UNL     1      -7.183  -9.140  -7.074  0.00  0.00    +0.018 A 
ATOM     31  C   UNL     1      -7.312  -9.806  -8.273  0.00  0.00    +0.001 A 
ATOM     32  C   UNL     1      -6.373  -9.628  -9.276  0.00  0.00    +0.004 A 
ATOM     33  C   UNL     1      -5.299  -8.783  -9.086  0.00  0.00    +0.046 A 
ATOM     34  C   UNL     1      -5.156  -8.099  -7.887  0.00  0.00    +0.134 A 
BRANCH  34  35
ATOM     35  O   UNL     1      -4.104  -7.263  -7.701  0.00  0.00    -0.491 OA
BRANCH  35  36
ATOM     36  C   UNL     1      -3.183  -7.129  -8.785  0.00  0.00    +0.226 C 
ATOM     37  C   UNL     1      -2.072  -6.152  -8.392  0.00  0.00    +0.048 C 
ENDBRANCH  35  36
ENDBRANCH  34  35
ENDBRANCH  27  29
ENDBRANCH  26  27
ENDBRANCH   5  26
TORSDOF 11
