REMARK  Name = ZINC38681559
REMARK  14 active torsions:
REMARK  status: ('A' for Active; 'I' for Inactive)
REMARK    1  A    between atoms: C_1  and  C_2
REMARK    2  A    between atoms: C_2  and  C_3
REMARK    3  A    between atoms: C_3  and  O_4
REMARK    4  A    between atoms: O_4  and  C_5
REMARK    5  A    between atoms: C_10  and  C_11
REMARK    6  A    between atoms: C_16  and  O_25
REMARK    7  A    between atoms: C_20  and  N_24
REMARK    8  A    between atoms: C_21  and  C_22
REMARK    9  A    between atoms: O_25  and  C_26
REMARK   10  A    between atoms: C_26  and  C_28
REMARK   11  A    between atoms: C_28  and  O_29
REMARK   12  A    between atoms: O_29  and  C_30
REMARK   13  A    between atoms: C_31  and  C_37
REMARK   14  A    between atoms: C_35  and  C_36
REMARK                            x       y       z     vdW  Elec       q    Type
REMARK                         _______ _______ _______ _____ _____    ______ ____
ROOT
ATOM      1  C   UNL     1       0.809  -4.807   1.285  0.00  0.00    +0.101 C 
ATOM      2  C   UNL     1       1.868  -5.639   0.613  0.00  0.00    +0.008 A 
ATOM      3  C   UNL     1       2.675  -5.063  -0.352  0.00  0.00    +0.012 A 
ATOM      4  C   UNL     1       3.652  -5.811  -0.980  0.00  0.00    +0.047 A 
ATOM      5  C   UNL     1       3.826  -7.146  -0.643  0.00  0.00    +0.135 A 
ATOM      6  C   UNL     1       3.019  -7.726   0.322  0.00  0.00    +0.093 A 
ATOM      7  C   UNL     1       2.038  -6.972   0.953  0.00  0.00    +0.138 A 
ATOM      8  O   UNL     1       1.256  -7.555   1.895  0.00  0.00    -0.441 OA
ATOM      9  C   UNL     1       0.083  -6.994   2.232  0.00  0.00    +0.199 C 
ATOM     10  C   UNL     1      -0.189  -5.697   1.972  0.00  0.00    +0.098 C 
ENDROOT
BRANCH   1  16
ATOM     11  C   UNL     1       1.338  -2.527   2.185  0.00  0.00    +0.125 A 
ATOM     12  C   UNL     1       1.930  -1.699   3.128  0.00  0.00    +0.046 A 
ATOM     13  C   UNL     1       2.640  -2.247   4.178  0.00  0.00    +0.004 A 
ATOM     14  C   UNL     1       2.760  -3.620   4.291  0.00  0.00    +0.001 A 
ATOM     15  C   UNL     1       2.172  -4.447   3.353  0.00  0.00    +0.008 A 
ATOM     16  C   UNL     1       1.456  -3.904   2.304  0.00  0.00    +0.007 A 
BRANCH  11  17
ATOM     17  O   UNL     1       0.638  -1.991   1.151  0.00  0.00    -0.492 OA
BRANCH  17  18
ATOM     18  C   UNL     1       0.558  -0.565   1.092  0.00  0.00    +0.229 C 
BRANCH  18  20
ATOM     19  C   UNL     1      -0.348   1.376  -0.193  0.00  0.00    +0.007 C 
ATOM     20  C   UNL     1      -0.262  -0.150  -0.131  0.00  0.00    +0.038 C 
ENDBRANCH  18  20
ENDBRANCH  17  18
ENDBRANCH  11  17
ENDBRANCH   1  16
BRANCH   9  21
ATOM     21  N   UNL     1      -0.866  -7.762   2.860  0.00  0.00    -0.328 N 
ATOM     22  H   UNL     1      -0.685  -8.695   3.054  0.00  0.00    +0.145 HD
ATOM     23  H   UNL     1      -1.718  -7.372   3.110  0.00  0.00    +0.145 HD
ENDBRANCH   9  21
BRANCH  10  24
ATOM     24  C   UNL     1      -1.459  -5.160   2.358  0.00  0.00    +0.101 C 
ATOM     25  N   UNL     1      -2.466  -4.734   2.665  0.00  0.00    -0.191 NA
ENDBRANCH  10  24
BRANCH   5  26
ATOM     26  O   UNL     1       4.786  -7.884  -1.261  0.00  0.00    -0.423 OA
BRANCH  26  27
ATOM     27  C   UNL     1       4.393  -8.854  -2.102  0.00  0.00    +0.350 C 
ATOM     28  O   UNL     1       3.222  -8.981  -2.372  0.00  0.00    -0.247 OA
BRANCH  27  29
ATOM     29  C   UNL     1       5.412  -9.783  -2.710  0.00  0.00    +0.349 C 
BRANCH  29  30
ATOM     30  O   UNL     1       4.752 -10.720  -3.564  0.00  0.00    -0.480 OA
BRANCH  30  31
ATOM     31  C   UNL     1       5.533 -11.636  -4.195  0.00  0.00    +0.127 A 
ATOM     32  C   UNL     1       6.069 -11.350  -5.442  0.00  0.00    -0.009 A 
ATOM     33  C   UNL     1       6.863 -12.282  -6.081  0.00  0.00    +0.007 A 
ATOM     34  C   UNL     1       7.124 -13.499  -5.479  0.00  0.00    +0.001 A 
ATOM     35  C   UNL     1       6.591 -13.787  -4.236  0.00  0.00    +0.007 A 
ATOM     36  C   UNL     1       5.801 -12.855  -3.590  0.00  0.00    -0.009 A 
ATOM     37  C   UNL     1       5.225 -13.167  -2.233  0.00  0.00    +0.047 C 
ATOM     38  C   UNL     1       5.785 -10.024  -6.099  0.00  0.00    +0.047 C 
ENDBRANCH  30  31
ENDBRANCH  29  30
ENDBRANCH  27  29
ENDBRANCH  26  27
ENDBRANCH   5  26
TORSDOF 11
