REMARK  Name = ZINC49522545
REMARK  8 active torsions:
REMARK  status: ('A' for Active; 'I' for Inactive)
REMARK    1  A    between atoms: C_1  and  C_2
REMARK    2  A    between atoms: C_4  and  C_8
REMARK    3  A    between atoms: C_5  and  C_7
REMARK    4  A    between atoms: C_8  and  N_9
REMARK    5  A    between atoms: C_12  and  C_15
REMARK    6  A    between atoms: C_15  and  N_16
REMARK    7  A    between atoms: C_17  and  C_19
REMARK    8  A    between atoms: N_21  and  C_22
REMARK                            x       y       z     vdW  Elec       q    Type
REMARK                         _______ _______ _______ _____ _____    ______ ____
ROOT
ATOM      1  N   UNL     1      -1.511  -7.984   4.641  0.00  0.00    -0.307 N 
ATOM      2  C   UNL     1      -1.640  -8.643   5.810  0.00  0.00    +0.299 C 
ATOM      3  O   UNL     1      -1.158  -8.181   6.823  0.00  0.00    -0.265 OA
ATOM      4  H   UNL     1      -1.897  -8.353   3.831  0.00  0.00    +0.149 HD
ENDROOT
BRANCH   2   5
ATOM      5  C   UNL     1      -2.376  -9.941   5.857  0.00  0.00    +0.303 C 
ATOM      6  O   UNL     1      -2.858 -10.403   4.844  0.00  0.00    -0.265 OA
ATOM      7  N   UNL     1      -2.504 -10.600   7.026  0.00  0.00    -0.278 N 
ATOM      8  H   UNL     1      -2.063 -10.266   7.822  0.00  0.00    +0.155 HD
BRANCH   7   9
ATOM      9  C   UNL     1      -3.275 -11.765   7.090  0.00  0.00    +0.034 A 
ATOM     10  C   UNL     1      -3.296 -12.645   6.017  0.00  0.00    +0.028 A 
ATOM     11  C   UNL     1      -4.051 -13.803   6.080  0.00  0.00    -0.024 A 
ATOM     12  C   UNL     1      -4.784 -14.088   7.223  0.00  0.00    +0.043 A 
ATOM     13  C   UNL     1      -4.777 -13.198   8.291  0.00  0.00    -0.023 A 
ATOM     14  C   UNL     1      -4.016 -12.047   8.230  0.00  0.00    +0.028 A 
ATOM     15  C   UNL     1      -5.611 -13.471   9.515  0.00  0.00    +0.046 C 
ATOM     16  C   UNL     1      -5.696 -14.976   9.765  0.00  0.00    +0.101 C 
ATOM     17  C   UNL     1      -6.038 -15.685   8.483  0.00  0.00    +0.220 C 
ATOM     18  O   UNL     1      -6.771 -16.652   8.511  0.00  0.00    -0.275 OA
ATOM     19  N   UNL     1      -5.543 -15.262   7.308  0.00  0.00    -0.271 N 
ATOM     20  C   UNL     1      -5.798 -16.039   6.087  0.00  0.00    +0.114 C 
ATOM     21  C   UNL     1      -4.480 -16.136   5.309  0.00  0.00    +0.024 C 
ATOM     22  C   UNL     1      -4.052 -14.729   4.892  0.00  0.00    +0.038 C 
ENDBRANCH   7   9
ENDBRANCH   2   5
BRANCH   1  23
ATOM     23  C   UNL     1      -0.789  -6.710   4.595  0.00  0.00    +0.108 C 
BRANCH  23  27
ATOM     24  N   UNL     1      -1.391  -4.007   1.337  0.00  0.00    +0.382 N 
ATOM     25  C   UNL     1       0.001  -4.337   1.668  0.00  0.00    -0.078 C 
ATOM     26  C   UNL     1       0.069  -4.910   3.086  0.00  0.00    -0.014 C 
ATOM     27  C   UNL     1      -0.789  -6.176   3.161  0.00  0.00    +0.003 C 
ATOM     28  C   UNL     1      -2.222  -5.834   2.741  0.00  0.00    -0.014 C 
ATOM     29  C   UNL     1      -2.206  -5.227   1.337  0.00  0.00    -0.078 C 
ATOM     30  H   UNL     1      -1.753  -3.361   2.022  0.00  0.00    -0.081 HD
BRANCH  24  31
ATOM     31  C   UNL     1      -1.441  -3.386   0.006  0.00  0.00    -0.040 C 
BRANCH  31  35
ATOM     32  C   UNL     1       2.082   0.254  -0.529  0.00  0.00    +0.086 C 
ATOM     33  C   UNL     1       0.812  -0.484  -0.195  0.00  0.00    +0.102 A 
ATOM     34  C   UNL     1       0.578  -1.789  -0.421  0.00  0.00    +0.046 A 
ATOM     35  C   UNL     1      -0.730  -2.058   0.044  0.00  0.00    -0.023 A 
ATOM     36  C   UNL     1      -1.217  -0.901   0.527  0.00  0.00    +0.104 A 
ATOM     37  O   UNL     1      -0.276   0.048   0.385  0.00  0.00    -0.465 OA
ATOM     38  C   UNL     1      -2.583  -0.703   1.131  0.00  0.00    +0.086 C 
ENDBRANCH  31  35
ENDBRANCH  24  31
ENDBRANCH  23  27
ENDBRANCH   1  23
TORSDOF 6
