REMARK  Name = ZINC36583351
REMARK  16 active torsions:
REMARK  status: ('A' for Active; 'I' for Inactive)
REMARK    1  A    between atoms: C_1  and  C_2
REMARK    2  A    between atoms: C_2  and  C_3
REMARK    3  A    between atoms: C_3  and  C_5
REMARK    4  A    between atoms: C_3  and  C_11
REMARK    5  A    between atoms: N_13  and  C_14
REMARK    6  A    between atoms: N_13  and  C_37
REMARK    7  A    between atoms: C_14  and  C_16
REMARK    8  A    between atoms: C_14  and  C_23
REMARK    9  A    between atoms: C_19  and  C_22
REMARK   10  A    between atoms: N_25  and  C_26
REMARK   11  A    between atoms: C_26  and  S_27
REMARK   12  A    between atoms: S_27  and  C_30
REMARK   13  A    between atoms: C_33  and  C_36
REMARK   14  A    between atoms: C_37  and  C_38
REMARK   15  A    between atoms: C_37  and  C_39
REMARK   16  A    between atoms: C_37  and  C_40
REMARK                            x       y       z     vdW  Elec       q    Type
REMARK                         _______ _______ _______ _____ _____    ______ ____
ROOT
ATOM      1  C   UNL     1      -1.539  -3.959  -0.966  0.00  0.00    +0.193 C 
ENDROOT
BRANCH   1   2
ATOM      2  C   UNL     1      -1.692  -4.676   0.351  0.00  0.00    -0.018 A 
ATOM      3  C   UNL     1      -2.383  -4.078   1.387  0.00  0.00    +0.006 A 
ATOM      4  C   UNL     1      -2.524  -4.735   2.595  0.00  0.00    +0.004 A 
ATOM      5  C   UNL     1      -1.973  -5.991   2.767  0.00  0.00    -0.050 A 
ATOM      6  C   UNL     1      -1.282  -6.590   1.730  0.00  0.00    +0.004 A 
ATOM      7  C   UNL     1      -1.145  -5.934   0.521  0.00  0.00    +0.006 A 
ATOM      8  C   UNL     1      -2.125  -6.707   4.084  0.00  0.00    +0.044 C 
ENDBRANCH   1   2
BRANCH   1   9
ATOM      9  C   UNL     1      -2.804  -4.112  -1.771  0.00  0.00    +0.239 C 
ATOM     10  O   UNL     1      -3.308  -3.143  -2.297  0.00  0.00    -0.273 OA
ATOM     11  N   UNL     1      -3.374  -5.326  -1.906  0.00  0.00    -0.294 N 
ATOM     12  H   UNL     1      -2.970  -6.101  -1.485  0.00  0.00    +0.150 HD
BRANCH  11  13
ATOM     13  C   UNL     1      -4.603  -5.475  -2.688  0.00  0.00    +0.278 C 
BRANCH  13  14
ATOM     14  S   UNL     1      -4.185  -5.961  -4.385  0.00  0.00    +0.013 S 
ATOM     15  O   UNL     1      -5.371  -6.171  -5.140  0.00  0.00    -0.168 OA
ATOM     16  O   UNL     1      -3.142  -5.137  -4.888  0.00  0.00    -0.168 OA
BRANCH  14  17
ATOM     17  C   UNL     1      -3.461  -7.560  -4.232  0.00  0.00    +0.090 A 
ATOM     18  C   UNL     1      -2.097  -7.686  -4.044  0.00  0.00    +0.027 A 
ATOM     19  C   UNL     1      -1.529  -8.941  -3.924  0.00  0.00    +0.005 A 
ATOM     20  C   UNL     1      -2.325 -10.069  -3.991  0.00  0.00    -0.050 A 
ATOM     21  C   UNL     1      -3.688  -9.943  -4.178  0.00  0.00    +0.005 A 
ATOM     22  C   UNL     1      -4.257  -8.689  -4.294  0.00  0.00    +0.027 A 
ATOM     23  C   UNL     1      -1.705 -11.437  -3.861  0.00  0.00    +0.044 C 
ENDBRANCH  14  17
ENDBRANCH  13  14
ENDBRANCH  11  13
ENDBRANCH   1   9
BRANCH   1  26
ATOM     24  C   UNL     1      -2.295  -1.726  -0.350  0.00  0.00    +0.224 C 
ATOM     25  O   UNL     1      -3.422  -2.164  -0.262  0.00  0.00    -0.275 OA
ATOM     26  N   UNL     1      -1.284  -2.538  -0.721  0.00  0.00    -0.280 N 
BRANCH  26  27
ATOM     27  C   UNL     1       0.068  -1.998  -0.880  0.00  0.00    +0.030 C 
ATOM     28  C   UNL     1       0.274  -0.841   0.100  0.00  0.00    +0.031 C 
ATOM     29  C   UNL     1       1.093  -3.097  -0.594  0.00  0.00    +0.031 C 
ATOM     30  C   UNL     1       0.250  -1.491  -2.312  0.00  0.00    +0.031 C 
ENDBRANCH  26  27
BRANCH  24  31
ATOM     31  C   UNL     1      -2.023  -0.276  -0.044  0.00  0.00    +0.105 C 
BRANCH  31  32
ATOM     32  C   UNL     1      -3.257   0.352   0.549  0.00  0.00    -0.036 A 
ATOM     33  C   UNL     1      -4.437   0.373  -0.172  0.00  0.00    +0.004 A 
ATOM     34  C   UNL     1      -5.569   0.950   0.373  0.00  0.00    +0.000 A 
ATOM     35  C   UNL     1      -5.522   1.504   1.638  0.00  0.00    +0.000 A 
ATOM     36  C   UNL     1      -4.343   1.482   2.359  0.00  0.00    +0.000 A 
ATOM     37  C   UNL     1      -3.212   0.902   1.816  0.00  0.00    +0.004 A 
ENDBRANCH  31  32
BRANCH  31  39
ATOM     38  C   UNL     1      -1.953   1.947  -1.182  0.00  0.00    +0.005 C 
ATOM     39  C   UNL     1      -1.648   0.456  -1.335  0.00  0.00    +0.014 C 
ENDBRANCH  31  39
ENDBRANCH  24  31
ENDBRANCH   1  26
TORSDOF 10
