REMARK  Name = ZINC04651315
REMARK  5 active torsions:
REMARK  status: ('A' for Active; 'I' for Inactive)
REMARK    1  A    between atoms: C_1  and  C_2
REMARK    2  A    between atoms: C_9  and  N_13
REMARK    3  A    between atoms: C_10  and  C_11
REMARK    4  A    between atoms: C_14  and  C_16
REMARK    5  A    between atoms: C_16  and  C_17
REMARK                            x       y       z     vdW  Elec       q    Type
REMARK                         _______ _______ _______ _____ _____    ______ ____
ROOT
ATOM      1  N   UNL     1      -1.074  -0.881   0.008  0.00  0.00    -0.279 N 
ATOM      2  C   UNL     1      -2.333  -0.402   0.023  0.00  0.00    +0.218 C 
ATOM      3  O   UNL     1      -2.527   0.795   0.031  0.00  0.00    -0.275 OA
ATOM      4  H   UNL     1      -0.919  -1.839   0.002  0.00  0.00    +0.155 HD
ENDROOT
BRANCH   1  12
ATOM      5  C   UNL     1       4.709   4.387  -0.115  0.00  0.00    +0.008 C 
ATOM      6  C   UNL     1       3.892   3.125  -0.398  0.00  0.00    -0.009 C 
ATOM      7  C   UNL     1       4.445   1.960   0.428  0.00  0.00    +0.008 C 
ATOM      8  C   UNL     1       3.804   0.648  -0.030  0.00  0.00    +0.037 C 
ATOM      9  C   UNL     1       2.289   0.811  -0.015  0.00  0.00    -0.018 A 
ATOM     10  C   UNL     1       1.722   2.038  -0.003  0.00  0.00    -0.004 A 
ATOM     11  S   UNL     1      -0.021   1.728   0.011  0.00  0.00    -0.077 S 
ATOM     12  C   UNL     1       0.002  -0.004   0.002  0.00  0.00    +0.090 A 
ATOM     13  C   UNL     1       1.357  -0.302  -0.012  0.00  0.00    +0.084 A 
ATOM     14  C   UNL     1       2.426   3.359  -0.004  0.00  0.00    +0.046 C 
BRANCH  13  15
ATOM     15  C   UNL     1       1.818  -1.657  -0.024  0.00  0.00    +0.102 C 
ATOM     16  N   UNL     1       2.185  -2.733  -0.033  0.00  0.00    -0.191 NA
ENDBRANCH  13  15
ENDBRANCH   1  12
BRANCH   2  17
ATOM     17  C   UNL     1      -3.502  -1.355   0.029  0.00  0.00    +0.103 C 
BRANCH  17  18
ATOM     18  C   UNL     1      -4.808  -0.559   0.046  0.00  0.00    -0.020 C 
ATOM     19  C   UNL     1      -4.881   0.329  -1.198  0.00  0.00    +0.011 C 
ATOM     20  C   UNL     1      -6.188   1.124  -1.181  0.00  0.00    -0.010 C 
ATOM     21  C   UNL     1      -7.373   0.158  -1.174  0.00  0.00    +0.007 C 
ATOM     22  C   UNL     1      -7.301  -0.730   0.070  0.00  0.00    -0.010 C 
ATOM     23  C   UNL     1      -5.994  -1.526   0.053  0.00  0.00    +0.011 C 
ATOM     24  C   UNL     1      -7.349   0.145   1.324  0.00  0.00    +0.007 C 
ATOM     25  C   UNL     1      -6.163   1.112   1.317  0.00  0.00    -0.010 C 
ATOM     26  C   UNL     1      -6.236   1.999   0.073  0.00  0.00    +0.007 C 
ATOM     27  C   UNL     1      -4.856   0.316   1.300  0.00  0.00    +0.011 C 
ENDBRANCH  17  18
ENDBRANCH   2  17
TORSDOF 4
