REMARK  Name = ZINC67407088
REMARK  7 active torsions:
REMARK  status: ('A' for Active; 'I' for Inactive)
REMARK    1  A    between atoms: C_1  and  C_2
REMARK    2  A    between atoms: C_2  and  C_3
REMARK    3  A    between atoms: C_3  and  C_5
REMARK    4  A    between atoms: C_3  and  N_15
REMARK    5  A    between atoms: N_18  and  C_19
REMARK    6  A    between atoms: C_19  and  C_21
REMARK    7  A    between atoms: C_19  and  C_28
REMARK                            x       y       z     vdW  Elec       q    Type
REMARK                         _______ _______ _______ _____ _____    ______ ____
ROOT
ATOM      1  N   UNL     1       0.311  -0.117   2.473  0.00  0.00    -0.290 N 
ATOM      2  C   UNL     1       0.333   1.120   3.007  0.00  0.00    +0.301 C 
ATOM      3  O   UNL     1       0.983   2.000   2.476  0.00  0.00    -0.253 OA
ATOM      4  N   UNL     1      -0.365   1.381   4.130  0.00  0.00    -0.290 N 
ATOM      5  H   UNL     1      -0.207  -0.820   2.897  0.00  0.00    +0.151 HD
ATOM      6  H   UNL     1      -0.937   0.699   4.516  0.00  0.00    +0.151 HD
ENDROOT
BRANCH   1   7
ATOM      7  C   UNL     1       1.070  -0.402   1.252  0.00  0.00    +0.140 C 
BRANCH   7   8
ATOM      8  C   UNL     1       1.398  -1.872   1.196  0.00  0.00    +0.129 A 
ATOM      9  N   UNL     1       2.652  -2.393   1.258  0.00  0.00    -0.340 N 
ATOM     10  H   UNL     1       3.479  -1.893   1.345  0.00  0.00    +0.167 HD
ATOM     11  C   UNL     1       2.531  -3.766   1.174  0.00  0.00    +0.066 A 
ATOM     12  C   UNL     1       3.436  -4.819   1.182  0.00  0.00    +0.028 A 
ATOM     13  C   UNL     1       2.977  -6.114   1.078  0.00  0.00    +0.002 A 
ATOM     14  C   UNL     1       1.618  -6.372   0.965  0.00  0.00    +0.002 A 
ATOM     15  C   UNL     1       0.713  -5.349   0.956  0.00  0.00    +0.030 A 
ATOM     16  C   UNL     1       1.155  -4.028   1.060  0.00  0.00    +0.089 A 
ATOM     17  N   UNL     1       0.521  -2.827   1.086  0.00  0.00    -0.231 NA
ENDBRANCH   7   8
BRANCH   7  19
ATOM     18  C   UNL     1       0.005   1.494   0.022  0.00  0.00    +0.006 C 
ATOM     19  C   UNL     1       0.233  -0.019   0.030  0.00  0.00    +0.027 C 
ENDBRANCH   7  19
ENDBRANCH   1   7
BRANCH   4  20
ATOM     20  C   UNL     1      -0.260   2.696   4.768  0.00  0.00    +0.133 C 
BRANCH  20  21
ATOM     21  C   UNL     1      -1.267   3.634   4.155  0.00  0.00    -0.025 A 
ATOM     22  C   UNL     1      -2.537   3.180   3.850  0.00  0.00    +0.008 A 
ATOM     23  C   UNL     1      -3.462   4.040   3.288  0.00  0.00    +0.038 A 
ATOM     24  C   UNL     1      -3.116   5.356   3.031  0.00  0.00    +0.123 A 
ATOM     25  C   UNL     1      -1.844   5.809   3.337  0.00  0.00    +0.038 A 
ATOM     26  C   UNL     1      -0.923   4.949   3.904  0.00  0.00    +0.008 A 
ATOM     27  F   UNL     1      -4.019   6.197   2.481  0.00  0.00    -0.205 F 
ENDBRANCH  20  21
BRANCH  20  28
ATOM     28  C   UNL     1      -0.536   2.559   6.267  0.00  0.00    +0.143 C 
ATOM     29  C   UNL     1       0.458   1.557   6.893  0.00  0.00    +0.036 C 
ATOM     30  C   UNL     1      -0.439   0.790   7.902  0.00  0.00    +0.031 C 
ATOM     31  C   UNL     1      -1.790   0.775   7.143  0.00  0.00    +0.160 C 
ATOM     32  O   UNL     1      -1.858   2.045   6.472  0.00  0.00    -0.374 OA
ENDBRANCH  20  28
ENDBRANCH   4  20
TORSDOF 6
