REMARK  Name = ZINC04368307
REMARK  12 active torsions:
REMARK  status: ('A' for Active; 'I' for Inactive)
REMARK    1  A    between atoms: C_1  and  C_2
REMARK    2  A    between atoms: C_6  and  C_8
REMARK    3  A    between atoms: C_8  and  C_10
REMARK    4  A    between atoms: C_8  and  O_20
REMARK    5  A    between atoms: C_10  and  C_11
REMARK    6  A    between atoms: C_11  and  C_17
REMARK    7  A    between atoms: C_17  and  N_63
REMARK    8  A    between atoms: C_18  and  N_63
REMARK    9  A    between atoms: C_19  and  N_63
REMARK   10  A    between atoms: O_20  and  C_21
REMARK   11  A    between atoms: C_21  and  C_23
REMARK   12  A    between atoms: C_26  and  N_29
REMARK                            x       y       z     vdW  Elec       q    Type
REMARK                         _______ _______ _______ _____ _____    ______ ____
ROOT
ATOM      1  C   UNL     1       2.332   3.963   0.334  0.00  0.00    +0.207 C 
ENDROOT
BRANCH   1   7
ATOM      2  C   UNL     1      -2.511   3.895   1.593  0.00  0.00    +0.044 C 
ATOM      3  C   UNL     1      -1.315   3.223   0.970  0.00  0.00    -0.050 A 
ATOM      4  C   UNL     1      -1.440   1.959   0.424  0.00  0.00    +0.003 A 
ATOM      5  C   UNL     1      -0.342   1.340  -0.144  0.00  0.00    +0.001 A 
ATOM      6  C   UNL     1       0.879   1.990  -0.175  0.00  0.00    +0.007 A 
ATOM      7  C   UNL     1       1.002   3.255   0.367  0.00  0.00    -0.007 A 
ATOM      8  C   UNL     1      -0.096   3.872   0.940  0.00  0.00    +0.010 A 
ENDBRANCH   1   7
BRANCH   1   9
ATOM      9  C   UNL     1       3.219   3.435   1.463  0.00  0.00    +0.054 C 
BRANCH   9  10
ATOM     10  C   UNL     1       4.482   4.293   1.563  0.00  0.00    -0.040 C 
ATOM     11  C   UNL     1       5.301   3.854   2.779  0.00  0.00    +0.005 C 
ATOM     12  C   UNL     1       4.464   4.029   4.048  0.00  0.00    +0.000 C 
ATOM     13  C   UNL     1       4.070   5.500   4.201  0.00  0.00    +0.000 C 
ATOM     14  C   UNL     1       3.251   5.938   2.985  0.00  0.00    +0.000 C 
ATOM     15  C   UNL     1       4.088   5.763   1.717  0.00  0.00    +0.005 C 
BRANCH  10  16
ATOM     16  C   UNL     1       5.319   4.118   0.295  0.00  0.00    -0.073 C 
BRANCH  16  19
ATOM     17  C   UNL     1       7.691   4.079  -0.191  0.00  0.00    -0.097 C 
ATOM     18  C   UNL     1       6.514   6.191  -0.073  0.00  0.00    -0.097 C 
ATOM     19  N   UNL     1       6.604   4.824   0.480  0.00  0.00    +0.376 N 
ATOM     20  H   UNL     1       6.811   4.883   1.484  0.00  0.00    -0.083 HD
ENDBRANCH  16  19
ENDBRANCH  10  16
ENDBRANCH   9  10
ENDBRANCH   1   9
BRANCH   1  21
ATOM     21  O   UNL     1       2.978   3.720  -0.943  0.00  0.00    -0.453 OA
BRANCH  21  22
ATOM     22  C   UNL     1       2.719   4.593  -1.935  0.00  0.00    +0.340 C 
ATOM     23  O   UNL     1       1.974   5.533  -1.739  0.00  0.00    -0.245 OA
BRANCH  22  24
ATOM     24  C   UNL     1       3.341   4.409  -3.263  0.00  0.00    +0.059 A 
ATOM     25  C   UNL     1       4.202   3.334  -3.490  0.00  0.00    +0.017 A 
ATOM     26  C   UNL     1       4.775   3.165  -4.734  0.00  0.00    +0.033 A 
ATOM     27  C   UNL     1       4.508   4.064  -5.750  0.00  0.00    +0.126 A 
ATOM     28  C   UNL     1       3.660   5.135  -5.530  0.00  0.00    +0.033 A 
ATOM     29  C   UNL     1       3.075   5.313  -4.293  0.00  0.00    +0.017 A 
BRANCH  27  30
ATOM     30  N   UNL     1       5.130   3.879  -7.080  0.00  0.00    +0.056 N 
ATOM     31  O   UNL     1       4.896   4.668  -7.978  0.00  0.00    -0.126 OA
ATOM     32  O   UNL     1       5.877   2.937  -7.277  0.00  0.00    -0.126 OA
ENDBRANCH  27  30
ENDBRANCH  22  24
ENDBRANCH  21  22
ENDBRANCH   1  21
TORSDOF 9
