REMARK  Name = ZINC50866766
REMARK  8 active torsions:
REMARK  status: ('A' for Active; 'I' for Inactive)
REMARK    1  A    between atoms: C_1  and  C_2
REMARK    2  A    between atoms: C_5  and  C_7
REMARK    3  A    between atoms: C_10  and  C_12
REMARK    4  A    between atoms: C_14  and  C_19
REMARK    5  A    between atoms: C_16  and  N_18
REMARK    6  A    between atoms: C_19  and  C_20
REMARK    7  A    between atoms: C_19  and  C_21
REMARK    8  A    between atoms: C_19  and  C_22
REMARK                            x       y       z     vdW  Elec       q    Type
REMARK                         _______ _______ _______ _____ _____    ______ ____
ROOT
ATOM      1  C   UNL     1       1.181   2.660   4.855  0.00  0.00    +0.198 A 
ATOM      2  N   UNL     1       2.146   3.164   5.616  0.00  0.00    -0.229 NA
ATOM      3  C   UNL     1       1.881   4.086   6.528  0.00  0.00    +0.052 A 
ATOM      4  C   UNL     1       0.581   4.527   6.687  0.00  0.00    +0.067 A 
ATOM      5  C   UNL     1      -0.414   3.979   5.873  0.00  0.00    +0.120 A 
ATOM      6  N   UNL     1      -0.079   3.061   4.974  0.00  0.00    -0.210 NA
ENDROOT
BRANCH   1  10
ATOM      7  C   UNL     1       1.314   0.159   2.237  0.00  0.00    +0.109 A 
ATOM      8  C   UNL     1       2.618   0.181   2.578  0.00  0.00    +0.046 A 
ATOM      9  C   UNL     1       2.758   1.125   3.613  0.00  0.00    +0.053 A 
ATOM     10  C   UNL     1       1.519   1.634   3.850  0.00  0.00    +0.172 A 
ATOM     11  O   UNL     1       0.654   1.042   3.003  0.00  0.00    -0.456 OA
BRANCH   7  15
ATOM     12  C   UNL     1      -0.019   1.526   0.010  0.00  0.00    +0.008 C 
ATOM     13  C   UNL     1       0.002  -0.004   0.002  0.00  0.00    -0.003 C 
ATOM     14  C   UNL     1      -0.828  -0.728   1.065  0.00  0.00    +0.015 C 
ATOM     15  C   UNL     1       0.700  -0.708   1.168  0.00  0.00    +0.058 C 
ENDBRANCH   7  15
ENDBRANCH   1  10
BRANCH   3  16
ATOM     16  C   UNL     1       2.986   4.649   7.385  0.00  0.00    +0.005 C 
ATOM     17  C   UNL     1       2.889   4.060   8.793  0.00  0.00    +0.017 C 
ATOM     18  C   UNL     1       4.341   4.287   6.773  0.00  0.00    +0.017 C 
ATOM     19  C   UNL     1       2.849   6.171   7.457  0.00  0.00    +0.017 C 
ENDBRANCH   3  16
BRANCH   5  20
ATOM     20  N   UNL     1      -1.731   4.392   5.998  0.00  0.00    -0.343 N 
ATOM     21  H   UNL     1      -1.967   5.066   6.655  0.00  0.00    +0.144 HD
ATOM     22  H   UNL     1      -2.416   4.008   5.430  0.00  0.00    +0.144 HD
ENDBRANCH   5  20
TORSDOF 4
