REMARK  Name = ZINC04178891
REMARK  6 active torsions:
REMARK  status: ('A' for Active; 'I' for Inactive)
REMARK    1  A    between atoms: C_1  and  C_2
REMARK    2  A    between atoms: C_4  and  C_11
REMARK    3  A    between atoms: C_7  and  N_8
REMARK    4  A    between atoms: C_14  and  C_21
REMARK    5  A    between atoms: C_14  and  O_25
REMARK    6  A    between atoms: C_16  and  C_18
REMARK                            x       y       z     vdW  Elec       q    Type
REMARK                         _______ _______ _______ _____ _____    ______ ____
ROOT
ATOM      1  C   UNL     1       2.501   0.214   1.540  0.00  0.00    +0.269 C 
ATOM      2  O   UNL     1       2.091  -0.638   0.776  0.00  0.00    -0.268 OA
ATOM      3  N   UNL     1       2.223   1.513   1.314  0.00  0.00    -0.148 N 
ATOM      4  C   UNL     1       1.529   2.048   0.131  0.00  0.00    +0.257 C 
ATOM      5  C   UNL     1       1.488   3.566   0.402  0.00  0.00    +0.119 C 
ATOM      6  C   UNL     1       2.180   3.712   1.739  0.00  0.00    +0.045 C 
ATOM      7  N   UNL     1       2.544   2.572   2.161  0.00  0.00    -0.183 NA
ENDROOT
BRANCH   1  11
ATOM      8  C   UNL     1       4.881  -3.293   4.175  0.00  0.00    +0.046 C 
ATOM      9  C   UNL     1       4.452  -1.860   3.990  0.00  0.00    -0.020 A 
ATOM     10  C   UNL     1       3.697  -1.504   2.891  0.00  0.00    +0.018 A 
ATOM     11  C   UNL     1       3.305  -0.176   2.718  0.00  0.00    +0.039 A 
ATOM     12  C   UNL     1       3.672   0.783   3.664  0.00  0.00    +0.015 A 
ATOM     13  C   UNL     1       4.422   0.413   4.761  0.00  0.00    +0.034 A 
ATOM     14  C   UNL     1       4.812  -0.905   4.924  0.00  0.00    +0.129 A 
BRANCH  14  15
ATOM     15  N   UNL     1       5.617  -1.295   6.103  0.00  0.00    +0.057 N 
ATOM     16  O   UNL     1       5.874  -0.473   6.964  0.00  0.00    -0.126 OA
ATOM     17  O   UNL     1       6.024  -2.438   6.212  0.00  0.00    -0.126 OA
ENDBRANCH  14  15
ENDBRANCH   1  11
BRANCH   4  18
ATOM     18  C   UNL     1       2.321   1.745  -1.143  0.00  0.00    +0.438 C 
ATOM     19  F   UNL     1       1.684   2.336  -2.239  0.00  0.00    -0.166 F 
ATOM     20  F   UNL     1       3.615   2.261  -1.021  0.00  0.00    -0.166 F 
ATOM     21  F   UNL     1       2.387   0.361  -1.332  0.00  0.00    -0.166 F 
ENDBRANCH   4  18
BRANCH   6  22
ATOM     22  C   UNL     1       2.405   5.016   2.460  0.00  0.00    +0.035 C 
ATOM     23  C   UNL     1       3.852   5.463   2.677  0.00  0.00    +0.010 C 
ATOM     24  C   UNL     1       3.024   4.953   3.858  0.00  0.00    +0.010 C 
ENDBRANCH   6  22
BRANCH   4  25
ATOM     25  O   UNL     1       0.206   1.517   0.039  0.00  0.00    -0.363 OA
ATOM     26  H   UNL     1       0.174   0.555  -0.059  0.00  0.00    +0.212 HD
ENDBRANCH   4  25
TORSDOF 5
