REMARK  Name = ZINC09960044
REMARK  8 active torsions:
REMARK  status: ('A' for Active; 'I' for Inactive)
REMARK    1  A    between atoms: C_6  and  N_7
REMARK    2  A    between atoms: N_13  and  C_14
REMARK    3  A    between atoms: C_14  and  C_15
REMARK    4  A    between atoms: C_15  and  C_16
REMARK    5  A    between atoms: C_16  and  C_17
REMARK    6  A    between atoms: C_17  and  O_19
REMARK    7  A    between atoms: O_19  and  C_20
REMARK    8  A    between atoms: C_20  and  C_21
REMARK                            x       y       z     vdW  Elec       q    Type
REMARK                         _______ _______ _______ _____ _____    ______ ____
ROOT
ATOM      1  C   UNL     1       5.030   5.609   2.847  0.00  0.00    +0.307 C 
ATOM      2  O   UNL     1       4.786   4.861   3.764  0.00  0.00    -0.251 OA
ENDROOT
BRANCH   1   3
ATOM      3  C   UNL     1       4.854   5.141   1.425  0.00  0.00    +0.122 C 
BRANCH   3   4
ATOM      4  C   UNL     1       4.360   3.693   1.422  0.00  0.00    +0.033 C 
BRANCH   4   5
ATOM      5  C   UNL     1       4.181   3.218  -0.021  0.00  0.00    +0.129 C 
BRANCH   5  15
ATOM      6  C   UNL     1      -0.017   1.379   0.010  0.00  0.00    +0.035 A 
ATOM      7  C   UNL     1       1.168   2.090   0.002  0.00  0.00    +0.032 A 
ATOM      8  C   UNL     1       2.377   1.414  -0.013  0.00  0.00    +0.090 A 
ATOM      9  C   UNL     1       2.397   0.019  -0.021  0.00  0.00    +0.159 A 
ATOM     10  C   UNL     1       1.204  -0.685  -0.013  0.00  0.00    +0.081 A 
ATOM     11  C   UNL     1       0.002  -0.004   0.002  0.00  0.00    +0.130 A 
ATOM     12  O   UNL     1       3.697  -0.364  -0.036  0.00  0.00    -0.407 OA
ATOM     13  C   UNL     1       4.479   0.727  -0.038  0.00  0.00    +0.421 A 
ATOM     14  O   UNL     1       5.695   0.719  -0.050  0.00  0.00    -0.223 OA
ATOM     15  N   UNL     1       3.708   1.832  -0.024  0.00  0.00    -0.274 N 
BRANCH  11  16
ATOM     16  N   UNL     1      -1.272  -0.758   0.010  0.00  0.00    +0.057 N 
ATOM     17  O   UNL     1      -2.325  -0.165   0.023  0.00  0.00    -0.126 OA
ATOM     18  O   UNL     1      -1.259  -1.967   0.004  0.00  0.00    -0.126 OA
ENDBRANCH  11  16
ENDBRANCH   5  15
ENDBRANCH   4   5
ENDBRANCH   3   4
ENDBRANCH   1   3
BRANCH   1  19
ATOM     19  O   UNL     1       5.458   6.857   3.095  0.00  0.00    -0.458 OA
BRANCH  19  20
ATOM     20  C   UNL     1       5.603   7.233   4.466  0.00  0.00    +0.285 C 
BRANCH  20  21
ATOM     21  C   UNL     1       6.089   8.657   4.547  0.00  0.00    +0.061 A 
ATOM     22  C   UNL     1       6.319   9.387   3.400  0.00  0.00    +0.095 A 
ATOM     23  C   UNL     1       6.769  10.704   3.496  0.00  0.00    +0.259 A 
ATOM     24  O   UNL     1       6.974  11.355   2.484  0.00  0.00    -0.267 OA
ATOM     25  N   UNL     1       6.981  11.263   4.725  0.00  0.00    -0.260 N 
ATOM     26  C   UNL     1       7.426  12.558   4.956  0.00  0.00    +0.039 A 
ATOM     27  C   UNL     1       7.583  12.959   6.224  0.00  0.00    +0.013 A 
ATOM     28  S   UNL     1       7.114  11.538   7.178  0.00  0.00    -0.056 S 
ATOM     29  C   UNL     1       6.728  10.469   5.808  0.00  0.00    +0.159 A 
ATOM     30  N   UNL     1       6.300   9.234   5.728  0.00  0.00    -0.336 N 
ATOM     31  C   UNL     1       8.046  14.292   6.717  0.00  0.00    +0.044 C 
ATOM     32  C   UNL     1       8.674  15.052   5.539  0.00  0.00    +0.006 C 
ATOM     33  C   UNL     1       7.736  14.944   4.333  0.00  0.00    +0.006 C 
ATOM     34  C   UNL     1       7.732  13.511   3.803  0.00  0.00    +0.055 C 
ATOM     35  H   UNL     1       6.138   8.731   6.541  0.00  0.00    +0.168 HD
ENDBRANCH  20  21
ENDBRANCH  19  20
ENDBRANCH   1  19
TORSDOF 8
