REMARK  Name = ZINC27145590
REMARK  12 active torsions:
REMARK  status: ('A' for Active; 'I' for Inactive)
REMARK    1  A    between atoms: C_1  and  C_2
REMARK    2  A    between atoms: C_2  and  C_3
REMARK    3  A    between atoms: C_3  and  N_4
REMARK    4  A    between atoms: C_13  and  C_15
REMARK    5  A    between atoms: N_17  and  C_18
REMARK    6  A    between atoms: C_18  and  C_19
REMARK    7  A    between atoms: C_19  and  C_21
REMARK    8  A    between atoms: C_19  and  N_29
REMARK    9  A    between atoms: C_24  and  C_27
REMARK   10  A    between atoms: C_27  and  C_28
REMARK   11  A    between atoms: N_29  and  C_30
REMARK   12  A    between atoms: N_29  and  C_31
REMARK                            x       y       z     vdW  Elec       q    Type
REMARK                         _______ _______ _______ _____ _____    ______ ____
ROOT
ATOM      1  C   UNL     1       1.605  -3.552  -0.813  0.00  0.00    +0.265 C 
ATOM      2  O   UNL     1       2.525  -2.759  -0.747  0.00  0.00    -0.268 OA
ATOM      3  N   UNL     1       1.839  -4.870  -0.654  0.00  0.00    -0.311 N 
ATOM      4  H   UNL     1       1.007  -5.587  -0.714  0.00  0.00    +0.149 HD
ENDROOT
BRANCH   1  14
ATOM      5  N   UNL     1      -1.980  -3.584  -1.359  0.00  0.00    -0.228 N 
ATOM      6  C   UNL     1      -2.380  -2.308  -1.539  0.00  0.00    +0.275 A 
ATOM      7  O   UNL     1      -3.551  -2.046  -1.744  0.00  0.00    -0.266 OA
ATOM      8  C   UNL     1      -1.369  -1.243  -1.484  0.00  0.00    +0.050 A 
ATOM      9  C   UNL     1      -1.679   0.102  -1.658  0.00  0.00    +0.014 A 
ATOM     10  C   UNL     1      -0.672   1.041  -1.592  0.00  0.00    +0.001 A 
ATOM     11  C   UNL     1       0.641   0.658  -1.355  0.00  0.00    +0.001 A 
ATOM     12  C   UNL     1       0.969  -0.670  -1.180  0.00  0.00    +0.011 A 
ATOM     13  C   UNL     1      -0.032  -1.634  -1.243  0.00  0.00    +0.020 A 
ATOM     14  C   UNL     1       0.233  -3.071  -1.068  0.00  0.00    +0.154 A 
ATOM     15  N   UNL     1      -0.764  -3.919  -1.141  0.00  0.00    -0.163 NA
BRANCH   5  16
ATOM     16  C   UNL     1      -2.991  -4.643  -1.415  0.00  0.00    +0.147 C 
BRANCH  16  18
ATOM     17  C   UNL     1      -4.181  -6.249  -2.912  0.00  0.00    +0.005 C 
ATOM     18  C   UNL     1      -3.125  -5.144  -2.854  0.00  0.00    +0.020 C 
ENDBRANCH  16  18
ENDBRANCH   5  16
ENDBRANCH   1  14
BRANCH   3  19
ATOM     19  C   UNL     1       3.200  -5.347  -0.401  0.00  0.00    +0.094 C 
BRANCH  19  20
ATOM     20  C   UNL     1       3.171  -6.853  -0.131  0.00  0.00    -0.021 C 
BRANCH  20  21
ATOM     21  C   UNL     1       2.379  -7.123   1.122  0.00  0.00    -0.059 A 
ATOM     22  C   UNL     1       2.966  -6.953   2.361  0.00  0.00    +0.002 A 
ATOM     23  C   UNL     1       2.237  -7.196   3.511  0.00  0.00    +0.004 A 
ATOM     24  C   UNL     1       0.925  -7.620   3.420  0.00  0.00    -0.048 A 
ATOM     25  C   UNL     1       0.339  -7.796   2.180  0.00  0.00    +0.004 A 
ATOM     26  C   UNL     1       1.066  -7.547   1.031  0.00  0.00    +0.002 A 
BRANCH  24  27
ATOM     27  C   UNL     1       0.133  -7.891   4.673  0.00  0.00    +0.032 C 
ATOM     28  C   UNL     1       0.309  -9.355   5.081  0.00  0.00    +0.009 C 
ENDBRANCH  24  27
ENDBRANCH  20  21
BRANCH  20  29
ATOM     29  N   UNL     1       4.544  -7.346   0.042  0.00  0.00    +0.382 N 
ATOM     30  C   UNL     1       4.559  -8.800   0.252  0.00  0.00    -0.096 C 
ATOM     31  C   UNL     1       5.386  -6.971  -1.102  0.00  0.00    -0.096 C 
ATOM     32  H   UNL     1       4.963  -6.870   0.941  0.00  0.00    -0.082 HD
ENDBRANCH  20  29
ENDBRANCH  19  20
ENDBRANCH   3  19
TORSDOF 8
