REMARK  Name = ZINC20528172
REMARK  9 active torsions:
REMARK  status: ('A' for Active; 'I' for Inactive)
REMARK    1  A    between atoms: C_4  and  C_7
REMARK    2  A    between atoms: C_7  and  S_8
REMARK    3  A    between atoms: S_8  and  C_9
REMARK    4  A    between atoms: C_15  and  C_17
REMARK    5  A    between atoms: C_17  and  S_18
REMARK    6  A    between atoms: S_18  and  C_19
REMARK    7  A    between atoms: N_23  and  N_24
REMARK    8  A    between atoms: N_25  and  N_26
REMARK    9  A    between atoms: C_27  and  C_28
REMARK                            x       y       z     vdW  Elec       q    Type
REMARK                         _______ _______ _______ _____ _____    ______ ____
ROOT
ATOM      1  S   UNL     1      -5.522  10.753   0.111  0.00  0.00    -0.075 S 
ENDROOT
BRANCH   1   2
ATOM      2  C   UNL     1      -4.472   9.338   0.093  0.00  0.00    +0.210 A 
ATOM      3  N   UNL     1      -3.160   9.351   0.081  0.00  0.00    -0.119 NA
ATOM      4  N   UNL     1      -2.714   8.023   0.075  0.00  0.00    -0.109 NA
ATOM      5  C   UNL     1      -3.767   7.242   0.075  0.00  0.00    +0.254 A 
ATOM      6  N   UNL     1      -4.881   8.034   0.090  0.00  0.00    -0.211 N 
ATOM      7  N   UNL     1      -3.753   5.855   0.068  0.00  0.00    -0.204 N 
ATOM      8  H   UNL     1      -4.700   5.295   0.074  0.00  0.00    +0.177 HD
BRANCH   6   9
ATOM      9  N   UNL     1      -6.175   7.599   0.098  0.00  0.00    -0.294 N 
ATOM     10  H   UNL     1      -6.393   6.521   0.094  0.00  0.00    +0.163 HD
ATOM     11  H   UNL     1      -7.000   8.327   0.109  0.00  0.00    +0.163 HD
ENDBRANCH   6   9
BRANCH   7  12
ATOM     12  N   UNL     1      -2.532   5.167   0.053  0.00  0.00    -0.187 NA
ATOM     13  C   UNL     1      -2.519   3.868   0.046  0.00  0.00    +0.141 C 
BRANCH  13  14
ATOM     14  C   UNL     1      -1.236   3.144   0.031  0.00  0.00    +0.030 A 
ATOM     15  C   UNL     1      -1.217   1.747   0.017  0.00  0.00    +0.012 A 
ATOM     16  C   UNL     1      -0.013   1.076   0.008  0.00  0.00    +0.001 A 
ATOM     17  C   UNL     1       1.178   1.782   0.000  0.00  0.00    +0.003 A 
ATOM     18  C   UNL     1       1.170   3.165   0.008  0.00  0.00    +0.039 A 
ATOM     19  C   UNL     1      -0.029   3.852   0.023  0.00  0.00    +0.132 A 
ATOM     20  F   UNL     1      -0.036   5.203   0.030  0.00  0.00    -0.205 F 
ENDBRANCH  13  14
ENDBRANCH   7  12
ENDBRANCH   1   2
BRANCH   1  21
ATOM     21  C   UNL     1      -4.370  12.154   0.108  0.00  0.00    +0.173 C 
BRANCH  21  28
ATOM     22  C   UNL     1      -6.260  18.267   0.160  0.00  0.00    +0.160 A 
ATOM     23  N   UNL     1      -7.019  17.181   0.161  0.00  0.00    -0.133 NA
ATOM     24  N   UNL     1      -6.524  16.021   0.149  0.00  0.00    -0.125 NA
ATOM     25  C   UNL     1      -5.217  15.817   0.136  0.00  0.00    +0.189 A 
ATOM     26  S   UNL     1      -4.637  17.511   0.147  0.00  0.00    -0.024 S 
ATOM     27  N   UNL     1      -4.497  14.624   0.123  0.00  0.00    -0.263 N 
ATOM     28  C   UNL     1      -5.149  13.444   0.122  0.00  0.00    +0.229 C 
ATOM     29  O   UNL     1      -6.361  13.421   0.133  0.00  0.00    -0.275 OA
ATOM     30  H   UNL     1      -3.398  14.646   0.113  0.00  0.00    +0.157 HD
BRANCH  22  31
ATOM     31  S   UNL     1      -6.717  19.968   0.174  0.00  0.00    -0.092 S 
BRANCH  31  32
ATOM     32  C   UNL     1      -8.531  19.936   0.191  0.00  0.00    +0.111 C 
BRANCH  32  36
ATOM     33  C   UNL     1     -10.027  23.936   0.230  0.00  0.00    +0.000 A 
ATOM     34  C   UNL     1      -9.796  23.296  -0.973  0.00  0.00    +0.000 A 
ATOM     35  C   UNL     1      -9.312  22.002  -0.986  0.00  0.00    +0.004 A 
ATOM     36  C   UNL     1      -9.059  21.347   0.205  0.00  0.00    -0.037 A 
ATOM     37  C   UNL     1      -9.295  21.985   1.408  0.00  0.00    +0.004 A 
ATOM     38  C   UNL     1      -9.774  23.282   1.421  0.00  0.00    +0.000 A 
ENDBRANCH  32  36
ENDBRANCH  31  32
ENDBRANCH  22  31
ENDBRANCH  21  28
ENDBRANCH   1  21
TORSDOF 9
