REMARK  Name = ZINC04167676
REMARK  9 active torsions:
REMARK  status: ('A' for Active; 'I' for Inactive)
REMARK    1  A    between atoms: C_1  and  C_2
REMARK    2  A    between atoms: C_5  and  S_8
REMARK    3  A    between atoms: S_8  and  C_9
REMARK    4  A    between atoms: C_9  and  C_10
REMARK    5  A    between atoms: C_17  and  N_26
REMARK    6  A    between atoms: C_18  and  C_24
REMARK    7  A    between atoms: C_19  and  C_21
REMARK    8  A    between atoms: C_21  and  C_22
REMARK    9  A    between atoms: C_21  and  C_23
REMARK                            x       y       z     vdW  Elec       q    Type
REMARK                         _______ _______ _______ _____ _____    ______ ____
ROOT
ATOM      1  C   UNL     1       0.197  -6.399   1.540  0.00  0.00    +0.054 A 
ATOM      2  C   UNL     1      -0.874  -7.071   1.989  0.00  0.00    +0.046 A 
ATOM      3  C   UNL     1      -0.458  -8.375   2.341  0.00  0.00    +0.244 A 
ATOM      4  N   UNL     1       0.818  -8.467   2.105  0.00  0.00    -0.135 NA
ATOM      5  N   UNL     1       1.259  -7.236   1.594  0.00  0.00    -0.277 N 
ATOM      6  H   UNL     1       2.167  -7.022   1.328  0.00  0.00    +0.189 HD
ATOM      7  O   UNL     1      -1.325  -9.299   2.835  0.00  0.00    -0.422 OA
ATOM      8  C   UNL     1      -2.535  -8.863   3.236  0.00  0.00    +0.200 C 
ATOM      9  C   UNL     1      -3.043  -7.646   2.951  0.00  0.00    +0.094 C 
ATOM     10  C   UNL     1      -2.304  -6.617   2.133  0.00  0.00    +0.074 C 
ENDROOT
BRANCH  10  11
ATOM     11  C   UNL     1      -2.950  -6.496   0.752  0.00  0.00    -0.004 C 
ATOM     12  C   UNL     1      -3.049  -7.883   0.112  0.00  0.00    +0.008 C 
ATOM     13  C   UNL     1      -4.351  -5.899   0.894  0.00  0.00    +0.008 C 
ENDBRANCH  10  11
BRANCH   8  14
ATOM     14  N   UNL     1      -3.305  -9.716   3.987  0.00  0.00    -0.328 N 
ATOM     15  H   UNL     1      -2.972 -10.600   4.211  0.00  0.00    +0.145 HD
ATOM     16  H   UNL     1      -4.182  -9.436   4.293  0.00  0.00    +0.145 HD
ENDBRANCH   8  14
BRANCH   9  17
ATOM     17  C   UNL     1      -4.345  -7.315   3.449  0.00  0.00    +0.100 C 
ATOM     18  N   UNL     1      -5.377  -7.053   3.844  0.00  0.00    -0.191 NA
ENDBRANCH   9  17
BRANCH   1  19
ATOM     19  C   UNL     1       0.213  -4.971   1.058  0.00  0.00    +0.129 C 
BRANCH  19  20
ATOM     20  S   UNL     1       0.095  -4.943  -0.752  0.00  0.00    -0.119 S 
BRANCH  20  25
ATOM     21  C   UNL     1       0.198   0.932  -2.131  0.00  0.00    +0.044 C 
ATOM     22  C   UNL     1       0.173  -0.535  -1.786  0.00  0.00    -0.050 A 
ATOM     23  C   UNL     1       0.076  -1.478  -2.793  0.00  0.00    +0.004 A 
ATOM     24  C   UNL     1       0.052  -2.823  -2.482  0.00  0.00    +0.015 A 
ATOM     25  C   UNL     1       0.126  -3.228  -1.154  0.00  0.00    +0.008 A 
ATOM     26  C   UNL     1       0.223  -2.277  -0.145  0.00  0.00    +0.015 A 
ATOM     27  C   UNL     1       0.252  -0.934  -0.465  0.00  0.00    +0.004 A 
ENDBRANCH  20  25
ENDBRANCH  19  20
ENDBRANCH   1  19
TORSDOF 6
