REMARK  Name = ZINC28946061
REMARK  11 active torsions:
REMARK  status: ('A' for Active; 'I' for Inactive)
REMARK    1  A    between atoms: C_1  and  C_2
REMARK    2  A    between atoms: C_2  and  C_4
REMARK    3  A    between atoms: C_2  and  S_17
REMARK    4  A    between atoms: N_6  and  C_7
REMARK    5  A    between atoms: C_12  and  C_13
REMARK    6  A    between atoms: S_17  and  C_18
REMARK    7  A    between atoms: C_21  and  C_30
REMARK    8  A    between atoms: N_22  and  C_23
REMARK    9  A    between atoms: C_23  and  C_24
REMARK   10  A    between atoms: C_30  and  C_31
REMARK   11  A    between atoms: C_31  and  C_32
REMARK                            x       y       z     vdW  Elec       q    Type
REMARK                         _______ _______ _______ _____ _____    ______ ____
ROOT
ATOM      1  C   UNL     1      -2.019   1.729   2.988  0.00  0.00    +0.192 A 
ATOM      2  N   UNL     1      -1.238   2.782   2.924  0.00  0.00    -0.122 NA
ATOM      3  N   UNL     1      -0.446   2.677   1.917  0.00  0.00    -0.134 NA
ATOM      4  C   UNL     1      -0.678   1.565   1.279  0.00  0.00    +0.135 A 
ATOM      5  N   UNL     1      -1.686   0.919   1.940  0.00  0.00    -0.303 N 
ENDROOT
BRANCH   1   6
ATOM      6  S   UNL     1      -3.263   1.419   4.197  0.00  0.00    -0.074 S 
BRANCH   6   8
ATOM      7  C   UNL     1      -1.720   2.920   5.880  0.00  0.00    +0.029 C 
ATOM      8  C   UNL     1      -3.095   2.911   5.209  0.00  0.00    +0.137 C 
BRANCH   8   9
ATOM      9  C   UNL     1      -4.170   2.924   6.266  0.00  0.00    +0.230 C 
ATOM     10  O   UNL     1      -4.666   1.882   6.640  0.00  0.00    -0.274 OA
ATOM     11  N   UNL     1      -4.580   4.093   6.796  0.00  0.00    -0.284 N 
ATOM     12  H   UNL     1      -4.080   5.031   6.512  0.00  0.00    +0.155 HD
BRANCH  11  13
ATOM     13  C   UNL     1      -5.641   4.114   7.707  0.00  0.00    +0.045 A 
ATOM     14  C   UNL     1      -5.813   3.065   8.600  0.00  0.00    +0.024 A 
ATOM     15  C   UNL     1      -6.859   3.091   9.502  0.00  0.00    +0.002 A 
ATOM     16  C   UNL     1      -7.741   4.156   9.509  0.00  0.00    +0.001 A 
ATOM     17  C   UNL     1      -7.576   5.200   8.618  0.00  0.00    +0.014 A 
ATOM     18  C   UNL     1      -6.529   5.182   7.717  0.00  0.00    +0.076 A 
BRANCH  18  19
ATOM     19  C   UNL     1      -6.349   6.321   6.746  0.00  0.00    +0.419 C 
ATOM     20  F   UNL     1      -7.358   7.269   6.947  0.00  0.00    -0.166 F 
ATOM     21  F   UNL     1      -5.101   6.917   6.952  0.00  0.00    -0.166 F 
ATOM     22  F   UNL     1      -6.423   5.833   5.436  0.00  0.00    -0.166 F 
ENDBRANCH  18  19
ENDBRANCH  11  13
ENDBRANCH   8   9
ENDBRANCH   6   8
ENDBRANCH   1   6
BRANCH   5  23
ATOM     23  C   UNL     1      -2.284  -0.373   1.595  0.00  0.00    +0.157 C 
BRANCH  23  24
ATOM     24  C   UNL     1      -1.520  -1.494   2.303  0.00  0.00    +0.138 C 
ATOM     25  C   UNL     1      -2.066  -2.865   1.852  0.00  0.00    +0.035 C 
ATOM     26  C   UNL     1      -2.045  -3.679   3.176  0.00  0.00    +0.031 C 
ATOM     27  C   UNL     1      -2.373  -2.571   4.209  0.00  0.00    +0.160 C 
ATOM     28  O   UNL     1      -1.712  -1.394   3.719  0.00  0.00    -0.375 OA
ENDBRANCH  23  24
ENDBRANCH   5  23
BRANCH   4  29
ATOM     29  C   UNL     1       0.036   1.078   0.045  0.00  0.00    +0.085 C 
BRANCH  29  30
ATOM     30  C   UNL     1      -0.694   1.583  -1.200  0.00  0.00    +0.103 C 
BRANCH  30  31
ATOM     31  C   UNL     1       0.020   1.096  -2.435  0.00  0.00    +0.211 C 
ATOM     32  O   UNL     1       1.016   0.411  -2.328  0.00  0.00    -0.276 OA
ATOM     33  N   UNL     1      -0.447   1.421  -3.656  0.00  0.00    -0.329 N 
ATOM     34  H   UNL     1       0.074   1.065  -4.557  0.00  0.00    +0.145 HD
ATOM     35  H   UNL     1      -1.350   2.042  -3.753  0.00  0.00    +0.145 HD
ENDBRANCH  30  31
ENDBRANCH  29  30
ENDBRANCH   4  29
TORSDOF 10
