REMARK  Name = ZINC13064456
REMARK  9 active torsions:
REMARK  status: ('A' for Active; 'I' for Inactive)
REMARK    1  A    between atoms: C_1  and  C_2
REMARK    2  A    between atoms: C_2  and  C_3
REMARK    3  A    between atoms: C_3  and  C_5
REMARK    4  A    between atoms: C_3  and  N_72
REMARK    5  A    between atoms: N_9  and  C_10
REMARK    6  A    between atoms: C_10  and  C_11
REMARK    7  A    between atoms: C_18  and  C_19
REMARK    8  A    between atoms: C_18  and  N_72
REMARK    9  A    between atoms: C_35  and  N_72
REMARK                            x       y       z     vdW  Elec       q    Type
REMARK                         _______ _______ _______ _____ _____    ______ ____
ROOT
ATOM      1  N   UNL     1      -3.107   1.077  -1.070  0.00  0.00    +0.391 N 
ATOM      2  H   UNL     1      -2.981   1.955  -1.587  0.00  0.00    -0.080 HD
ENDROOT
BRANCH   1   3
ATOM      3  C   UNL     1      -1.918   0.223  -1.276  0.00  0.00    -0.067 C 
ATOM      4  C   UNL     1      -1.856  -0.875  -0.213  0.00  0.00    -0.015 C 
ATOM      5  C   UNL     1      -0.614  -1.738  -0.443  0.00  0.00    -0.002 C 
ATOM      6  C   UNL     1       0.639  -0.865  -0.347  0.00  0.00    -0.000 C 
ATOM      7  C   UNL     1       0.577   0.234  -1.411  0.00  0.00    -0.002 C 
ATOM      8  C   UNL     1      -0.665   1.097  -1.181  0.00  0.00    -0.015 C 
ENDBRANCH   1   3
BRANCH   1   9
ATOM      9  C   UNL     1      -4.315   0.391  -1.575  0.00  0.00    +0.003 C 
BRANCH   9  10
ATOM     10  C   UNL     1      -4.633  -0.813  -0.726  0.00  0.00    +0.138 A 
ATOM     11  N   UNL     1      -4.316  -0.987   0.534  0.00  0.00    -0.115 NA
ATOM     12  N   UNL     1      -4.763  -2.139   0.901  0.00  0.00    -0.023 NA
ATOM     13  N   UNL     1      -5.356  -2.704  -0.092  0.00  0.00    -0.044 NA
ATOM     14  N   UNL     1      -5.301  -1.915  -1.112  0.00  0.00    -0.226 N 
BRANCH  14  15
ATOM     15  C   UNL     1      -5.859  -2.173  -2.442  0.00  0.00    +0.182 C 
BRANCH  15  16
ATOM     16  C   UNL     1      -4.827  -2.865  -3.294  0.00  0.00    -0.026 A 
ATOM     17  C   UNL     1      -3.954  -2.118  -4.065  0.00  0.00    +0.008 A 
ATOM     18  C   UNL     1      -3.004  -2.751  -4.843  0.00  0.00    +0.038 A 
ATOM     19  C   UNL     1      -2.933  -4.134  -4.859  0.00  0.00    +0.123 A 
ATOM     20  C   UNL     1      -3.810  -4.881  -4.092  0.00  0.00    +0.038 A 
ATOM     21  C   UNL     1      -4.756  -4.245  -3.310  0.00  0.00    +0.008 A 
ATOM     22  F   UNL     1      -2.007  -4.754  -5.624  0.00  0.00    -0.205 F 
ENDBRANCH  15  16
ENDBRANCH  14  15
ENDBRANCH   9  10
BRANCH   9  24
ATOM     23  C   UNL     1      -5.199   2.556  -2.453  0.00  0.00    +0.002 C 
ATOM     24  C   UNL     1      -5.491   1.368  -1.534  0.00  0.00    -0.011 C 
ENDBRANCH   9  24
ENDBRANCH   1   9
BRANCH   1  25
ATOM     25  C   UNL     1      -3.264   1.385   0.367  0.00  0.00    -0.036 C 
BRANCH  25  26
ATOM     26  C   UNL     1      -3.853   2.766   0.499  0.00  0.00    +0.001 A 
ATOM     27  C   UNL     1      -4.981   2.953   1.231  0.00  0.00    +0.017 A 
ATOM     28  C   UNL     1      -5.530   4.304   1.337  0.00  0.00    +0.002 A 
ATOM     29  C   UNL     1      -6.694   4.555   2.073  0.00  0.00    +0.059 A 
ATOM     30  C   UNL     1      -7.188   5.840   2.156  0.00  0.00    +0.163 A 
ATOM     31  C   UNL     1      -6.531   6.890   1.508  0.00  0.00    +0.164 A 
ATOM     32  C   UNL     1      -5.381   6.650   0.776  0.00  0.00    +0.075 A 
ATOM     33  C   UNL     1      -4.870   5.362   0.683  0.00  0.00    +0.053 A 
ATOM     34  N   UNL     1      -3.724   5.105  -0.043  0.00  0.00    -0.322 N 
ATOM     35  H   UNL     1      -3.271   5.834  -0.493  0.00  0.00    +0.169 HD
ATOM     36  C   UNL     1      -3.227   3.859  -0.132  0.00  0.00    +0.251 A 
ATOM     37  O   UNL     1      -2.213   3.669  -0.781  0.00  0.00    -0.268 OA
ATOM     38  O   UNL     1      -7.010   8.161   1.588  0.00  0.00    -0.485 OA
ATOM     39  C   UNL     1      -8.367   8.312   2.014  0.00  0.00    +0.270 C 
ATOM     40  C   UNL     1      -8.586   7.425   3.247  0.00  0.00    +0.270 C 
ATOM     41  O   UNL     1      -8.323   6.068   2.874  0.00  0.00    -0.485 OA
ENDBRANCH  25  26
ENDBRANCH   1  25
TORSDOF 8
