REMARK  Name = ZINC41549795
REMARK  3 active torsions:
REMARK  status: ('A' for Active; 'I' for Inactive)
REMARK    1  A    between atoms: C_1  and  C_2
REMARK    2  A    between atoms: C_2  and  C_14
REMARK    3  A    between atoms: N_16  and  C_17
REMARK                            x       y       z     vdW  Elec       q    Type
REMARK                         _______ _______ _______ _____ _____    ______ ____
ROOT
ATOM      1  C   UNL     1      -0.023   1.511   0.028  0.00  0.00    +0.076 C 
ATOM      2  C   UNL     1       0.001  -0.019   0.008  0.00  0.00    +0.258 C 
ATOM      3  C   UNL     1      -1.412  -0.543   0.010  0.00  0.00    +0.270 C 
ATOM      4  O   UNL     1      -2.312   0.127  -0.452  0.00  0.00    -0.271 OA
ATOM      5  N   UNL     1      -1.673  -1.762   0.527  0.00  0.00    -0.279 N 
ATOM      6  C   UNL     1      -0.646  -2.467   1.169  0.00  0.00    +0.077 A 
ATOM      7  C   UNL     1      -0.811  -3.800   1.507  0.00  0.00    +0.047 A 
ATOM      8  C   UNL     1       0.218  -4.486   2.128  0.00  0.00    +0.043 A 
ATOM      9  C   UNL     1       1.411  -3.843   2.411  0.00  0.00    +0.024 A 
ATOM     10  C   UNL     1       1.579  -2.511   2.079  0.00  0.00    +0.049 A 
ATOM     11  C   UNL     1       0.551  -1.817   1.464  0.00  0.00    +0.144 A 
ATOM     12  O   UNL     1       0.694  -0.499   1.162  0.00  0.00    -0.465 OA
ATOM     13 CL   UNL     1       0.012  -6.156   2.555  0.00  0.00    -0.083 Cl
ATOM     14  H   UNL     1      -2.562  -2.145   0.457  0.00  0.00    +0.155 HD
ENDROOT
BRANCH   2  15
ATOM     15  C   UNL     1       0.709  -0.492  -1.236  0.00  0.00    +0.270 C 
ATOM     16  O   UNL     1       0.070  -0.778  -2.226  0.00  0.00    -0.271 OA
ATOM     17  N   UNL     1       2.053  -0.599  -1.247  0.00  0.00    -0.281 N 
ATOM     18  H   UNL     1       2.570  -0.296  -0.484  0.00  0.00    +0.155 HD
BRANCH  17  19
ATOM     19  C   UNL     1       2.702  -1.148  -2.359  0.00  0.00    +0.052 A 
ATOM     20  C   UNL     1       2.026  -2.027  -3.196  0.00  0.00    +0.025 A 
ATOM     21  C   UNL     1       2.669  -2.566  -4.292  0.00  0.00    +0.002 A 
ATOM     22  C   UNL     1       3.985  -2.233  -4.558  0.00  0.00    +0.002 A 
ATOM     23  C   UNL     1       4.661  -1.358  -3.728  0.00  0.00    +0.022 A 
ATOM     24  C   UNL     1       4.022  -0.810  -2.632  0.00  0.00    +0.062 A 
ATOM     25 CL   UNL     1       4.869   0.294  -1.594  0.00  0.00    -0.082 Cl
ENDBRANCH  17  19
ENDBRANCH   2  15
TORSDOF 2
