REMARK  Name = ZINC01873475
REMARK  13 active torsions:
REMARK  status: ('A' for Active; 'I' for Inactive)
REMARK    1  A    between atoms: C_1  and  C_2
REMARK    2  A    between atoms: C_2  and  O_3
REMARK    3  A    between atoms: O_3  and  C_4
REMARK    4  A    between atoms: C_4  and  C_6
REMARK    5  A    between atoms: C_7  and  C_39
REMARK    6  A    between atoms: C_8  and  C_34
REMARK    7  A    between atoms: C_10  and  N_11
REMARK    8  A    between atoms: C_12  and  C_14
REMARK    9  A    between atoms: C_19  and  C_30
REMARK   10  A    between atoms: C_22  and  C_25
REMARK   11  A    between atoms: C_34  and  O_36
REMARK   12  A    between atoms: O_36  and  C_37
REMARK   13  A    between atoms: C_37  and  C_38
REMARK                            x       y       z     vdW  Elec       q    Type
REMARK                         _______ _______ _______ _____ _____    ______ ____
ROOT
ATOM      1  N   UNL     1      -0.011   0.966   0.007  0.00  0.00    -0.274 N 
ATOM      2  C   UNL     1      -1.187   1.624   0.017  0.00  0.00    +0.269 C 
ATOM      3  O   UNL     1      -1.204   2.839   0.023  0.00  0.00    -0.268 OA
ATOM      4  H   UNL     1       0.002  -0.004   0.002  0.00  0.00    +0.156 HD
ENDROOT
BRANCH   2   5
ATOM      5  C   UNL     1      -2.456   0.868   0.018  0.00  0.00    +0.149 A 
ATOM      6  C   UNL     1      -3.754   1.427   0.033  0.00  0.00    +0.078 A 
ATOM      7  C   UNL     1      -4.636   0.408   0.027  0.00  0.00    +0.119 A 
ATOM      8  N   UNL     1      -3.933  -0.763   0.016  0.00  0.00    -0.238 N 
ATOM      9  N   UNL     1      -2.575  -0.448   0.012  0.00  0.00    -0.164 NA
ATOM     10  C   UNL     1      -4.560  -2.088   0.008  0.00  0.00    +0.215 C 
ATOM     11  C   UNL     1      -6.011  -1.947  -0.466  0.00  0.00    +0.063 C 
ATOM     12  C   UNL     1      -6.712  -0.836   0.323  0.00  0.00    +0.111 C 
ATOM     13  N   UNL     1      -6.033   0.443   0.037  0.00  0.00    -0.322 N 
ATOM     14  H   UNL     1      -6.528   1.260  -0.134  0.00  0.00    +0.148 HD
BRANCH  12  15
ATOM     15  C   UNL     1      -6.630  -1.133   1.798  0.00  0.00    +0.010 A 
ATOM     16  C   UNL     1      -7.575  -1.656   2.617  0.00  0.00    +0.013 A 
ATOM     17  C   UNL     1      -7.275  -1.845   3.953  0.00  0.00    +0.008 A 
ATOM     18  C   UNL     1      -6.044  -1.501   4.405  0.00  0.00    +0.045 A 
ATOM     19  S   UNL     1      -5.261  -0.896   2.918  0.00  0.00    -0.100 S 
ENDBRANCH  12  15
BRANCH  10  20
ATOM     20  C   UNL     1      -3.797  -3.010  -0.945  0.00  0.00    +0.412 C 
ATOM     21  F   UNL     1      -2.470  -3.127  -0.518  0.00  0.00    -0.168 F 
ATOM     22  F   UNL     1      -4.397  -4.274  -0.950  0.00  0.00    -0.168 F 
ATOM     23  F   UNL     1      -3.826  -2.474  -2.236  0.00  0.00    -0.168 F 
ENDBRANCH  10  20
ENDBRANCH   2   5
BRANCH   1  28
ATOM     24  C   UNL     1       2.484   1.178  -0.015  0.00  0.00    +0.091 A 
ATOM     25  C   UNL     1       3.520   2.098  -0.021  0.00  0.00    -0.014 A 
ATOM     26  C   UNL     1       3.191   3.427  -0.011  0.00  0.00    +0.102 A 
ATOM     27  S   UNL     1       1.408   3.389  -0.001  0.00  0.00    -0.066 S 
ATOM     28  C   UNL     1       1.174   1.672  -0.000  0.00  0.00    +0.087 A 
ATOM     29  C   UNL     1       4.960   1.651  -0.037  0.00  0.00    +0.046 C 
BRANCH  24  30
ATOM     30  C   UNL     1       2.750  -0.265  -0.025  0.00  0.00    +0.342 C 
ATOM     31  O   UNL     1       2.850  -0.858  -1.083  0.00  0.00    -0.245 OA
BRANCH  30  32
ATOM     32  O   UNL     1       2.884  -0.934   1.138  0.00  0.00    -0.461 OA
BRANCH  32  34
ATOM     33  C   UNL     1       3.267  -2.942   2.462  0.00  0.00    +0.048 C 
ATOM     34  C   UNL     1       3.147  -2.360   1.052  0.00  0.00    +0.229 C 
ENDBRANCH  32  34
ENDBRANCH  30  32
ENDBRANCH  24  30
BRANCH  26  35
ATOM     35  C   UNL     1       4.080   4.588  -0.014  0.00  0.00    +0.346 C 
ATOM     36  O   UNL     1       5.286   4.431  -0.026  0.00  0.00    -0.244 OA
BRANCH  35  37
ATOM     37  O   UNL     1       3.562   5.834  -0.003  0.00  0.00    -0.461 OA
BRANCH  37  38
ATOM     38  C   UNL     1       4.488   6.922  -0.007  0.00  0.00    +0.229 C 
ATOM     39  C   UNL     1       3.721   8.245   0.007  0.00  0.00    +0.048 C 
ENDBRANCH  37  38
ENDBRANCH  35  37
ENDBRANCH  26  35
ENDBRANCH   1  28
TORSDOF 10
