REMARK  Name = ZINC63225330
REMARK  8 active torsions:
REMARK  status: ('A' for Active; 'I' for Inactive)
REMARK    1  A    between atoms: C_1  and  C_2
REMARK    2  A    between atoms: C_7  and  C_8
REMARK    3  A    between atoms: C_11  and  C_34
REMARK    4  A    between atoms: C_13  and  C_28
REMARK    5  A    between atoms: C_14  and  C_15
REMARK    6  A    between atoms: N_16  and  C_17
REMARK    7  A    between atoms: C_17  and  C_18
REMARK    8  A    between atoms: C_18  and  C_19
REMARK                            x       y       z     vdW  Elec       q    Type
REMARK                         _______ _______ _______ _____ _____    ______ ____
ROOT
ATOM      1  C   UNL     1       0.402  -0.756   2.207  0.00  0.00    +0.080 C 
ATOM      2  C   UNL     1       1.552  -0.244   3.028  0.00  0.00    +0.033 C 
ATOM      3  C   UNL     1       1.615  -0.456   4.335  0.00  0.00    +0.133 C 
ATOM      4  O   UNL     1       0.654  -1.139   4.997  0.00  0.00    -0.455 OA
ATOM      5  C   UNL     1      -0.560  -1.299   4.434  0.00  0.00    +0.141 C 
ATOM      6  C   UNL     1      -0.745  -1.130   3.106  0.00  0.00    +0.024 C 
ENDROOT
BRANCH   1  13
ATOM      7  C   UNL     1       0.471  -0.676  -0.681  0.00  0.00    +0.044 C 
ATOM      8  C   UNL     1       0.876  -1.931   0.048  0.00  0.00    -0.046 A 
ATOM      9  C   UNL     1       1.287  -3.042  -0.665  0.00  0.00    +0.003 A 
ATOM     10  C   UNL     1       1.659  -4.193   0.003  0.00  0.00    +0.000 A 
ATOM     11  C   UNL     1       1.621  -4.234   1.385  0.00  0.00    +0.000 A 
ATOM     12  C   UNL     1       1.212  -3.123   2.098  0.00  0.00    +0.005 A 
ATOM     13  C   UNL     1       0.843  -1.970   1.429  0.00  0.00    -0.033 A 
ENDBRANCH   1  13
BRANCH   5  14
ATOM     14  C   UNL     1      -1.709  -1.666   5.285  0.00  0.00    +0.018 A 
ATOM     15  C   UNL     1      -1.735  -2.904   5.933  0.00  0.00    +0.011 A 
ATOM     16  C   UNL     1      -2.812  -3.240   6.727  0.00  0.00    +0.001 A 
ATOM     17  C   UNL     1      -3.864  -2.355   6.882  0.00  0.00    +0.000 A 
ATOM     18  C   UNL     1      -3.845  -1.128   6.243  0.00  0.00    +0.001 A 
ATOM     19  C   UNL     1      -2.773  -0.776   5.451  0.00  0.00    +0.011 A 
ENDBRANCH   5  14
BRANCH   3  20
ATOM     20  C   UNL     1       2.773   0.070   5.093  0.00  0.00    +0.017 A 
ATOM     21  C   UNL     1       3.775   0.782   4.434  0.00  0.00    +0.011 A 
ATOM     22  C   UNL     1       4.852   1.271   5.146  0.00  0.00    +0.001 A 
ATOM     23  C   UNL     1       4.939   1.055   6.510  0.00  0.00    +0.000 A 
ATOM     24  C   UNL     1       3.948   0.348   7.168  0.00  0.00    +0.001 A 
ATOM     25  C   UNL     1       2.863  -0.139   6.469  0.00  0.00    +0.011 A 
ENDBRANCH   3  20
BRANCH   6  26
ATOM     26  C   UNL     1      -2.034  -1.307   2.556  0.00  0.00    +0.113 C 
ATOM     27  N   UNL     1      -3.006  -1.740   3.305  0.00  0.00    -0.291 NA
BRANCH  27  28
ATOM     28  C   UNL     1      -4.312  -2.036   2.710  0.00  0.00    +0.146 C 
BRANCH  28  29
ATOM     29  C   UNL     1      -4.595  -3.535   2.820  0.00  0.00    +0.056 C 
BRANCH  29  30
ATOM     30  C   UNL     1      -5.880  -3.858   2.102  0.00  0.00    -0.040 C 
ATOM     31  C   UNL     1      -6.013  -4.298   0.830  0.00  0.00    -0.001 A 
ATOM     32  C   UNL     1      -5.038  -4.596  -0.226  0.00  0.00    +0.010 A 
ATOM     33  C   UNL     1      -5.483  -5.031  -1.427  0.00  0.00    +0.001 A 
ATOM     34  C   UNL     1      -6.849  -5.203  -1.688  0.00  0.00    +0.002 A 
ATOM     35  C   UNL     1      -7.805  -4.950  -0.769  0.00  0.00    +0.026 A 
ATOM     36  C   UNL     1      -7.450  -4.489   0.529  0.00  0.00    +0.043 A 
ATOM     37  N   UNL     1      -8.178  -4.178   1.574  0.00  0.00    -0.380 N 
ATOM     38  C   UNL     1      -7.283  -3.761   2.660  0.00  0.00    +0.144 C 
ATOM     39  H   UNL     1      -9.145  -4.221   1.623  0.00  0.00    +0.160 HD
ENDBRANCH  29  30
ENDBRANCH  28  29
ENDBRANCH  27  28
ENDBRANCH   6  26
TORSDOF 7
