REMARK  Name = ZINC36204967
REMARK  16 active torsions:
REMARK  status: ('A' for Active; 'I' for Inactive)
REMARK    1  A    between atoms: C_1  and  C_2
REMARK    2  A    between atoms: C_2  and  C_3
REMARK    3  A    between atoms: C_3  and  C_4
REMARK    4  A    between atoms: C_4  and  O_6
REMARK    5  A    between atoms: O_6  and  C_7
REMARK    6  A    between atoms: C_7  and  C_8
REMARK    7  A    between atoms: C_8  and  C_10
REMARK    8  A    between atoms: C_8  and  O_34
REMARK    9  A    between atoms: C_10  and  N_11
REMARK   10  A    between atoms: N_11  and  C_12
REMARK   11  A    between atoms: N_11  and  C_16
REMARK   12  A    between atoms: C_12  and  C_13
REMARK   13  A    between atoms: C_13  and  O_14
REMARK   14  A    between atoms: O_14  and  C_15
REMARK   15  A    between atoms: C_16  and  C_17
REMARK   16  A    between atoms: C_29  and  C_33
REMARK                            x       y       z     vdW  Elec       q    Type
REMARK                         _______ _______ _______ _____ _____    ______ ____
ROOT
ATOM      1  N   UNL     1      -5.053  -6.656   0.234  0.00  0.00    +0.388 N 
ATOM      2  H   UNL     1      -5.371  -5.976   0.908  0.00  0.00    -0.081 HD
ENDROOT
BRANCH   1   3
ATOM      3  C   UNL     1      -3.669  -6.353  -0.152  0.00  0.00    -0.043 C 
BRANCH   3   4
ATOM      4  C   UNL     1      -3.571  -4.892  -0.596  0.00  0.00    +0.136 C 
BRANCH   4   5
ATOM      5  O   UNL     1      -4.281  -4.719  -1.824  0.00  0.00    -0.390 OA
ATOM      6  H   UNL     1      -3.946  -5.262  -2.551  0.00  0.00    +0.210 HD
ENDBRANCH   4   5
BRANCH   4   7
ATOM      7  C   UNL     1      -2.102  -4.518  -0.799  0.00  0.00    +0.261 C 
BRANCH   7   8
ATOM      8  O   UNL     1      -2.002  -3.125  -1.100  0.00  0.00    -0.462 OA
BRANCH   8   9
ATOM      9  C   UNL     1      -0.771  -2.632  -1.307  0.00  0.00    +0.307 C 
ATOM     10  O   UNL     1       0.191  -3.360  -1.236  0.00  0.00    -0.251 OA
BRANCH   9  11
ATOM     11  C   UNL     1      -0.588  -1.172  -1.629  0.00  0.00    +0.120 C 
BRANCH  11  13
ATOM     12  C   UNL     1       1.087   0.609  -2.145  0.00  0.00    +0.004 C 
ATOM     13  C   UNL     1       0.901  -0.874  -1.818  0.00  0.00    +0.008 C 
ENDBRANCH  11  13
ENDBRANCH   9  11
ENDBRANCH   8   9
ENDBRANCH   7   8
ENDBRANCH   4   7
ENDBRANCH   3   4
ENDBRANCH   1   3
BRANCH   1  14
ATOM     14  C   UNL     1      -5.915  -6.607  -0.955  0.00  0.00    -0.050 C 
BRANCH  14  15
ATOM     15  C   UNL     1      -7.368  -6.854  -0.542  0.00  0.00    +0.141 C 
BRANCH  15  16
ATOM     16  O   UNL     1      -7.814  -5.784   0.294  0.00  0.00    -0.385 OA
ATOM     17  C   UNL     1      -9.126  -5.972   0.828  0.00  0.00    +0.193 C 
ENDBRANCH  15  16
ENDBRANCH  14  15
ENDBRANCH   1  14
BRANCH   1  18
ATOM     18  C   UNL     1      -5.114  -7.999   0.827  0.00  0.00    -0.003 C 
BRANCH  18  19
ATOM     19  C   UNL     1      -4.358  -8.007   2.131  0.00  0.00    +0.094 A 
ATOM     20  N   UNL     1      -4.176  -9.180   2.790  0.00  0.00    -0.312 N 
ATOM     21  H   UNL     1      -4.535  -9.998   2.411  0.00  0.00    +0.170 HD
ATOM     22  C   UNL     1      -3.507  -9.232   3.957  0.00  0.00    +0.260 A 
ATOM     23  O   UNL     1      -3.352 -10.293   4.535  0.00  0.00    -0.267 OA
ATOM     24  C   UNL     1      -2.981  -8.018   4.508  0.00  0.00    +0.075 A 
ATOM     25  C   UNL     1      -2.230  -7.834   5.749  0.00  0.00    -0.023 A 
ATOM     26  C   UNL     1      -1.841  -6.577   6.049  0.00  0.00    -0.004 A 
ATOM     27  S   UNL     1      -2.444  -5.579   4.714  0.00  0.00    -0.073 S 
ATOM     28  C   UNL     1      -3.219  -6.856   3.756  0.00  0.00    +0.116 A 
ATOM     29  N   UNL     1      -3.886  -6.885   2.605  0.00  0.00    -0.229 NA
ATOM     30  C   UNL     1      -1.069  -6.128   7.252  0.00  0.00    +0.046 C 
ATOM     31  C   UNL     1      -1.098  -7.255   8.294  0.00  0.00    -0.009 C 
ATOM     32  C   UNL     1      -0.747  -8.575   7.600  0.00  0.00    +0.008 C 
ATOM     33  C   UNL     1      -1.891  -8.997   6.678  0.00  0.00    +0.037 C 
ATOM     34  C   UNL     1      -0.077  -6.963   9.395  0.00  0.00    +0.008 C 
ENDBRANCH  18  19
ENDBRANCH   1  18
TORSDOF 13
