REMARK  Name = ZINC65946851
REMARK  3 active torsions:
REMARK  status: ('A' for Active; 'I' for Inactive)
REMARK    1  A    between atoms: C_3  and  N_13
REMARK    2  A    between atoms: C_4  and  N_10
REMARK    3  A    between atoms: C_6  and  C_7
REMARK                            x       y       z     vdW  Elec       q    Type
REMARK                         _______ _______ _______ _____ _____    ______ ____
ROOT
ATOM      1  C   UNL     1      -0.017   1.393   0.010  0.00  0.00    +0.015 A 
ATOM      2  C   UNL     1       1.166   2.096   0.002  0.00  0.00    +0.026 A 
ATOM      3  C   UNL     1       2.381   1.417  -0.013  0.00  0.00    +0.061 A 
ATOM      4  C   UNL     1       2.403   0.025  -0.022  0.00  0.00    +0.148 A 
ATOM      5  C   UNL     1       1.224  -0.684  -0.014  0.00  0.00    +0.047 A 
ATOM      6  C   UNL     1       0.002  -0.004   0.002  0.00  0.00    +0.039 A 
ENDROOT
BRANCH   3   7
ATOM      7  N   UNL     1       3.575   2.130  -0.022  0.00  0.00    -0.325 N 
ATOM      8  C   UNL     1       4.146   2.492  -1.288  0.00  0.00    +0.109 C 
ATOM      9  C   UNL     1       4.855   3.811  -1.255  0.00  0.00    +0.007 C 
ATOM     10  C   UNL     1       4.056   4.895  -0.550  0.00  0.00    +0.008 C 
ATOM     11  C   UNL     1       4.276   4.956   0.949  0.00  0.00    -0.009 C 
ATOM     12  C   UNL     1       5.770   4.974   1.284  0.00  0.00    +0.007 C 
ATOM     13  C   UNL     1       6.378   3.692   0.711  0.00  0.00    -0.009 C 
ATOM     14  C   UNL     1       6.291   3.759  -0.814  0.00  0.00    +0.008 C 
ATOM     15  C   UNL     1       5.688   2.459   1.247  0.00  0.00    +0.026 C 
ATOM     16  C   UNL     1       4.181   2.477   1.252  0.00  0.00    +0.074 C 
ATOM     17  C   UNL     1       3.616   3.816   1.710  0.00  0.00    +0.026 C 
ENDBRANCH   3   7
BRANCH   6  18
ATOM     18  C   UNL     1      -1.264  -0.760   0.011  0.00  0.00    +0.242 C 
ATOM     19  O   UNL     1      -1.246  -1.976   0.004  0.00  0.00    -0.270 OA
ATOM     20  N   UNL     1      -2.441  -0.104   0.026  0.00  0.00    -0.325 N 
ATOM     21  H   UNL     1      -2.456   0.866   0.031  0.00  0.00    +0.145 HD
ATOM     22  H   UNL     1      -3.274  -0.601   0.031  0.00  0.00    +0.145 HD
ENDBRANCH   6  18
BRANCH   4  23
ATOM     23  N   UNL     1       3.697  -0.694  -0.039  0.00  0.00    +0.058 N 
ATOM     24  O   UNL     1       3.717  -1.903  -0.046  0.00  0.00    -0.126 OA
ATOM     25  O   UNL     1       4.734  -0.072  -0.046  0.00  0.00    -0.126 OA
ENDBRANCH   4  23
TORSDOF 3
