REMARK  Name = ZINC11782370
REMARK  12 active torsions:
REMARK  status: ('A' for Active; 'I' for Inactive)
REMARK    1  A    between atoms: C_1  and  C_2
REMARK    2  A    between atoms: C_3  and  C_38
REMARK    3  A    between atoms: C_11  and  C_12
REMARK    4  A    between atoms: C_18  and  C_21
REMARK    5  A    between atoms: C_21  and  O_22
REMARK    6  A    between atoms: O_22  and  C_23
REMARK    7  A    between atoms: C_27  and  C_29
REMARK    8  A    between atoms: C_29  and  N_74
REMARK    9  A    between atoms: C_30  and  N_74
REMARK   10  A    between atoms: C_31  and  C_32
REMARK   11  A    between atoms: C_31  and  N_74
REMARK   12  A    between atoms: N_35  and  C_37
REMARK                            x       y       z     vdW  Elec       q    Type
REMARK                         _______ _______ _______ _____ _____    ______ ____
ROOT
ATOM      1  C   UNL     1       4.394   8.493  -6.680  0.00  0.00    +0.249 C 
ATOM      2  O   UNL     1       3.348   7.984  -6.325  0.00  0.00    -0.270 OA
ATOM      3  N   UNL     1       5.535   7.776  -6.654  0.00  0.00    -0.297 N 
ATOM      4  C   UNL     1       6.789   8.347  -7.164  0.00  0.00    +0.108 C 
ATOM      5  C   UNL     1       7.863   8.229  -6.078  0.00  0.00    +0.019 C 
ATOM      6  C   UNL     1       7.973   6.770  -5.631  0.00  0.00    +0.010 C 
ATOM      7  C   UNL     1       6.636   6.313  -5.042  0.00  0.00    +0.044 C 
ATOM      8  C   UNL     1       5.549   6.409  -6.116  0.00  0.00    +0.115 C 
ENDROOT
BRANCH   1  19
ATOM      9  C   UNL     1       3.105  14.539  -5.723  0.00  0.00    +0.046 C 
ATOM     10  C   UNL     1       3.308  13.046  -5.715  0.00  0.00    -0.022 A 
ATOM     11  C   UNL     1       2.965  12.198  -4.733  0.00  0.00    +0.017 A 
ATOM     12  N   UNL     1       3.306  10.919  -5.081  0.00  0.00    -0.357 N 
ATOM     13  H   UNL     1       3.156  10.134  -4.532  0.00  0.00    +0.166 HD
ATOM     14  C   UNL     1       3.884  10.911  -6.325  0.00  0.00    +0.059 A 
ATOM     15  C   UNL     1       3.918  12.242  -6.777  0.00  0.00    +0.004 A 
ATOM     16  C   UNL     1       4.463  12.541  -8.027  0.00  0.00    +0.010 A 
ATOM     17  C   UNL     1       4.974  11.532  -8.816  0.00  0.00    +0.001 A 
ATOM     18  C   UNL     1       4.952  10.219  -8.381  0.00  0.00    +0.015 A 
ATOM     19  C   UNL     1       4.414   9.895  -7.137  0.00  0.00    +0.061 A 
ATOM     20  C   UNL     1       2.302  12.595  -3.439  0.00  0.00    +0.063 C 
ENDBRANCH   1  19
BRANCH   7  21
ATOM     21  C   UNL     1       6.757   4.864  -4.565  0.00  0.00    +0.234 C 
BRANCH  21  22
ATOM     22  O   UNL     1       5.548   4.476  -3.910  0.00  0.00    -0.492 OA
BRANCH  22  23
ATOM     23  C   UNL     1       5.489   3.208  -3.424  0.00  0.00    +0.121 A 
ATOM     24  C   UNL     1       6.574   2.355  -3.574  0.00  0.00    +0.045 A 
ATOM     25  C   UNL     1       6.512   1.068  -3.078  0.00  0.00    +0.004 A 
ATOM     26  C   UNL     1       5.372   0.629  -2.429  0.00  0.00    +0.002 A 
ATOM     27  C   UNL     1       4.288   1.475  -2.283  0.00  0.00    -0.060 A 
ATOM     28  C   UNL     1       4.345   2.764  -2.777  0.00  0.00    +0.047 A 
BRANCH  27  29
ATOM     29  C   UNL     1       3.046   0.993  -1.580  0.00  0.00    -0.043 C 
BRANCH  29  31
ATOM     30  C   UNL     1       2.701  -0.828  -3.138  0.00  0.00    -0.095 C 
ATOM     31  N   UNL     1       2.126   0.414  -2.581  0.00  0.00    +0.383 N 
ATOM     32  H   UNL     1       1.992   1.091  -3.342  0.00  0.00    -0.081 HD
BRANCH  31  33
ATOM     33  C   UNL     1       0.816   0.129  -1.958  0.00  0.00    -0.040 C 
BRANCH  33  34
ATOM     34  C   UNL     1      -0.165  -0.248  -3.038  0.00  0.00    -0.026 A 
ATOM     35  C   UNL     1      -0.979   0.634  -3.755  0.00  0.00    +0.136 A 
ATOM     36  N   UNL     1      -1.691  -0.064  -4.603  0.00  0.00    -0.180 NA
ATOM     37  N   UNL     1      -1.351  -1.415  -4.451  0.00  0.00    -0.274 N 
ATOM     38  C   UNL     1      -0.413  -1.501  -3.485  0.00  0.00    +0.109 A 
ATOM     39  C   UNL     1      -1.914  -2.535  -5.208  0.00  0.00    +0.172 C 
ENDBRANCH  33  34
ENDBRANCH  31  33
ENDBRANCH  29  31
ENDBRANCH  27  29
ENDBRANCH  22  23
ENDBRANCH  21  22
ENDBRANCH   7  21
TORSDOF 8
