REMARK  Name = ZINC36598877
REMARK  10 active torsions:
REMARK  status: ('A' for Active; 'I' for Inactive)
REMARK    1  A    between atoms: C_1  and  C_2
REMARK    2  A    between atoms: C_5  and  C_7
REMARK    3  A    between atoms: C_7  and  N_8
REMARK    4  A    between atoms: N_8  and  C_9
REMARK    5  A    between atoms: C_9  and  C_11
REMARK    6  A    between atoms: C_9  and  C_18
REMARK    7  A    between atoms: C_16  and  O_17
REMARK    8  A    between atoms: N_20  and  C_21
REMARK    9  A    between atoms: C_27  and  C_29
REMARK   10  A    between atoms: C_29  and  C_30
REMARK                            x       y       z     vdW  Elec       q    Type
REMARK                         _______ _______ _______ _____ _____    ______ ____
ROOT
ATOM      1  N   UNL     1       1.812  -3.491  -1.325  0.00  0.00    -0.278 N 
ATOM      2  C   UNL     1       1.525  -3.251  -0.030  0.00  0.00    +0.221 C 
ATOM      3  O   UNL     1       2.262  -2.554   0.635  0.00  0.00    -0.275 OA
ENDROOT
BRANCH   1   4
ATOM      4  C   UNL     1       0.922  -4.332  -2.129  0.00  0.00    +0.183 C 
BRANCH   4   9
ATOM      5  C   UNL     1       3.221  -8.643  -3.381  0.00  0.00    +0.086 C 
ATOM      6  C   UNL     1       2.397  -7.635  -2.621  0.00  0.00    +0.102 A 
ATOM      7  C   UNL     1       1.760  -7.857  -1.457  0.00  0.00    +0.045 A 
ATOM      8  C   UNL     1       1.116  -6.648  -1.106  0.00  0.00    +0.046 A 
ATOM      9  C   UNL     1       1.397  -5.761  -2.077  0.00  0.00    +0.122 A 
ATOM     10  O   UNL     1       2.179  -6.362  -2.989  0.00  0.00    -0.463 OA
ENDBRANCH   4   9
ENDBRANCH   1   4
BRANCH   1  11
ATOM     11  C   UNL     1       3.015  -2.911  -1.928  0.00  0.00    +0.196 C 
BRANCH  11  12
ATOM     12  C   UNL     1       4.218  -3.267  -1.093  0.00  0.00    +0.023 A 
ATOM     13  C   UNL     1       4.749  -2.341  -0.215  0.00  0.00    +0.009 A 
ATOM     14  C   UNL     1       5.852  -2.667   0.551  0.00  0.00    +0.001 A 
ATOM     15  C   UNL     1       6.427  -3.921   0.442  0.00  0.00    +0.004 A 
ATOM     16  C   UNL     1       5.899  -4.850  -0.433  0.00  0.00    +0.046 A 
ATOM     17  C   UNL     1       4.788  -4.527  -1.199  0.00  0.00    +0.122 A 
BRANCH  17  18
ATOM     18  O   UNL     1       4.264  -5.442  -2.057  0.00  0.00    -0.506 OA
ATOM     19  H   UNL     1       4.697  -5.464  -2.921  0.00  0.00    +0.292 HD
ENDBRANCH  17  18
ENDBRANCH  11  12
BRANCH  11  20
ATOM     20  C   UNL     1       2.873  -1.412  -1.991  0.00  0.00    +0.238 C 
ATOM     21  O   UNL     1       1.984  -0.861  -1.378  0.00  0.00    -0.273 OA
ATOM     22  N   UNL     1       3.735  -0.684  -2.728  0.00  0.00    -0.311 N 
ATOM     23  H   UNL     1       4.399  -1.129  -3.277  0.00  0.00    +0.149 HD
BRANCH  22  24
ATOM     24  C   UNL     1       3.668   0.779  -2.701  0.00  0.00    +0.073 C 
ATOM     25  C   UNL     1       2.624   1.261  -3.711  0.00  0.00    +0.022 C 
ATOM     26  C   UNL     1       2.554   2.789  -3.682  0.00  0.00    +0.002 C 
ATOM     27  C   UNL     1       3.922   3.369  -4.046  0.00  0.00    +0.000 C 
ATOM     28  C   UNL     1       4.966   2.887  -3.036  0.00  0.00    +0.002 C 
ATOM     29  C   UNL     1       5.036   1.359  -3.065  0.00  0.00    +0.022 C 
ENDBRANCH  22  24
ENDBRANCH  11  20
ENDBRANCH   1  11
BRANCH   2  30
ATOM     30  C   UNL     1       0.288  -3.847   0.590  0.00  0.00    +0.131 C 
BRANCH  30  31
ATOM     31  C   UNL     1       0.199  -3.428   2.035  0.00  0.00    -0.035 A 
ATOM     32  C   UNL     1       0.791  -4.204   3.015  0.00  0.00    +0.008 A 
ATOM     33  C   UNL     1       0.712  -3.824   4.342  0.00  0.00    +0.050 A 
ATOM     34  C   UNL     1       0.040  -2.664   4.693  0.00  0.00    +0.166 A 
ATOM     35  C   UNL     1      -0.556  -1.883   3.706  0.00  0.00    +0.166 A 
ATOM     36  C   UNL     1      -0.469  -2.267   2.378  0.00  0.00    +0.053 A 
ATOM     37  O   UNL     1      -1.149  -0.807   4.300  0.00  0.00    -0.453 OA
ATOM     38  C   UNL     1      -1.261  -1.151   5.694  0.00  0.00    +0.466 C 
ATOM     39  O   UNL     1      -0.180  -2.077   5.906  0.00  0.00    -0.453 OA
ENDBRANCH  30  31
ENDBRANCH   2  30
TORSDOF 9
