REMARK  Name = ZINC14477886
REMARK  5 active torsions:
REMARK  status: ('A' for Active; 'I' for Inactive)
REMARK    1  A    between atoms: C_1  and  C_2
REMARK    2  A    between atoms: C_2  and  N_3
REMARK    3  A    between atoms: N_3  and  C_4
REMARK    4  A    between atoms: C_10  and  C_12
REMARK    5  A    between atoms: C_25  and  C_28
REMARK                            x       y       z     vdW  Elec       q    Type
REMARK                         _______ _______ _______ _____ _____    ______ ____
ROOT
ATOM      1  C   UNL     1       0.710   3.516  -0.987  0.00  0.00    +0.038 A 
ATOM      2  C   UNL     1       1.408   2.990   0.104  0.00  0.00    +0.015 A 
ATOM      3  C   UNL     1       2.452   3.693   0.655  0.00  0.00    +0.024 A 
ATOM      4  C   UNL     1       2.819   4.935   0.141  0.00  0.00    +0.031 A 
ATOM      5  C   UNL     1       2.108   5.468  -0.944  0.00  0.00    -0.019 A 
ATOM      6  C   UNL     1       1.069   4.765  -1.501  0.00  0.00    +0.019 A 
ATOM      7  C   UNL     1       2.516   6.802  -1.438  0.00  0.00    +0.049 C 
ATOM      8  C   UNL     1       2.282   7.224  -2.842  0.00  0.00    -0.023 C 
ATOM      9  C   UNL     1       3.252   8.056  -3.202  0.00  0.00    -0.030 C 
ATOM     10  C   UNL     1       4.246   8.229  -2.052  0.00  0.00    +0.033 C 
ATOM     11  C   UNL     1       4.063   6.913  -1.285  0.00  0.00    +0.029 C 
ATOM     12  C   UNL     1       4.320   6.939   0.211  0.00  0.00    +0.106 C 
ATOM     13  N   UNL     1       3.894   5.614   0.712  0.00  0.00    -0.336 N 
ATOM     14  H   UNL     1       4.373   5.210   1.452  0.00  0.00    +0.147 HD
ENDROOT
BRANCH  12  15
ATOM     15  C   UNL     1       5.786   7.153   0.483  0.00  0.00    -0.009 A 
ATOM     16  C   UNL     1       6.614   6.067   0.702  0.00  0.00    +0.008 A 
ATOM     17  C   UNL     1       7.959   6.262   0.952  0.00  0.00    +0.020 A 
ATOM     18  C   UNL     1       8.478   7.544   0.983  0.00  0.00    +0.042 A 
ATOM     19  C   UNL     1       7.651   8.631   0.765  0.00  0.00    +0.040 A 
ATOM     20  C   UNL     1       6.306   8.435   0.509  0.00  0.00    +0.047 A 
ATOM     21 CL   UNL     1       5.268   9.798   0.227  0.00  0.00    -0.083 Cl
ATOM     22 CL   UNL     1      10.168   7.789   1.296  0.00  0.00    -0.083 Cl
ENDBRANCH  12  15
BRANCH   1  24
ATOM     23  N   UNL     1      -0.399   1.411  -1.556  0.00  0.00    -0.268 N 
ATOM     24  C   UNL     1      -0.405   2.759  -1.589  0.00  0.00    +0.251 C 
ATOM     25  O   UNL     1      -1.328   3.351  -2.114  0.00  0.00    -0.270 OA
BRANCH  23  26
ATOM     26  C   UNL     1      -1.372   0.691  -2.257  0.00  0.00    +0.037 A 
ATOM     27  C   UNL     1      -1.465  -0.686  -2.101  0.00  0.00    +0.023 A 
ATOM     28  C   UNL     1      -2.430  -1.393  -2.790  0.00  0.00    +0.002 A 
ATOM     29  C   UNL     1      -3.296  -0.734  -3.643  0.00  0.00    +0.000 A 
ATOM     30  C   UNL     1      -3.202   0.636  -3.805  0.00  0.00    +0.002 A 
ATOM     31  C   UNL     1      -2.243   1.350  -3.115  0.00  0.00    +0.023 A 
ENDBRANCH  23  26
BRANCH  23  33
ATOM     32  C   UNL     1       0.049   0.282   0.567  0.00  0.00    +0.025 C 
ATOM     33  C   UNL     1       0.626   0.702  -0.787  0.00  0.00    +0.110 C 
ENDBRANCH  23  33
ENDBRANCH   1  24
TORSDOF 4
