REMARK  Name = ZINC12620045
REMARK  5 active torsions:
REMARK  status: ('A' for Active; 'I' for Inactive)
REMARK    1  A    between atoms: N_13  and  C_17
REMARK    2  A    between atoms: C_17  and  C_18
REMARK    3  A    between atoms: N_20  and  C_21
REMARK    4  A    between atoms: C_23  and  S_28
REMARK    5  A    between atoms: S_28  and  N_31
REMARK                            x       y       z     vdW  Elec       q    Type
REMARK                         _______ _______ _______ _____ _____    ______ ____
ROOT
ATOM      1  C   UNL     1       6.036   1.799  -2.926  0.00  0.00    +0.235 C 
ATOM      2  O   UNL     1       5.087   2.408  -2.478  0.00  0.00    -0.274 OA
ATOM      3  N   UNL     1       6.754   2.322  -3.939  0.00  0.00    -0.283 N 
ATOM      4  H   UNL     1       7.560   1.875  -4.243  0.00  0.00    +0.155 HD
ENDROOT
BRANCH   3   5
ATOM      5  C   UNL     1       6.339   3.509  -4.552  0.00  0.00    +0.054 A 
ATOM      6  C   UNL     1       5.001   3.880  -4.516  0.00  0.00    +0.053 A 
ATOM      7  C   UNL     1       4.595   5.055  -5.117  0.00  0.00    +0.107 A 
ATOM      8  C   UNL     1       5.517   5.858  -5.764  0.00  0.00    +0.030 A 
ATOM      9  C   UNL     1       6.849   5.490  -5.807  0.00  0.00    +0.024 A 
ATOM     10  C   UNL     1       7.263   4.318  -5.202  0.00  0.00    +0.062 A 
ATOM     11 CL   UNL     1       8.936   3.856  -5.257  0.00  0.00    -0.082 Cl
BRANCH   7  12
ATOM     12  S   UNL     1       2.899   5.529  -5.066  0.00  0.00    +0.061 S 
ATOM     13  O   UNL     1       2.331   4.885  -3.933  0.00  0.00    -0.153 OA
ATOM     14  O   UNL     1       2.866   6.940  -5.236  0.00  0.00    -0.153 OA
BRANCH  12  15
ATOM     15  N   UNL     1       2.167   4.875  -6.399  0.00  0.00    -0.177 NA
ATOM     16  C   UNL     1       2.039   5.524  -7.712  0.00  0.00    +0.109 C 
ATOM     17  C   UNL     1       1.267   4.553  -8.630  0.00  0.00    +0.018 C 
ATOM     18  C   UNL     1       0.504   3.655  -7.621  0.00  0.00    +0.018 C 
ATOM     19  C   UNL     1       1.530   3.547  -6.465  0.00  0.00    +0.109 C 
ENDBRANCH  12  15
ENDBRANCH   7  12
ENDBRANCH   3   5
BRANCH   1  20
ATOM     20  C   UNL     1       6.411   0.459  -2.349  0.00  0.00    +0.214 C 
BRANCH  20  33
ATOM     21  C   UNL     1      -0.018   1.390   0.011  0.00  0.00    +0.000 A 
ATOM     22  C   UNL     1       1.177   2.086   0.006  0.00  0.00    +0.000 A 
ATOM     23  C   UNL     1       2.371   1.397  -0.017  0.00  0.00    +0.006 A 
ATOM     24  C   UNL     1       2.385   0.008  -0.035  0.00  0.00    -0.012 A 
ATOM     25  C   UNL     1       1.194  -0.685  -0.025  0.00  0.00    -0.042 A 
ATOM     26  C   UNL     1      -0.007   0.011  -0.005  0.00  0.00    +0.004 A 
ATOM     27  C   UNL     1       1.136  -2.191  -0.027  0.00  0.00    +0.035 C 
ATOM     28  C   UNL     1       2.464  -2.783  -0.493  0.00  0.00    +0.008 C 
ATOM     29  C   UNL     1       3.594  -2.151   0.331  0.00  0.00    +0.040 C 
ATOM     30  C   UNL     1       3.717  -0.685  -0.068  0.00  0.00    +0.138 C 
ATOM     31  C   UNL     1       4.334  -0.567  -1.444  0.00  0.00    +0.251 C 
ATOM     32  O   UNL     1       3.887  -0.996  -2.487  0.00  0.00    -0.272 OA
ATOM     33  N   UNL     1       5.484   0.115  -1.268  0.00  0.00    -0.215 N 
ATOM     34  C   UNL     1       5.673   0.439   0.017  0.00  0.00    +0.310 C 
ATOM     35  O   UNL     1       6.638   1.055   0.424  0.00  0.00    -0.252 OA
ATOM     36  N   UNL     1       4.673   0.005   0.808  0.00  0.00    -0.281 N 
ATOM     37  H   UNL     1       4.599   0.125   1.768  0.00  0.00    +0.152 HD
ENDBRANCH  20  33
ENDBRANCH   1  20
TORSDOF 5
