REMARK  Name = ZINC20530118
REMARK  5 active torsions:
REMARK  status: ('A' for Active; 'I' for Inactive)
REMARK    1  A    between atoms: C_4  and  S_7
REMARK    2  A    between atoms: S_7  and  N_10
REMARK    3  A    between atoms: N_10  and  C_11
REMARK    4  A    between atoms: C_20  and  O_21
REMARK    5  A    between atoms: N_22  and  C_23
REMARK                            x       y       z     vdW  Elec       q    Type
REMARK                         _______ _______ _______ _____ _____    ______ ____
ROOT
ATOM      1  C   UNL     1       3.335   3.058   0.137  0.00  0.00    +0.152 A 
ATOM      2  C   UNL     1       2.184   3.790  -0.094  0.00  0.00    +0.076 A 
ATOM      3  C   UNL     1       0.937   3.049  -0.343  0.00  0.00    +0.042 A 
ATOM      4  C   UNL     1      -0.263   3.722  -0.583  0.00  0.00    +0.013 A 
ATOM      5  C   UNL     1      -1.414   3.001  -0.812  0.00  0.00    +0.001 A 
ATOM      6  C   UNL     1      -1.383   1.614  -0.810  0.00  0.00    +0.004 A 
ATOM      7  C   UNL     1      -0.206   0.938  -0.569  0.00  0.00    +0.047 A 
ATOM      8  C   UNL     1       0.967   1.646  -0.335  0.00  0.00    +0.141 A 
ATOM      9  O   UNL     1       2.127   0.996  -0.102  0.00  0.00    -0.424 OA
ATOM     10  C   UNL     1       3.275   1.653   0.127  0.00  0.00    +0.310 A 
ATOM     11  N   UNL     1       2.204   5.173  -0.092  0.00  0.00    -0.380 N 
ATOM     12  H   UNL     1       2.166   5.722   0.860  0.00  0.00    +0.160 HD
ENDROOT
BRANCH  11  13
ATOM     13  C   UNL     1       2.280   5.701  -1.461  0.00  0.00    +0.079 C 
ATOM     14  C   UNL     1       3.753   5.832  -1.897  0.00  0.00    +0.024 C 
ATOM     15  C   UNL     1       3.785   7.131  -2.741  0.00  0.00    +0.002 C 
ATOM     16  C   UNL     1       2.804   8.058  -1.980  0.00  0.00    +0.002 C 
ATOM     17  C   UNL     1       1.676   7.115  -1.515  0.00  0.00    +0.024 C 
ENDBRANCH  11  13
BRANCH   1  18
ATOM     18  N   UNL     1       4.555   3.715   0.380  0.00  0.00    -0.208 N 
ATOM     19  H   UNL     1       5.411   3.551  -0.292  0.00  0.00    +0.174 HD
BRANCH  18  20
ATOM     20  S   UNL     1       4.703   4.733   1.677  0.00  0.00    +0.073 S 
ATOM     21  O   UNL     1       6.037   5.223   1.658  0.00  0.00    -0.150 OA
ATOM     22  O   UNL     1       3.574   5.595   1.648  0.00  0.00    -0.150 OA
BRANCH  20  26
ATOM     23  C   UNL     1       4.307   2.209   5.414  0.00  0.00    +0.000 A 
ATOM     24  C   UNL     1       5.558   2.482   4.894  0.00  0.00    +0.002 A 
ATOM     25  C   UNL     1       5.679   3.253   3.753  0.00  0.00    +0.029 A 
ATOM     26  C   UNL     1       4.549   3.750   3.131  0.00  0.00    +0.108 A 
ATOM     27  C   UNL     1       3.298   3.481   3.654  0.00  0.00    +0.029 A 
ATOM     28  C   UNL     1       3.176   2.706   4.792  0.00  0.00    +0.002 A 
ENDBRANCH  20  26
ENDBRANCH  18  20
ENDBRANCH   1  18
BRANCH  10  29
ATOM     29  O   UNL     1       4.293   1.015   0.331  0.00  0.00    -0.479 OA
ATOM     30  H   UNL     1       4.264  -0.085   0.326  0.00  0.00    +0.295 HD
ENDBRANCH  10  29
TORSDOF 5
