REMARK  Name = ZINC66618070
REMARK  7 active torsions:
REMARK  status: ('A' for Active; 'I' for Inactive)
REMARK    1  A    between atoms: C_1  and  C_2
REMARK    2  A    between atoms: C_5  and  C_9
REMARK    3  A    between atoms: C_6  and  C_8
REMARK    4  A    between atoms: C_9  and  C_10
REMARK    5  A    between atoms: C_10  and  C_12
REMARK    6  A    between atoms: C_10  and  N_13
REMARK    7  A    between atoms: C_22  and  C_24
REMARK                            x       y       z     vdW  Elec       q    Type
REMARK                         _______ _______ _______ _____ _____    ______ ____
ROOT
ATOM      1  N   UNL     1      -2.240  -3.048  -0.976  0.00  0.00    -0.296 N 
ATOM      2  C   UNL     1      -3.577  -3.208  -0.926  0.00  0.00    +0.303 C 
ATOM      3  O   UNL     1      -4.115  -3.510   0.121  0.00  0.00    -0.253 OA
ATOM      4  N   UNL     1      -4.318  -3.033  -2.039  0.00  0.00    -0.283 N 
ATOM      5  C   UNL     1      -3.673  -2.783  -3.335  0.00  0.00    +0.128 C 
ATOM      6  C   UNL     1      -4.166  -3.833  -4.338  0.00  0.00    +0.127 C 
ATOM      7  N   UNL     1      -5.633  -3.890  -4.276  0.00  0.00    -0.298 N 
ATOM      8  C   UNL     1      -6.278  -4.140  -2.979  0.00  0.00    +0.127 C 
ATOM      9  C   UNL     1      -5.785  -3.095  -1.977  0.00  0.00    +0.128 C 
ATOM     10  C   UNL     1      -6.374  -3.715  -5.388  0.00  0.00    +0.219 C 
ATOM     11  O   UNL     1      -7.584  -3.688  -5.313  0.00  0.00    -0.275 OA
ATOM     12  H   UNL     1      -1.802  -2.879  -1.825  0.00  0.00    +0.151 HD
ENDROOT
BRANCH  10  13
ATOM     13  C   UNL     1      -5.699  -3.554  -6.726  0.00  0.00    +0.075 C 
ATOM     14  C   UNL     1      -5.146  -4.913  -7.221  0.00  0.00    +0.013 C 
ATOM     15  C   UNL     1      -5.066  -4.711  -8.755  0.00  0.00    +0.001 C 
ATOM     16  C   UNL     1      -6.323  -3.884  -9.094  0.00  0.00    +0.001 C 
ATOM     17  C   UNL     1      -6.726  -3.148  -7.803  0.00  0.00    +0.013 C 
ENDBRANCH  10  13
BRANCH   1  18
ATOM     18  C   UNL     1      -1.446  -3.130   0.253  0.00  0.00    +0.076 C 
ATOM     19  C   UNL     1      -1.113  -4.594   0.549  0.00  0.00    +0.028 C 
BRANCH  18  20
ATOM     20  C   UNL     1      -0.149  -2.337   0.077  0.00  0.00    +0.057 C 
BRANCH  20  25
ATOM     21  C   UNL     1      -1.394   3.268  -0.571  0.00  0.00    +0.044 C 
ATOM     22  C   UNL     1      -1.070   1.806  -0.402  0.00  0.00    -0.050 A 
ATOM     23  C   UNL     1      -0.886   1.006  -1.515  0.00  0.00    +0.003 A 
ATOM     24  C   UNL     1      -0.588  -0.335  -1.360  0.00  0.00    +0.004 A 
ATOM     25  C   UNL     1      -0.473  -0.875  -0.092  0.00  0.00    -0.043 A 
ATOM     26  C   UNL     1      -0.656  -0.075   1.020  0.00  0.00    -0.047 A 
ATOM     27  C   UNL     1      -0.950   1.267   0.865  0.00  0.00    +0.007 A 
ATOM     28  C   UNL     1      -0.531  -0.664   2.401  0.00  0.00    +0.044 C 
ENDBRANCH  20  25
ENDBRANCH  18  20
ENDBRANCH   1  18
TORSDOF 4
