REMARK  Name = ZINC09822603
REMARK  3 active torsions:
REMARK  status: ('A' for Active; 'I' for Inactive)
REMARK    1  A    between atoms: C_1  and  C_2
REMARK    2  A    between atoms: C_4  and  N_18
REMARK    3  A    between atoms: C_19  and  C_21
REMARK                            x       y       z     vdW  Elec       q    Type
REMARK                         _______ _______ _______ _____ _____    ______ ____
ROOT
ATOM      1  N   UNL     1      -1.427   3.672   0.034  0.00  0.00    -0.269 N 
ATOM      2  C   UNL     1      -2.468   4.528   0.048  0.00  0.00    +0.230 C 
ATOM      3  O   UNL     1      -2.269   5.724   0.052  0.00  0.00    -0.274 OA
ATOM      4  H   UNL     1      -1.585   2.715   0.031  0.00  0.00    +0.156 HD
ENDROOT
BRANCH   1   8
ATOM      5  C   UNL     1       2.477   6.779   0.013  0.00  0.00    +0.067 C 
ATOM      6  C   UNL     1       1.644   5.524   0.015  0.00  0.00    +0.062 A 
ATOM      7  C   UNL     1       0.246   5.471   0.028  0.00  0.00    +0.068 A 
ATOM      8  C   UNL     1      -0.123   4.162   0.025  0.00  0.00    +0.132 A 
ATOM      9  N   UNL     1       1.020   3.416   0.010  0.00  0.00    -0.185 N 
ATOM     10  N   UNL     1       2.107   4.301   0.011  0.00  0.00    -0.167 NA
ATOM     11  C   UNL     1       1.093   2.035   0.003  0.00  0.00    +0.234 A 
ATOM     12  N   UNL     1       2.311   1.432  -0.012  0.00  0.00    -0.291 N 
ATOM     13  H   UNL     1       3.120   1.967  -0.016  0.00  0.00    +0.172 HD
ATOM     14  C   UNL     1       2.388   0.084  -0.020  0.00  0.00    +0.256 A 
ATOM     15  O   UNL     1       3.472  -0.476  -0.033  0.00  0.00    -0.267 OA
ATOM     16  C   UNL     1       1.194  -0.663  -0.013  0.00  0.00    +0.038 A 
ATOM     17  C   UNL     1       0.002  -0.004   0.002  0.00  0.00    +0.053 A 
ATOM     18  N   UNL     1      -0.016   1.331   0.009  0.00  0.00    -0.217 NA
ATOM     19  C   UNL     1      -1.138  -1.000   0.008  0.00  0.00    +0.056 C 
ATOM     20  C   UNL     1      -0.509  -2.336  -0.442  0.00  0.00    +0.011 C 
ATOM     21  C   UNL     1       0.966  -2.158  -0.020  0.00  0.00    +0.043 C 
ENDBRANCH   1   8
BRANCH   2  22
ATOM     22  C   UNL     1      -3.878   3.998   0.059  0.00  0.00    +0.142 C 
ATOM     23  C   UNL     1      -4.101   3.155  -1.167  0.00  0.00    +0.011 A 
ATOM     24  C   UNL     1      -3.597   1.867  -1.205  0.00  0.00    +0.008 A 
ATOM     25  C   UNL     1      -3.789   1.077  -2.322  0.00  0.00    +0.001 A 
ATOM     26  C   UNL     1      -4.489   1.572  -3.408  0.00  0.00    +0.004 A 
ATOM     27  C   UNL     1      -4.995   2.854  -3.374  0.00  0.00    +0.046 A 
ATOM     28  C   UNL     1      -4.803   3.652  -2.252  0.00  0.00    +0.133 A 
ATOM     29  O   UNL     1      -5.308   4.909  -2.240  0.00  0.00    -0.455 OA
ATOM     30  C   UNL     1      -5.508   5.549  -1.063  0.00  0.00    +0.133 A 
ATOM     31  C   UNL     1      -4.842   5.153   0.086  0.00  0.00    +0.011 A 
ATOM     32  C   UNL     1      -5.062   5.825   1.276  0.00  0.00    +0.008 A 
ATOM     33  C   UNL     1      -5.943   6.888   1.321  0.00  0.00    +0.001 A 
ATOM     34  C   UNL     1      -6.610   7.285   0.177  0.00  0.00    +0.004 A 
ATOM     35  C   UNL     1      -6.394   6.618  -1.013  0.00  0.00    +0.046 A 
ENDBRANCH   2  22
TORSDOF 2
