REMARK  Name = ZINC66511860
REMARK  8 active torsions:
REMARK  status: ('A' for Active; 'I' for Inactive)
REMARK    1  A    between atoms: C_1  and  C_2
REMARK    2  A    between atoms: C_2  and  C_4
REMARK    3  A    between atoms: C_2  and  N_22
REMARK    4  A    between atoms: C_4  and  C_5
REMARK    5  A    between atoms: C_9  and  C_16
REMARK    6  A    between atoms: C_13  and  C_14
REMARK    7  A    between atoms: C_13  and  C_15
REMARK    8  A    between atoms: C_23  and  C_25
REMARK                            x       y       z     vdW  Elec       q    Type
REMARK                         _______ _______ _______ _____ _____    ______ ____
ROOT
ATOM      1  C   UNL     1       0.758  -2.006   1.266  0.00  0.00    +0.218 C 
ATOM      2  O   UNL     1       0.316  -2.594   0.301  0.00  0.00    -0.276 OA
ATOM      3  N   UNL     1       1.429  -2.685   2.218  0.00  0.00    -0.291 N 
ATOM      4  C   UNL     1       2.073  -1.980   3.338  0.00  0.00    +0.144 C 
ATOM      5  C   UNL     1       1.633  -2.648   4.646  0.00  0.00    +0.166 C 
ATOM      6  O   UNL     1       1.871  -4.055   4.560  0.00  0.00    -0.368 OA
ATOM      7  C   UNL     1       1.124  -4.713   3.534  0.00  0.00    +0.186 C 
ATOM      8  C   UNL     1       1.533  -4.152   2.172  0.00  0.00    +0.055 C 
ATOM      9  C   UNL     1       2.976  -4.557   1.865  0.00  0.00    +0.034 C 
ATOM     10  C   UNL     1       0.601  -4.701   1.090  0.00  0.00    +0.034 C 
ENDROOT
BRANCH   5  11
ATOM     11  C   UNL     1       2.422  -2.072   5.794  0.00  0.00    -0.017 A 
ATOM     12  C   UNL     1       3.709  -2.512   6.038  0.00  0.00    +0.006 A 
ATOM     13  C   UNL     1       4.432  -1.984   7.091  0.00  0.00    +0.000 A 
ATOM     14  C   UNL     1       3.868  -1.016   7.901  0.00  0.00    +0.000 A 
ATOM     15  C   UNL     1       2.580  -0.576   7.657  0.00  0.00    +0.000 A 
ATOM     16  C   UNL     1       1.859  -1.101   6.601  0.00  0.00    +0.006 A 
ENDBRANCH   5  11
BRANCH   1  17
ATOM     17  C   UNL     1       0.559  -0.519   1.399  0.00  0.00    +0.118 C 
BRANCH  17  19
ATOM     18  C   UNL     1      -0.322   1.526   0.266  0.00  0.00    +0.028 C 
ATOM     19  C   UNL     1      -0.227   0.001   0.194  0.00  0.00    +0.079 C 
BRANCH  19  20
ATOM     20  N   UNL     1      -1.575  -0.574   0.205  0.00  0.00    -0.312 N 
ATOM     21  C   UNL     1      -2.267  -0.692  -0.946  0.00  0.00    +0.216 C 
ATOM     22  O   UNL     1      -1.773  -0.322  -1.990  0.00  0.00    -0.276 OA
ATOM     23  H   UNL     1      -1.969  -0.869   1.040  0.00  0.00    +0.149 HD
BRANCH  21  24
ATOM     24  C   UNL     1      -3.653  -1.282  -0.934  0.00  0.00    +0.075 C 
ATOM     25  C   UNL     1      -3.594  -2.711  -0.390  0.00  0.00    +0.013 C 
ATOM     26  C   UNL     1      -5.001  -3.311  -0.379  0.00  0.00    +0.001 C 
ATOM     27  C   UNL     1      -5.559  -3.330  -1.803  0.00  0.00    +0.000 C 
ATOM     28  C   UNL     1      -5.618  -1.902  -2.347  0.00  0.00    +0.001 C 
ATOM     29  C   UNL     1      -4.211  -1.302  -2.359  0.00  0.00    +0.013 C 
ENDBRANCH  21  24
ENDBRANCH  19  20
ENDBRANCH  17  19
ENDBRANCH   1  17
TORSDOF 5
