REMARK  Name = ZINC28894662
REMARK  13 active torsions:
REMARK  status: ('A' for Active; 'I' for Inactive)
REMARK    1  A    between atoms: C_1  and  N_2
REMARK    2  A    between atoms: N_2  and  C_3
REMARK    3  A    between atoms: N_2  and  C_20
REMARK    4  A    between atoms: C_3  and  C_4
REMARK    5  A    between atoms: C_4  and  C_5
REMARK    6  A    between atoms: N_7  and  C_8
REMARK    7  A    between atoms: C_8  and  C_9
REMARK    8  A    between atoms: C_9  and  C_10
REMARK    9  A    between atoms: C_13  and  S_16
REMARK   10  A    between atoms: S_16  and  N_19
REMARK   11  A    between atoms: C_20  and  C_21
REMARK   12  A    between atoms: C_24  and  S_27
REMARK   13  A    between atoms: S_27  and  C_28
REMARK                            x       y       z     vdW  Elec       q    Type
REMARK                         _______ _______ _______ _____ _____    ______ ____
ROOT
ATOM      1  C   UNL     1       0.515  -6.037  -2.960  0.00  0.00    +0.211 C 
ATOM      2  O   UNL     1       0.549  -6.692  -1.940  0.00  0.00    -0.276 OA
ATOM      3  N   UNL     1       0.273  -6.640  -4.141  0.00  0.00    -0.315 N 
ATOM      4  H   UNL     1       0.243  -6.046  -5.066  0.00  0.00    +0.149 HD
ENDROOT
BRANCH   1   5
ATOM      5  C   UNL     1       0.744  -4.548  -2.907  0.00  0.00    +0.077 C 
BRANCH   5   6
ATOM      6  C   UNL     1       0.994  -4.122  -1.459  0.00  0.00    -0.070 C 
BRANCH   6   8
ATOM      7  C   UNL     1       2.460  -2.304  -2.100  0.00  0.00    -0.096 C 
ATOM      8  N   UNL     1       1.217  -2.670  -1.408  0.00  0.00    +0.381 N 
ATOM      9  H   UNL     1       0.382  -2.181  -1.931  0.00  0.00    -0.082 HD
BRANCH   8  10
ATOM     10  C   UNL     1       1.224  -2.188  -0.020  0.00  0.00    -0.043 C 
BRANCH  10  11
ATOM     11  C   UNL     1       1.208  -0.681  -0.013  0.00  0.00    -0.064 A 
ATOM     12  C   UNL     1       0.002  -0.004   0.002  0.00  0.00    +0.003 A 
ATOM     13  C   UNL     1      -0.017   1.377   0.010  0.00  0.00    +0.015 A 
ATOM     14  C   UNL     1       1.178   2.086   0.002  0.00  0.00    +0.008 A 
ATOM     15  C   UNL     1       2.388   1.403  -0.012  0.00  0.00    +0.015 A 
ATOM     16  C   UNL     1       2.399   0.022  -0.020  0.00  0.00    +0.003 A 
BRANCH  14  17
ATOM     17  S   UNL     1       1.159   3.848   0.012  0.00  0.00    -0.129 S 
ATOM     18  C   UNL     1       2.915   4.306  -0.003  0.00  0.00    +0.090 C 
ENDBRANCH  14  17
ENDBRANCH  10  11
ENDBRANCH   8  10
ENDBRANCH   6   8
ENDBRANCH   5   6
ENDBRANCH   1   5
BRANCH   3  19
ATOM     19  C   UNL     1       0.051  -8.087  -4.192  0.00  0.00    +0.109 C 
BRANCH  19  20
ATOM     20  C   UNL     1      -0.199  -8.514  -5.640  0.00  0.00    +0.054 C 
BRANCH  20  21
ATOM     21  C   UNL     1      -0.428 -10.002  -5.692  0.00  0.00    -0.046 A 
ATOM     22  C   UNL     1       0.641 -10.860  -5.873  0.00  0.00    +0.005 A 
ATOM     23  C   UNL     1       0.432 -12.226  -5.917  0.00  0.00    +0.029 A 
ATOM     24  C   UNL     1      -0.847 -12.733  -5.789  0.00  0.00    +0.105 A 
ATOM     25  C   UNL     1      -1.917 -11.876  -5.614  0.00  0.00    +0.029 A 
ATOM     26  C   UNL     1      -1.707 -10.510  -5.566  0.00  0.00    +0.005 A 
BRANCH  24  27
ATOM     27  S   UNL     1      -1.115 -14.474  -5.850  0.00  0.00    +0.056 S 
ATOM     28  O   UNL     1       0.112 -15.086  -5.476  0.00  0.00    -0.153 OA
ATOM     29  O   UNL     1      -2.332 -14.722  -5.160  0.00  0.00    -0.153 OA
BRANCH  27  30
ATOM     30  N   UNL     1      -1.379 -14.874  -7.435  0.00  0.00    -0.204 NA
ATOM     31  H   UNL     1      -1.551 -15.957  -7.516  0.00  0.00    +0.144 HD
ATOM     32  H   UNL     1      -0.500 -14.596  -8.035  0.00  0.00    +0.144 HD
ENDBRANCH  27  30
ENDBRANCH  24  27
ENDBRANCH  20  21
ENDBRANCH  19  20
ENDBRANCH   3  19
TORSDOF 11
