REMARK  Name = ZINC09354281
REMARK  16 active torsions:
REMARK  status: ('A' for Active; 'I' for Inactive)
REMARK    1  A    between atoms: C_1  and  C_2
REMARK    2  A    between atoms: C_2  and  N_73
REMARK    3  A    between atoms: C_3  and  C_4
REMARK    4  A    between atoms: C_3  and  N_73
REMARK    5  A    between atoms: C_5  and  C_6
REMARK    6  A    between atoms: C_5  and  N_73
REMARK    7  A    between atoms: C_6  and  C_7
REMARK    8  A    between atoms: C_7  and  N_8
REMARK    9  A    between atoms: C_9  and  C_29
REMARK   10  A    between atoms: C_12  and  C_13
REMARK   11  A    between atoms: C_12  and  O_24
REMARK   12  A    between atoms: C_20  and  C_23
REMARK   13  A    between atoms: C_32  and  O_37
REMARK   14  A    between atoms: C_33  and  O_35
REMARK   15  A    between atoms: O_35  and  C_36
REMARK   16  A    between atoms: O_37  and  C_38
REMARK                            x       y       z     vdW  Elec       q    Type
REMARK                         _______ _______ _______ _____ _____    ______ ____
ROOT
ATOM      1  N   UNL     1      -0.185   0.776  -0.374  0.00  0.00    -0.284 N 
ATOM      2  C   UNL     1       1.197   1.224  -0.183  0.00  0.00    +0.145 C 
ATOM      3  C   UNL     1       2.032  -0.021   0.011  0.00  0.00    +0.071 C 
ATOM      4  C   UNL     1       3.396  -0.081   0.225  0.00  0.00    +0.133 C 
ATOM      5  C   UNL     1       1.144  -1.104  -0.071  0.00  0.00    +0.249 C 
ATOM      6  O   UNL     1       1.440  -2.280   0.035  0.00  0.00    -0.282 OA
ATOM      7  C   UNL     1      -0.223  -0.566  -0.311  0.00  0.00    +0.288 C 
ATOM      8  O   UNL     1      -1.224  -1.241  -0.431  0.00  0.00    -0.266 OA
ENDROOT
BRANCH   4   9
ATOM      9  C   UNL     1       4.039  -1.371   0.515  0.00  0.00    +0.017 A 
ATOM     10  C   UNL     1       5.193  -1.757  -0.179  0.00  0.00    +0.015 A 
ATOM     11  C   UNL     1       5.790  -2.964   0.092  0.00  0.00    +0.046 A 
ATOM     12  C   UNL     1       5.255  -3.818   1.059  0.00  0.00    +0.124 A 
ATOM     13  C   UNL     1       4.111  -3.427   1.750  0.00  0.00    -0.002 A 
ATOM     14  C   UNL     1       3.506  -2.223   1.490  0.00  0.00    +0.019 A 
ATOM     15  C   UNL     1       3.783  -4.539   2.728  0.00  0.00    +0.083 C 
ATOM     16  C   UNL     1       5.100  -5.350   2.743  0.00  0.00    +0.175 C 
ATOM     17  O   UNL     1       5.676  -5.047   1.461  0.00  0.00    -0.488 OA
ATOM     18  C   UNL     1       6.016  -4.876   3.874  0.00  0.00    +0.052 C 
ENDBRANCH   4   9
BRANCH   2  19
ATOM     19  C   UNL     1       1.290   2.103   1.038  0.00  0.00    -0.019 A 
ATOM     20  C   UNL     1       0.573   1.782   2.175  0.00  0.00    +0.009 A 
ATOM     21  C   UNL     1       0.656   2.585   3.297  0.00  0.00    +0.050 A 
ATOM     22  C   UNL     1       1.459   3.714   3.284  0.00  0.00    +0.162 A 
ATOM     23  C   UNL     1       2.181   4.037   2.139  0.00  0.00    +0.162 A 
ATOM     24  C   UNL     1       2.098   3.225   1.019  0.00  0.00    +0.055 A 
BRANCH  23  25
ATOM     25  O   UNL     1       2.971   5.144   2.120  0.00  0.00    -0.491 OA
ATOM     26  C   UNL     1       3.683   5.412   0.911  0.00  0.00    +0.277 C 
ENDBRANCH  23  25
BRANCH  22  27
ATOM     27  O   UNL     1       1.542   4.505   4.387  0.00  0.00    -0.491 OA
ATOM     28  C   UNL     1       0.773   4.113   5.526  0.00  0.00    +0.277 C 
ENDBRANCH  22  27
ENDBRANCH   2  19
BRANCH   4  29
ATOM     29  O   UNL     1       4.138   1.046   0.169  0.00  0.00    -0.506 OA
ATOM     30  H   UNL     1       5.096   0.823   0.346  0.00  0.00    +0.292 HD
ENDBRANCH   4  29
BRANCH   1  31
ATOM     31  C   UNL     1      -1.339   1.649  -0.604  0.00  0.00    +0.107 C 
BRANCH  31  32
ATOM     32  C   UNL     1      -1.968   2.027   0.739  0.00  0.00    +0.000 C 
BRANCH  32  33
ATOM     33  C   UNL     1      -3.172   2.939   0.500  0.00  0.00    -0.077 C 
BRANCH  33  34
ATOM     34  N   UNL     1      -3.755   3.312   1.806  0.00  0.00    +0.379 N 
ATOM     35  H   UNL     1      -3.011   3.679   2.411  0.00  0.00    -0.082 HD
BRANCH  34  37
ATOM     36  C   UNL     1      -4.080   5.701   1.403  0.00  0.00    -0.017 C 
ATOM     37  C   UNL     1      -4.782   4.359   1.620  0.00  0.00    -0.082 C 
ENDBRANCH  34  37
BRANCH  34  38
ATOM     38  C   UNL     1      -4.355   2.124   2.449  0.00  0.00    -0.082 C 
ATOM     39  C   UNL     1      -4.606   2.439   3.925  0.00  0.00    -0.017 C 
ENDBRANCH  34  38
ENDBRANCH  33  34
ENDBRANCH  32  33
ENDBRANCH  31  32
ENDBRANCH   1  31
TORSDOF 11
