REMARK  Name = ZINC66423875
REMARK  7 active torsions:
REMARK  status: ('A' for Active; 'I' for Inactive)
REMARK    1  A    between atoms: C_1  and  C_2
REMARK    2  A    between atoms: C_8  and  N_10
REMARK    3  A    between atoms: N_10  and  C_11
REMARK    4  A    between atoms: C_12  and  C_14
REMARK    5  A    between atoms: C_14  and  N_15
REMARK    6  A    between atoms: C_20  and  C_21
REMARK    7  A    between atoms: C_20  and  C_22
REMARK                            x       y       z     vdW  Elec       q    Type
REMARK                         _______ _______ _______ _____ _____    ______ ____
ROOT
ATOM      1  N   UNL     1       2.158   0.156   1.096  0.00  0.00    -0.300 N 
ATOM      2  C   UNL     1       2.985  -0.070  -0.092  0.00  0.00    +0.132 C 
ATOM      3  C   UNL     1       2.694   0.732   2.191  0.00  0.00    +0.230 C 
ATOM      4  O   UNL     1       2.002   0.946   3.164  0.00  0.00    -0.274 OA
ENDROOT
BRANCH   1  11
ATOM      5  C   UNL     1       0.157   1.838   2.344  0.00  0.00    +0.009 C 
ATOM      6  C   UNL     1      -0.136   1.006   1.094  0.00  0.00    +0.006 C 
ATOM      7  C   UNL     1       0.160   1.839  -0.154  0.00  0.00    +0.005 C 
ATOM      8  C   UNL     1      -0.133   1.007  -1.405  0.00  0.00    +0.000 C 
ATOM      9  C   UNL     1       0.751  -0.242  -1.404  0.00  0.00    +0.002 C 
ATOM     10  C   UNL     1       0.456  -1.076  -0.155  0.00  0.00    +0.023 C 
ATOM     11  C   UNL     1       0.748  -0.243   1.095  0.00  0.00    +0.079 C 
ENDBRANCH   1  11
BRANCH   3  12
ATOM     12  C   UNL     1       4.152   1.110   2.205  0.00  0.00    +0.181 C 
BRANCH  12  13
ATOM     13  N   UNL     1       4.488   1.716   3.501  0.00  0.00    -0.284 NA
ATOM     14  C   UNL     1       3.799   3.002   3.676  0.00  0.00    +0.113 C 
ATOM     15  C   UNL     1       4.129   3.568   5.059  0.00  0.00    +0.175 C 
ATOM     16  O   UNL     1       5.547   3.692   5.192  0.00  0.00    -0.377 OA
ATOM     17  C   UNL     1       6.251   2.458   5.029  0.00  0.00    +0.181 C 
ATOM     18  C   UNL     1       5.942   1.880   3.644  0.00  0.00    +0.040 C 
ATOM     19  C   UNL     1       6.628   0.521   3.494  0.00  0.00    +0.030 C 
ATOM     20  C   UNL     1       6.457   2.836   2.566  0.00  0.00    +0.030 C 
ENDBRANCH  12  13
ENDBRANCH   3  12
TORSDOF 3
