REMARK  Name = ZINC13096611
REMARK  9 active torsions:
REMARK  status: ('A' for Active; 'I' for Inactive)
REMARK    1  A    between atoms: C_1  and  N_59
REMARK    2  A    between atoms: C_2  and  C_22
REMARK    3  A    between atoms: C_7  and  C_9
REMARK    4  A    between atoms: C_9  and  C_10
REMARK    5  A    between atoms: C_10  and  C_16
REMARK    6  A    between atoms: N_11  and  N_12
REMARK    7  A    between atoms: C_22  and  C_23
REMARK    8  A    between atoms: C_23  and  C_25
REMARK    9  A    between atoms: C_23  and  O_31
REMARK                            x       y       z     vdW  Elec       q    Type
REMARK                         _______ _______ _______ _____ _____    ______ ____
ROOT
ATOM      1  C   UNL     1       2.606   3.833  -2.376  0.00  0.00    -0.095 C 
ATOM      2  C   UNL     1       1.970   5.798  -3.639  0.00  0.00    -0.066 C 
ATOM      3  C   UNL     1       2.199   7.304  -3.777  0.00  0.00    -0.015 C 
ATOM      4  C   UNL     1       1.700   8.010  -2.513  0.00  0.00    -0.003 C 
ATOM      5  C   UNL     1       2.432   7.436  -1.296  0.00  0.00    -0.015 C 
ATOM      6  C   UNL     1       2.195   5.926  -1.230  0.00  0.00    -0.063 C 
ATOM      7  N   UNL     1       2.719   5.304  -2.464  0.00  0.00    +0.382 N 
ATOM      8  H   UNL     1       3.709   5.556  -2.570  0.00  0.00    -0.081 HD
ENDROOT
BRANCH   6   9
ATOM      9  C   UNL     1       2.941   5.346  -0.026  0.00  0.00    +0.042 C 
BRANCH   9  10
ATOM     10  C   UNL     1       2.537   3.907   0.169  0.00  0.00    +0.065 C 
ATOM     11  N   UNL     1       3.416   2.962   0.033  0.00  0.00    -0.183 NA
BRANCH  11  12
ATOM     12  N   UNL     1       4.766   3.284  -0.157  0.00  0.00    -0.191 N 
ATOM     13  C   UNL     1       5.662   2.309  -0.406  0.00  0.00    +0.317 C 
ATOM     14  O   UNL     1       6.834   2.588  -0.571  0.00  0.00    -0.251 OA
ATOM     15  N   UNL     1       5.260   1.024  -0.474  0.00  0.00    -0.312 N 
ATOM     16  H   UNL     1       5.056   4.208  -0.108  0.00  0.00    +0.179 HD
ATOM     17  H   UNL     1       4.325   0.802  -0.343  0.00  0.00    +0.147 HD
ATOM     18  H   UNL     1       5.905   0.322  -0.654  0.00  0.00    +0.147 HD
ENDBRANCH  11  12
BRANCH  10  19
ATOM     19  C   UNL     1       1.143   3.573   0.514  0.00  0.00    -0.002 A 
ATOM     20  C   UNL     1       0.765   2.240   0.696  0.00  0.00    +0.010 A 
ATOM     21  C   UNL     1      -0.541   1.935   1.020  0.00  0.00    +0.001 A 
ATOM     22  C   UNL     1      -1.477   2.945   1.159  0.00  0.00    +0.000 A 
ATOM     23  C   UNL     1      -1.108   4.267   0.986  0.00  0.00    +0.001 A 
ATOM     24  C   UNL     1       0.194   4.587   0.662  0.00  0.00    +0.010 A 
ENDBRANCH  10  19
ENDBRANCH   9  10
ENDBRANCH   6   9
BRANCH   2  25
ATOM     25  C   UNL     1       0.473   5.523  -3.476  0.00  0.00    +0.021 C 
BRANCH  25  26
ATOM     26  C   UNL     1      -0.257   5.893  -4.769  0.00  0.00    +0.143 C 
BRANCH  26  27
ATOM     27  C   UNL     1      -1.742   5.727  -4.572  0.00  0.00    -0.019 A 
ATOM     28  C   UNL     1      -2.314   4.471  -4.656  0.00  0.00    +0.006 A 
ATOM     29  C   UNL     1      -3.675   4.318  -4.470  0.00  0.00    +0.000 A 
ATOM     30  C   UNL     1      -4.466   5.422  -4.212  0.00  0.00    +0.000 A 
ATOM     31  C   UNL     1      -3.895   6.678  -4.133  0.00  0.00    +0.000 A 
ATOM     32  C   UNL     1      -2.533   6.831  -4.313  0.00  0.00    +0.006 A 
ENDBRANCH  26  27
BRANCH  26  33
ATOM     33  O   UNL     1       0.182   5.038  -5.826  0.00  0.00    -0.387 OA
ATOM     34  H   UNL     1      -0.040   4.106  -5.696  0.00  0.00    +0.210 HD
ENDBRANCH  26  33
ENDBRANCH  25  26
ENDBRANCH   2  25
TORSDOF 8
