REMARK  Name = ZINC03087327
REMARK  8 active torsions:
REMARK  status: ('A' for Active; 'I' for Inactive)
REMARK    1  A    between atoms: C_1  and  C_2
REMARK    2  A    between atoms: C_2  and  C_3
REMARK    3  A    between atoms: C_2  and  C_4
REMARK    4  A    between atoms: C_2  and  C_5
REMARK    5  A    between atoms: C_8  and  C_11
REMARK    6  A    between atoms: C_15  and  N_20
REMARK    7  A    between atoms: C_21  and  C_22
REMARK    8  A    between atoms: C_27  and  O_28
REMARK                            x       y       z     vdW  Elec       q    Type
REMARK                         _______ _______ _______ _____ _____    ______ ____
ROOT
ATOM      1  C   UNL     1      -2.503   1.007   0.019  0.00  0.00    +0.228 A 
ATOM      2  N   UNL     1      -3.694   1.549   0.033  0.00  0.00    -0.209 NA
ATOM      3  C   UNL     1      -4.624   0.560   0.027  0.00  0.00    +0.112 A 
ATOM      4  C   UNL     1      -6.019   0.552   0.034  0.00  0.00    +0.059 A 
ATOM      5  C   UNL     1      -6.700  -0.661   0.030  0.00  0.00    +0.066 A 
ATOM      6  C   UNL     1      -5.986  -1.867   0.020  0.00  0.00    +0.031 A 
ATOM      7  C   UNL     1      -4.610  -1.860   0.014  0.00  0.00    +0.050 A 
ATOM      8  C   UNL     1      -3.919  -0.656   0.017  0.00  0.00    +0.156 A 
ATOM      9  O   UNL     1      -2.606  -0.335   0.012  0.00  0.00    -0.435 OA
ENDROOT
BRANCH   1  13
ATOM     10  C   UNL     1       1.155   3.167   0.008  0.00  0.00    -0.042 A 
ATOM     11  C   UNL     1       1.172   1.783   0.000  0.00  0.00    +0.005 A 
ATOM     12  C   UNL     1      -0.013   1.076   0.008  0.00  0.00    +0.013 A 
ATOM     13  C   UNL     1      -1.230   1.759   0.017  0.00  0.00    +0.037 A 
ATOM     14  C   UNL     1      -1.240   3.155   0.031  0.00  0.00    +0.013 A 
ATOM     15  C   UNL     1      -0.048   3.850   0.023  0.00  0.00    +0.005 A 
BRANCH  10  17
ATOM     16  C   UNL     1       3.245   3.578  -1.261  0.00  0.00    +0.015 C 
ATOM     17  C   UNL     1       2.452   3.933  -0.002  0.00  0.00    -0.013 C 
ATOM     18  C   UNL     1       2.158   5.434   0.009  0.00  0.00    +0.015 C 
ATOM     19  C   UNL     1       3.271   3.565   1.238  0.00  0.00    +0.015 C 
ENDBRANCH  10  17
ENDBRANCH   1  13
BRANCH   5  20
ATOM     20  N   UNL     1      -8.069  -0.677   0.038  0.00  0.00    -0.255 NA
ATOM     21  C   UNL     1      -8.715  -1.478  -0.762  0.00  0.00    +0.123 C 
BRANCH  21  22
ATOM     22  C   UNL     1     -10.186  -1.495  -0.754  0.00  0.00    +0.035 A 
ATOM     23  C   UNL     1     -10.884  -2.348  -1.614  0.00  0.00    +0.027 A 
ATOM     24  C   UNL     1     -12.262  -2.362  -1.598  0.00  0.00    +0.014 A 
ATOM     25  C   UNL     1     -12.960  -1.526  -0.741  0.00  0.00    +0.018 A 
ATOM     26  C   UNL     1     -12.283  -0.674   0.110  0.00  0.00    +0.047 A 
ATOM     27  C   UNL     1     -10.897  -0.650   0.112  0.00  0.00    +0.125 A 
ATOM     28  I   UNL     1     -13.307  -3.647  -2.881  0.00  0.00    -0.044 I 
BRANCH  27  29
ATOM     29  O   UNL     1     -10.231   0.187   0.947  0.00  0.00    -0.506 OA
ATOM     30  H   UNL     1     -10.791   0.848   1.625  0.00  0.00    +0.292 HD
ENDBRANCH  27  29
ENDBRANCH  21  22
ENDBRANCH   5  20
TORSDOF 5
