REMARK  Name = ZINC62806908
REMARK  5 active torsions:
REMARK  status: ('A' for Active; 'I' for Inactive)
REMARK    1  A    between atoms: C_1  and  C_2
REMARK    2  A    between atoms: C_4  and  C_8
REMARK    3  A    between atoms: C_5  and  C_7
REMARK    4  A    between atoms: C_8  and  C_10
REMARK    5  A    between atoms: N_20  and  C_21
REMARK                            x       y       z     vdW  Elec       q    Type
REMARK                         _______ _______ _______ _____ _____    ______ ____
ROOT
ATOM      1  C   UNL     1      -1.805  -3.981  -0.876  0.00  0.00    -0.025 A 
ATOM      2  C   UNL     1      -0.812  -4.528  -1.670  0.00  0.00    +0.007 A 
ATOM      3  C   UNL     1      -1.137  -5.119  -2.876  0.00  0.00    +0.024 A 
ATOM      4  C   UNL     1      -2.461  -5.163  -3.291  0.00  0.00    +0.039 A 
ATOM      5  C   UNL     1      -3.455  -4.613  -2.492  0.00  0.00    -0.025 A 
ATOM      6  C   UNL     1      -3.125  -4.029  -1.285  0.00  0.00    +0.011 A 
ATOM      7  C   UNL     1      -4.891  -4.662  -2.942  0.00  0.00    +0.046 C 
ATOM      8  C   UNL     1      -4.954  -4.539  -4.465  0.00  0.00    +0.101 C 
ATOM      9  C   UNL     1      -3.978  -5.494  -5.097  0.00  0.00    +0.220 C 
ATOM     10  O   UNL     1      -4.259  -6.032  -6.147  0.00  0.00    -0.275 OA
ATOM     11  N   UNL     1      -2.796  -5.759  -4.510  0.00  0.00    -0.274 N 
ATOM     12  C   UNL     1      -1.854  -6.678  -5.153  0.00  0.00    +0.138 C 
ENDROOT
BRANCH   1  13
ATOM     13  C   UNL     1      -1.447  -3.338   0.439  0.00  0.00    +0.144 C 
ATOM     14 CL   UNL     1      -0.518  -4.509   1.447  0.00  0.00    -0.112 Cl
BRANCH  13  18
ATOM     15  C   UNL     1       2.538  -0.228  -0.187  0.00  0.00    +0.086 C 
ATOM     16  C   UNL     1       1.137  -0.772  -0.083  0.00  0.00    +0.103 A 
ATOM     17  C   UNL     1       0.807  -2.048   0.184  0.00  0.00    +0.050 A 
ATOM     18  C   UNL     1      -0.605  -2.114   0.187  0.00  0.00    +0.015 A 
ATOM     19  C   UNL     1      -1.054  -0.874  -0.080  0.00  0.00    +0.107 A 
ATOM     20  O   UNL     1       0.006  -0.064  -0.237  0.00  0.00    -0.465 OA
ATOM     21  C   UNL     1      -2.500  -0.462  -0.180  0.00  0.00    +0.086 C 
ENDBRANCH  13  18
ENDBRANCH   1  13
TORSDOF 2
