REMARK  Name = ZINC09474744
REMARK  13 active torsions:
REMARK  status: ('A' for Active; 'I' for Inactive)
REMARK    1  A    between atoms: C_1  and  C_2
REMARK    2  A    between atoms: C_2  and  C_3
REMARK    3  A    between atoms: C_3  and  C_5
REMARK    4  A    between atoms: C_3  and  N_6
REMARK    5  A    between atoms: C_7  and  C_9
REMARK    6  A    between atoms: C_9  and  S_10
REMARK    7  A    between atoms: S_10  and  C_11
REMARK    8  A    between atoms: N_20  and  C_21
REMARK    9  A    between atoms: C_21  and  C_22
REMARK   10  A    between atoms: C_22  and  C_23
REMARK   11  A    between atoms: C_23  and  C_24
REMARK   12  A    between atoms: N_26  and  C_27
REMARK   13  A    between atoms: C_27  and  C_28
REMARK                            x       y       z     vdW  Elec       q    Type
REMARK                         _______ _______ _______ _____ _____    ______ ____
ROOT
ATOM      1  C   UNL     1      -6.997   1.099   2.998  0.00  0.00    +0.173 A 
ATOM      2  N   UNL     1      -6.995  -0.024   2.331  0.00  0.00    -0.222 NA
ATOM      3  C   UNL     1      -8.110  -0.805   2.227  0.00  0.00    +0.086 A 
ATOM      4  C   UNL     1      -8.260  -2.025   1.550  0.00  0.00    +0.036 A 
ATOM      5  C   UNL     1      -9.450  -2.662   1.554  0.00  0.00    +0.048 A 
ATOM      6  S   UNL     1     -10.476  -1.575   2.530  0.00  0.00    -0.090 S 
ATOM      7  C   UNL     1      -9.262  -0.331   2.879  0.00  0.00    +0.102 A 
ATOM      8  C   UNL     1      -9.257   0.868   3.589  0.00  0.00    +0.269 A 
ATOM      9  O   UNL     1     -10.263   1.267   4.151  0.00  0.00    -0.266 OA
ATOM     10  N   UNL     1      -8.103   1.575   3.643  0.00  0.00    -0.287 N 
ENDROOT
BRANCH   1  11
ATOM     11  S   UNL     1      -5.507   2.036   3.075  0.00  0.00    -0.078 S 
BRANCH  11  12
ATOM     12  C   UNL     1      -4.417   0.975   2.095  0.00  0.00    +0.173 C 
BRANCH  12  14
ATOM     13  N   UNL     1      -2.062   0.977   1.338  0.00  0.00    -0.312 N 
ATOM     14  C   UNL     1      -3.046   1.595   2.021  0.00  0.00    +0.224 C 
ATOM     15  O   UNL     1      -2.827   2.650   2.577  0.00  0.00    -0.275 OA
ATOM     16  H   UNL     1      -2.237   0.133   0.893  0.00  0.00    +0.149 HD
BRANCH  13  17
ATOM     17  C   UNL     1      -0.729   1.579   1.267  0.00  0.00    +0.070 C 
ATOM     18  C   UNL     1       0.079   1.179   2.503  0.00  0.00    +0.028 C 
BRANCH  17  20
ATOM     19  C   UNL     1      -0.753   1.593  -1.232  0.00  0.00    +0.005 C 
ATOM     20  C   UNL     1      -0.013   1.086   0.008  0.00  0.00    +0.018 C 
ENDBRANCH  17  20
ENDBRANCH  13  17
ENDBRANCH  12  14
ENDBRANCH  11  12
ENDBRANCH   1  11
BRANCH  10  21
ATOM     21  C   UNL     1      -8.043   2.840   4.381  0.00  0.00    +0.128 C 
BRANCH  21  22
ATOM     22  C   UNL     1      -8.409   3.994   3.446  0.00  0.00    +0.031 C 
BRANCH  22  23
ATOM     23  C   UNL     1      -8.346   5.314   4.217  0.00  0.00    +0.097 C 
BRANCH  23  24
ATOM     24  C   UNL     1      -8.708   6.451   3.296  0.00  0.00    +0.213 C 
ATOM     25  O   UNL     1      -8.988   6.227   2.138  0.00  0.00    -0.276 OA
ATOM     26  N   UNL     1      -8.720   7.716   3.760  0.00  0.00    -0.311 N 
ATOM     27  H   UNL     1      -8.495   7.895   4.687  0.00  0.00    +0.149 HD
BRANCH  26  28
ATOM     28  C   UNL     1      -9.071   8.822   2.865  0.00  0.00    +0.139 C 
BRANCH  28  29
ATOM     29  C   UNL     1      -9.009  10.122   3.624  0.00  0.00    -0.027 A 
ATOM     30  C   UNL     1     -10.135  10.598   4.269  0.00  0.00    +0.009 A 
ATOM     31  C   UNL     1     -10.082  11.788   4.972  0.00  0.00    +0.050 A 
ATOM     32  C   UNL     1      -8.901  12.512   5.021  0.00  0.00    +0.166 A 
ATOM     33  C   UNL     1      -7.768  12.034   4.367  0.00  0.00    +0.167 A 
ATOM     34  C   UNL     1      -7.827  10.838   3.670  0.00  0.00    +0.054 A 
ATOM     35  O   UNL     1      -6.747  12.918   4.563  0.00  0.00    -0.453 OA
ATOM     36  C   UNL     1      -7.373  14.139   4.999  0.00  0.00    +0.466 C 
ATOM     37  O   UNL     1      -8.589  13.694   5.627  0.00  0.00    -0.453 OA
ENDBRANCH  28  29
ENDBRANCH  26  28
ENDBRANCH  23  24
ENDBRANCH  22  23
ENDBRANCH  21  22
ENDBRANCH  10  21
TORSDOF 11
