REMARK  Name = ZINC39082208
REMARK  2 active torsions:
REMARK  status: ('A' for Active; 'I' for Inactive)
REMARK    1  A    between atoms: C_4  and  N_11
REMARK    2  A    between atoms: C_5  and  C_9
REMARK                            x       y       z     vdW  Elec       q    Type
REMARK                         _______ _______ _______ _____ _____    ______ ____
ROOT
ATOM      1  C   UNL     1      -0.018   1.463   0.010  0.00  0.00    +0.163 C 
ATOM      2  C   UNL     1       1.468   1.857  -0.002  0.00  0.00    +0.137 C 
ATOM      3  N   UNL     1       2.188   0.554  -0.016  0.00  0.00    -0.265 N 
ATOM      4  C   UNL     1       3.498   0.153  -0.031  0.00  0.00    +0.114 C 
ATOM      5  C   UNL     1       3.809  -1.175  -0.041  0.00  0.00    +0.127 C 
ATOM      6  S   UNL     1       2.192  -1.931  -0.030  0.00  0.00    -0.040 S 
ATOM      7  C   UNL     1       1.225  -0.430  -0.012  0.00  0.00    +0.163 C 
ATOM      8  N   UNL     1       0.002  -0.004   0.002  0.00  0.00    -0.261 NA
ENDROOT
BRANCH   4   9
ATOM      9  N   UNL     1       4.505   1.095  -0.036  0.00  0.00    -0.345 N 
ATOM     10  H   UNL     1       4.286   2.040  -0.029  0.00  0.00    +0.144 HD
ATOM     11  H   UNL     1       5.433   0.813  -0.047  0.00  0.00    +0.144 HD
ENDBRANCH   4   9
BRANCH   5  12
ATOM     12  C   UNL     1       5.097  -1.800  -0.058  0.00  0.00    +0.110 C 
ATOM     13  N   UNL     1       6.119  -2.296  -0.071  0.00  0.00    -0.190 NA
ENDBRANCH   5  12
TORSDOF 2
