REMARK  Name = ZINC06193767
REMARK  9 active torsions:
REMARK  status: ('A' for Active; 'I' for Inactive)
REMARK    1  A    between atoms: C_1  and  C_2
REMARK    2  A    between atoms: C_2  and  N_63
REMARK    3  A    between atoms: C_3  and  C_4
REMARK    4  A    between atoms: C_3  and  N_63
REMARK    5  A    between atoms: C_10  and  C_12
REMARK    6  A    between atoms: C_10  and  C_27
REMARK    7  A    between atoms: C_10  and  N_63
REMARK    8  A    between atoms: N_31  and  C_32
REMARK    9  A    between atoms: C_32  and  C_33
REMARK                            x       y       z     vdW  Elec       q    Type
REMARK                         _______ _______ _______ _____ _____    ______ ____
ROOT
ATOM      1  C   UNL     1       2.812  -0.908  -2.255  0.00  0.00    +0.039 C 
ENDROOT
BRANCH   1   2
ATOM      2  C   UNL     1       3.050  -1.059  -3.736  0.00  0.00    +0.011 A 
ATOM      3  C   UNL     1       2.932  -2.279  -4.318  0.00  0.00    +0.017 A 
ATOM      4  C   UNL     1       3.168  -2.393  -5.757  0.00  0.00    +0.002 A 
ATOM      5  C   UNL     1       3.059  -3.626  -6.412  0.00  0.00    +0.059 A 
ATOM      6  C   UNL     1       3.287  -3.702  -7.768  0.00  0.00    +0.167 A 
ATOM      7  C   UNL     1       3.626  -2.552  -8.492  0.00  0.00    +0.168 A 
ATOM      8  C   UNL     1       3.736  -1.330  -7.854  0.00  0.00    +0.075 A 
ATOM      9  C   UNL     1       3.509  -1.237  -6.486  0.00  0.00    +0.053 A 
ATOM     10  N   UNL     1       3.613  -0.025  -5.833  0.00  0.00    -0.322 N 
ATOM     11  H   UNL     1       3.859   0.794  -6.351  0.00  0.00    +0.169 HD
ATOM     12  C   UNL     1       3.387   0.069  -4.511  0.00  0.00    +0.251 A 
ATOM     13  O   UNL     1       3.482   1.157  -3.968  0.00  0.00    -0.268 OA
ATOM     14  O   UNL     1       3.795  -2.899  -9.800  0.00  0.00    -0.453 OA
ATOM     15  C   UNL     1       3.158  -4.181  -9.945  0.00  0.00    +0.466 C 
ATOM     16  O   UNL     1       3.246  -4.760  -8.630  0.00  0.00    -0.453 OA
ENDBRANCH   1   2
BRANCH   1  17
ATOM     17  C   UNL     1       1.620  -0.015  -2.026  0.00  0.00    +0.143 A 
ATOM     18  N   UNL     1       1.523   1.256  -2.335  0.00  0.00    -0.115 NA
ATOM     19  N   UNL     1       0.352   1.662  -1.983  0.00  0.00    -0.023 NA
ATOM     20  N   UNL     1      -0.297   0.687  -1.451  0.00  0.00    -0.044 NA
ATOM     21  N   UNL     1       0.451  -0.365  -1.459  0.00  0.00    -0.226 N 
BRANCH  21  22
ATOM     22  C   UNL     1       0.095  -1.690  -0.946  0.00  0.00    +0.182 C 
BRANCH  22  23
ATOM     23  C   UNL     1       0.334  -1.734   0.541  0.00  0.00    -0.026 A 
ATOM     24  C   UNL     1       1.562  -2.135   1.032  0.00  0.00    +0.008 A 
ATOM     25  C   UNL     1       1.784  -2.171   2.395  0.00  0.00    +0.038 A 
ATOM     26  C   UNL     1       0.772  -1.816   3.271  0.00  0.00    +0.123 A 
ATOM     27  C   UNL     1      -0.460  -1.420   2.778  0.00  0.00    +0.038 A 
ATOM     28  C   UNL     1      -0.678  -1.379   1.414  0.00  0.00    +0.008 A 
ATOM     29  F   UNL     1       0.986  -1.856   4.604  0.00  0.00    -0.205 F 
ENDBRANCH  22  23
ENDBRANCH  21  22
ENDBRANCH   1  17
BRANCH   1  30
ATOM     30  N   UNL     1       4.003  -0.286  -1.639  0.00  0.00    +0.392 N 
ATOM     31  H   UNL     1       4.166   0.629  -2.077  0.00  0.00    -0.080 HD
BRANCH  30  33
ATOM     32  C   UNL     1       5.748  -0.852  -3.254  0.00  0.00    -0.017 C 
ATOM     33  C   UNL     1       5.189  -1.140  -1.859  0.00  0.00    -0.080 C 
ENDBRANCH  30  33
BRANCH  30  34
ATOM     34  C   UNL     1       3.781  -0.093  -0.191  0.00  0.00    -0.042 C 
BRANCH  34  35
ATOM     35  C   UNL     1       3.062   1.215   0.015  0.00  0.00    -0.064 A 
ATOM     36  C   UNL     1       1.696   1.227   0.226  0.00  0.00    +0.002 A 
ATOM     37  C   UNL     1       1.036   2.427   0.414  0.00  0.00    +0.000 A 
ATOM     38  C   UNL     1       1.742   3.615   0.391  0.00  0.00    +0.000 A 
ATOM     39  C   UNL     1       3.108   3.603   0.181  0.00  0.00    +0.000 A 
ATOM     40  C   UNL     1       3.768   2.403  -0.008  0.00  0.00    +0.002 A 
ENDBRANCH  34  35
ENDBRANCH  30  34
ENDBRANCH   1  30
TORSDOF 8
