REMARK  Name = ZINC36304238
REMARK  17 active torsions:
REMARK  status: ('A' for Active; 'I' for Inactive)
REMARK    1  A    between atoms: C_1  and  C_2
REMARK    2  A    between atoms: C_3  and  C_22
REMARK    3  A    between atoms: C_4  and  O_13
REMARK    4  A    between atoms: N_5  and  C_7
REMARK    5  A    between atoms: O_13  and  C_14
REMARK    6  A    between atoms: C_22  and  N_23
REMARK    7  A    between atoms: N_23  and  C_24
REMARK    8  A    between atoms: N_23  and  C_31
REMARK    9  A    between atoms: C_24  and  C_25
REMARK   10  A    between atoms: C_31  and  C_32
REMARK   11  A    between atoms: C_32  and  C_34
REMARK   12  A    between atoms: C_32  and  O_40
REMARK   13  A    between atoms: C_34  and  O_35
REMARK   14  A    between atoms: O_35  and  C_36
REMARK   15  A    between atoms: C_36  and  C_37
REMARK   16  A    between atoms: C_36  and  C_38
REMARK   17  A    between atoms: C_36  and  C_39
REMARK                            x       y       z     vdW  Elec       q    Type
REMARK                         _______ _______ _______ _____ _____    ______ ____
ROOT
ATOM      1  C   UNL     1      -0.405  -3.281  -1.219  0.00  0.00    +0.068 C 
ATOM      2  C   UNL     1      -1.275  -2.539  -2.199  0.00  0.00    +0.065 A 
ATOM      3  C   UNL     1      -1.162  -1.185  -2.532  0.00  0.00    +0.021 A 
ATOM      4  C   UNL     1      -2.125  -0.898  -3.448  0.00  0.00    +0.225 A 
ATOM      5  N   UNL     1      -2.821  -2.043  -3.681  0.00  0.00    -0.200 N 
ATOM      6  N   UNL     1      -2.262  -3.053  -2.888  0.00  0.00    -0.168 NA
ENDROOT
BRANCH   5   7
ATOM      7  C   UNL     1      -3.903  -2.187  -4.561  0.00  0.00    +0.069 A 
ATOM      8  C   UNL     1      -4.897  -1.220  -4.605  0.00  0.00    +0.028 A 
ATOM      9  C   UNL     1      -5.962  -1.364  -5.474  0.00  0.00    +0.002 A 
ATOM     10  C   UNL     1      -6.037  -2.471  -6.299  0.00  0.00    +0.000 A 
ATOM     11  C   UNL     1      -5.047  -3.437  -6.258  0.00  0.00    +0.002 A 
ATOM     12  C   UNL     1      -3.978  -3.295  -5.395  0.00  0.00    +0.028 A 
ENDBRANCH   5   7
BRANCH   4  13
ATOM     13  O   UNL     1      -2.350   0.310  -4.024  0.00  0.00    -0.435 OA
BRANCH  13  14
ATOM     14  C   UNL     1      -3.155   1.189  -3.370  0.00  0.00    +0.166 A 
ATOM     15  C   UNL     1      -3.630   0.885  -2.103  0.00  0.00    +0.052 A 
ATOM     16  C   UNL     1      -4.449   1.779  -1.440  0.00  0.00    +0.042 A 
ATOM     17  C   UNL     1      -4.795   2.979  -2.038  0.00  0.00    +0.126 A 
ATOM     18  C   UNL     1      -4.323   3.285  -3.303  0.00  0.00    +0.080 A 
ATOM     19  C   UNL     1      -3.499   2.395  -3.968  0.00  0.00    +0.168 A 
ATOM     20  F   UNL     1      -3.033   2.696  -5.200  0.00  0.00    -0.202 F 
ATOM     21  F   UNL     1      -5.596   3.851  -1.388  0.00  0.00    -0.205 F 
ENDBRANCH  13  14
ENDBRANCH   4  13
BRANCH   3  22
ATOM     22  C   UNL     1      -0.151  -0.217  -1.974  0.00  0.00    -0.036 C 
BRANCH  22  23
ATOM     23  N   UNL     1       1.097  -0.313  -2.742  0.00  0.00    +0.386 N 
ATOM     24  H   UNL     1       1.415  -1.270  -2.747  0.00  0.00    -0.081 HD
BRANCH  23  25
ATOM     25  C   UNL     1       2.120   0.541  -2.125  0.00  0.00    -0.046 C 
BRANCH  25  26
ATOM     26  C   UNL     1       1.564   1.955  -1.947  0.00  0.00    +0.102 C 
ATOM     27  C   UNL     1       2.571   2.834  -1.163  0.00  0.00    +0.032 C 
ATOM     28  C   UNL     1       2.164   4.252  -1.648  0.00  0.00    +0.030 C 
ATOM     29  C   UNL     1       1.740   3.990  -3.109  0.00  0.00    +0.160 C 
ATOM     30  O   UNL     1       1.417   2.597  -3.223  0.00  0.00    -0.378 OA
ENDBRANCH  25  26
ENDBRANCH  23  25
BRANCH  23  31
ATOM     31  C   UNL     1       0.857   0.130  -4.122  0.00  0.00    -0.044 C 
BRANCH  31  32
ATOM     32  C   UNL     1       2.094  -0.162  -4.974  0.00  0.00    +0.124 C 
BRANCH  32  33
ATOM     33  O   UNL     1       3.149   0.727  -4.602  0.00  0.00    -0.391 OA
ATOM     34  H   UNL     1       2.935   1.663  -4.721  0.00  0.00    +0.210 HD
ENDBRANCH  32  33
BRANCH  32  35
ATOM     35  C   UNL     1       1.755   0.039  -6.452  0.00  0.00    +0.189 C 
BRANCH  35  36
ATOM     36  O   UNL     1       2.874  -0.345  -7.254  0.00  0.00    -0.372 OA
BRANCH  36  37
ATOM     37  C   UNL     1       2.661  -0.195  -8.659  0.00  0.00    +0.061 C 
ATOM     38  C   UNL     1       2.361   1.271  -8.976  0.00  0.00    +0.041 C 
ATOM     39  C   UNL     1       3.917  -0.633  -9.415  0.00  0.00    +0.041 C 
ATOM     40  C   UNL     1       1.477  -1.063  -9.091  0.00  0.00    +0.041 C 
ENDBRANCH  36  37
ENDBRANCH  35  36
ENDBRANCH  32  35
ENDBRANCH  31  32
ENDBRANCH  23  31
ENDBRANCH  22  23
ENDBRANCH   3  22
TORSDOF 13
