REMARK  Name = ZINC12641106
REMARK  11 active torsions:
REMARK  status: ('A' for Active; 'I' for Inactive)
REMARK    1  A    between atoms: C_1  and  C_2
REMARK    2  A    between atoms: C_5  and  C_8
REMARK    3  A    between atoms: C_8  and  C_10
REMARK    4  A    between atoms: C_8  and  N_17
REMARK    5  A    between atoms: N_12  and  C_13
REMARK    6  A    between atoms: C_13  and  C_14
REMARK    7  A    between atoms: C_14  and  O_15
REMARK    8  A    between atoms: O_15  and  C_16
REMARK    9  A    between atoms: N_17  and  C_18
REMARK   10  A    between atoms: C_28  and  C_30
REMARK   11  A    between atoms: N_32  and  C_33
REMARK                            x       y       z     vdW  Elec       q    Type
REMARK                         _______ _______ _______ _____ _____    ______ ____
ROOT
ATOM      1  N   UNL     1      -0.711  -4.672   0.982  0.00  0.00    -0.248 N 
ATOM      2  C   UNL     1      -1.836  -5.405   0.865  0.00  0.00    +0.307 C 
ATOM      3  O   UNL     1      -2.165  -5.841  -0.219  0.00  0.00    -0.265 OA
ENDROOT
BRANCH   1   4
ATOM      4  C   UNL     1      -0.384  -4.085   2.209  0.00  0.00    +0.042 A 
ATOM      5  C   UNL     1       0.256  -4.832   3.189  0.00  0.00    +0.027 A 
ATOM      6  C   UNL     1       0.578  -4.252   4.400  0.00  0.00    +0.051 A 
ATOM      7  C   UNL     1       0.263  -2.922   4.642  0.00  0.00    +0.162 A 
ATOM      8  C   UNL     1      -0.376  -2.171   3.662  0.00  0.00    +0.164 A 
ATOM      9  C   UNL     1      -0.695  -2.752   2.445  0.00  0.00    +0.073 A 
ATOM     10  O   UNL     1      -0.685  -0.863   3.879  0.00  0.00    -0.485 OA
ATOM     11  C   UNL     1      -0.682  -0.418   5.239  0.00  0.00    +0.270 C 
ATOM     12  C   UNL     1       0.595  -0.939   5.913  0.00  0.00    +0.270 C 
ATOM     13  O   UNL     1       0.585  -2.369   5.845  0.00  0.00    -0.485 OA
ENDBRANCH   1   4
BRANCH   2  14
ATOM     14  C   UNL     1      -2.677  -5.680   2.067  0.00  0.00    +0.300 C 
ATOM     15  O   UNL     1      -2.332  -5.269   3.156  0.00  0.00    -0.265 OA
ATOM     16  N   UNL     1      -3.820  -6.385   1.944  0.00  0.00    -0.305 N 
ATOM     17  H   UNL     1      -4.095  -6.713   1.074  0.00  0.00    +0.149 HD
BRANCH  16  18
ATOM     18  C   UNL     1      -4.645  -6.654   3.124  0.00  0.00    +0.073 C 
ATOM     19  C   UNL     1      -4.174  -7.953   3.812  0.00  0.00    +0.022 C 
ATOM     20  C   UNL     1      -5.484  -8.619   4.302  0.00  0.00    +0.002 C 
ATOM     21  C   UNL     1      -6.474  -8.315   3.150  0.00  0.00    +0.002 C 
ATOM     22  C   UNL     1      -6.107  -6.885   2.703  0.00  0.00    +0.022 C 
ENDBRANCH  16  18
ENDBRANCH   2  14
BRANCH   1  23
ATOM     23  C   UNL     1       0.170  -4.491  -0.174  0.00  0.00    +0.198 C 
BRANCH  23  28
ATOM     24  C   UNL     1       4.367  -0.754   1.170  0.00  0.00    +0.044 C 
ATOM     25  C   UNL     1       3.273  -1.729   0.820  0.00  0.00    -0.050 A 
ATOM     26  C   UNL     1       2.426  -1.465  -0.240  0.00  0.00    +0.004 A 
ATOM     27  C   UNL     1       1.422  -2.359  -0.562  0.00  0.00    +0.006 A 
ATOM     28  C   UNL     1       1.265  -3.517   0.176  0.00  0.00    -0.018 A 
ATOM     29  C   UNL     1       2.113  -3.782   1.235  0.00  0.00    +0.006 A 
ATOM     30  C   UNL     1       3.119  -2.890   1.554  0.00  0.00    +0.004 A 
ENDBRANCH  23  28
BRANCH  23  31
ATOM     31  C   UNL     1       0.779  -5.816  -0.554  0.00  0.00    +0.239 C 
ATOM     32  O   UNL     1       0.504  -6.814   0.079  0.00  0.00    -0.273 OA
ATOM     33  N   UNL     1       1.629  -5.893  -1.597  0.00  0.00    -0.311 N 
ATOM     34  H   UNL     1       1.848  -5.096  -2.104  0.00  0.00    +0.149 HD
BRANCH  33  35
ATOM     35  C   UNL     1       2.221  -7.182  -1.966  0.00  0.00    +0.132 C 
BRANCH  35  36
ATOM     36  C   UNL     1       3.140  -6.993  -3.174  0.00  0.00    +0.178 C 
BRANCH  36  37
ATOM     37  O   UNL     1       4.243  -6.161  -2.808  0.00  0.00    -0.381 OA
ATOM     38  C   UNL     1       5.168  -5.920  -3.870  0.00  0.00    +0.194 C 
ENDBRANCH  36  37
ENDBRANCH  35  36
ENDBRANCH  33  35
ENDBRANCH  23  31
ENDBRANCH   1  23
TORSDOF 9
