REMARK  Name = ZINC20389498
REMARK  10 active torsions:
REMARK  status: ('A' for Active; 'I' for Inactive)
REMARK    1  A    between atoms: C_1  and  C_2
REMARK    2  A    between atoms: C_5  and  C_9
REMARK    3  A    between atoms: C_7  and  C_8
REMARK    4  A    between atoms: C_10  and  C_35
REMARK    5  A    between atoms: C_19  and  C_22
REMARK    6  A    between atoms: N_24  and  C_25
REMARK    7  A    between atoms: C_25  and  C_26
REMARK    8  A    between atoms: C_26  and  N_27
REMARK    9  A    between atoms: N_27  and  C_28
REMARK   10  A    between atoms: N_27  and  C_29
REMARK                            x       y       z     vdW  Elec       q    Type
REMARK                         _______ _______ _______ _____ _____    ______ ____
ROOT
ATOM      1  C   UNL     1      -0.303   0.145  -0.002  0.00  0.00    +0.126 C 
ATOM      2  C   UNL     1      -0.281   1.498  -0.020  0.00  0.00    +0.018 C 
ATOM      3  C   UNL     1       1.030   2.088   0.164  0.00  0.00    +0.148 C 
ATOM      4  N   UNL     1       2.053   1.297   0.327  0.00  0.00    -0.113 NA
ATOM      5  S   UNL     1       1.414  -0.249   0.257  0.00  0.00    +0.101 S 
ATOM      6  O   UNL     1       1.901  -0.866  -0.927  0.00  0.00    -0.146 OA
ATOM      7  O   UNL     1       1.537  -0.827   1.549  0.00  0.00    -0.146 OA
ATOM      8  N   UNL     1       1.192   3.459   0.167  0.00  0.00    -0.314 N 
ATOM      9  C   UNL     1       2.293   4.081   0.915  0.00  0.00    +0.107 C 
ATOM     10  C   UNL     1       3.082   4.989  -0.041  0.00  0.00    +0.031 C 
ATOM     11  C   UNL     1       2.123   5.987  -0.694  0.00  0.00    +0.078 C 
ATOM     12  C   UNL     1       1.071   5.229  -1.508  0.00  0.00    +0.031 C 
ATOM     13  C   UNL     1       0.263   4.324  -0.573  0.00  0.00    +0.107 C 
ATOM     14  C   UNL     1      -1.524   2.327  -0.215  0.00  0.00    +0.049 C 
ENDROOT
BRANCH   1  19
ATOM     15  C   UNL     1      -4.781  -3.411  -0.605  0.00  0.00    +0.044 C 
ATOM     16  C   UNL     1      -3.607  -2.479  -0.447  0.00  0.00    -0.048 A 
ATOM     17  C   UNL     1      -3.744  -1.319   0.295  0.00  0.00    +0.004 A 
ATOM     18  C   UNL     1      -2.674  -0.464   0.449  0.00  0.00    +0.010 A 
ATOM     19  C   UNL     1      -1.450  -0.765  -0.157  0.00  0.00    +0.002 A 
ATOM     20  C   UNL     1      -1.320  -1.938  -0.905  0.00  0.00    +0.013 A 
ATOM     21  C   UNL     1      -2.398  -2.787  -1.045  0.00  0.00    -0.047 A 
ATOM     22  C   UNL     1      -2.260  -4.052  -1.852  0.00  0.00    +0.044 C 
ENDBRANCH   1  19
BRANCH  11  23
ATOM     23  C   UNL     1       2.898   6.904  -1.605  0.00  0.00    +0.216 C 
ATOM     24  O   UNL     1       2.635   6.947  -2.788  0.00  0.00    -0.276 OA
ATOM     25  N   UNL     1       3.883   7.676  -1.105  0.00  0.00    -0.317 N 
ATOM     26  H   UNL     1       4.121   7.637  -0.032  0.00  0.00    +0.149 HD
BRANCH  25  27
ATOM     27  C   UNL     1       4.636   8.568  -1.991  0.00  0.00    +0.085 C 
BRANCH  27  28
ATOM     28  C   UNL     1       5.687   9.325  -1.177  0.00  0.00    -0.060 C 
BRANCH  28  29
ATOM     29  N   UNL     1       6.443  10.219  -2.065  0.00  0.00    +0.381 N 
ATOM     30  C   UNL     1       7.237   9.451  -3.034  0.00  0.00    -0.096 C 
ATOM     31  H   UNL     1       5.719  10.827  -2.628  0.00  0.00    -0.082 HD
BRANCH  29  32
ATOM     32  C   UNL     1       7.295  11.133  -1.292  0.00  0.00    -0.069 C 
ATOM     33  C   UNL     1       6.423  11.983  -0.366  0.00  0.00    -0.015 C 
ATOM     34  C   UNL     1       7.310  12.934   0.439  0.00  0.00    -0.002 C 
ATOM     35  C   UNL     1       8.079  13.847  -0.518  0.00  0.00    -0.000 C 
ATOM     36  C   UNL     1       8.952  12.997  -1.444  0.00  0.00    -0.002 C 
ATOM     37  C   UNL     1       8.064  12.046  -2.249  0.00  0.00    -0.015 C 
ENDBRANCH  29  32
ENDBRANCH  28  29
ENDBRANCH  27  28
ENDBRANCH  25  27
ENDBRANCH  11  23
TORSDOF 6
