REMARK  Name = ZINC13064546
REMARK  14 active torsions:
REMARK  status: ('A' for Active; 'I' for Inactive)
REMARK    1  A    between atoms: C_1  and  C_2
REMARK    2  A    between atoms: C_2  and  C_3
REMARK    3  A    between atoms: C_3  and  C_5
REMARK    4  A    between atoms: C_3  and  N_71
REMARK    5  A    between atoms: N_9  and  C_10
REMARK    6  A    between atoms: C_10  and  C_11
REMARK    7  A    between atoms: C_10  and  C_12
REMARK    8  A    between atoms: C_10  and  C_13
REMARK    9  A    between atoms: C_14  and  C_15
REMARK   10  A    between atoms: C_14  and  N_71
REMARK   11  A    between atoms: C_24  and  C_25
REMARK   12  A    between atoms: C_24  and  N_71
REMARK   13  A    between atoms: C_29  and  C_38
REMARK   14  A    between atoms: C_30  and  C_37
REMARK                            x       y       z     vdW  Elec       q    Type
REMARK                         _______ _______ _______ _____ _____    ______ ____
ROOT
ATOM      1  N   UNL     1      -4.566   3.383  -1.696  0.00  0.00    +0.392 N 
ATOM      2  H   UNL     1      -3.654   3.501  -2.152  0.00  0.00    -0.080 HD
ENDROOT
BRANCH   1   3
ATOM      3  C   UNL     1      -5.477   2.676  -2.620  0.00  0.00    +0.003 C 
BRANCH   3   4
ATOM      4  C   UNL     1      -4.752   1.491  -3.204  0.00  0.00    +0.139 A 
ATOM      5  N   UNL     1      -4.979   0.227  -2.940  0.00  0.00    -0.115 NA
ATOM      6  N   UNL     1      -4.155  -0.478  -3.635  0.00  0.00    -0.023 NA
ATOM      7  N   UNL     1      -3.408   0.302  -4.335  0.00  0.00    -0.043 NA
ATOM      8  N   UNL     1      -3.749   1.524  -4.101  0.00  0.00    -0.226 N 
BRANCH   8   9
ATOM      9  C   UNL     1      -3.154   2.723  -4.696  0.00  0.00    +0.059 C 
ATOM     10  C   UNL     1      -2.519   3.577  -3.597  0.00  0.00    +0.036 C 
ATOM     11  C   UNL     1      -2.081   2.312  -5.706  0.00  0.00    +0.036 C 
ATOM     12  C   UNL     1      -4.240   3.533  -5.407  0.00  0.00    +0.036 C 
ENDBRANCH   8   9
ENDBRANCH   3   4
BRANCH   3  14
ATOM     13  C   UNL     1      -7.874   3.178  -2.122  0.00  0.00    +0.002 C 
ATOM     14  C   UNL     1      -6.726   2.195  -1.878  0.00  0.00    -0.011 C 
ENDBRANCH   3  14
ENDBRANCH   1   3
BRANCH   1  15
ATOM     15  C   UNL     1      -5.114   4.716  -1.367  0.00  0.00    -0.041 C 
BRANCH  15  16
ATOM     16  C   UNL     1      -5.077   5.575  -2.604  0.00  0.00    -0.060 A 
ATOM     17  C   UNL     1      -3.921   6.258  -2.936  0.00  0.00    +0.005 A 
ATOM     18  C   UNL     1      -3.881   7.043  -4.073  0.00  0.00    +0.050 A 
ATOM     19  C   UNL     1      -5.003   7.157  -4.877  0.00  0.00    +0.166 A 
ATOM     20  C   UNL     1      -6.169   6.473  -4.540  0.00  0.00    +0.166 A 
ATOM     21  C   UNL     1      -6.200   5.683  -3.403  0.00  0.00    +0.051 A 
ATOM     22  O   UNL     1      -7.121   6.745  -5.480  0.00  0.00    -0.453 OA
ATOM     23  C   UNL     1      -6.657   7.921  -6.169  0.00  0.00    +0.466 C 
ATOM     24  O   UNL     1      -5.225   7.857  -6.027  0.00  0.00    -0.453 OA
ENDBRANCH  15  16
ENDBRANCH   1  15
BRANCH   1  25
ATOM     25  C   UNL     1      -4.386   2.592  -0.460  0.00  0.00    -0.036 C 
BRANCH  25  26
ATOM     26  C   UNL     1      -3.743   1.276  -0.813  0.00  0.00    +0.001 A 
ATOM     27  C   UNL     1      -2.468   1.249  -1.276  0.00  0.00    +0.017 A 
ATOM     28  C   UNL     1      -1.874  -0.045  -1.615  0.00  0.00    -0.001 A 
ATOM     29  C   UNL     1      -0.570  -0.134  -2.114  0.00  0.00    +0.013 A 
ATOM     30  C   UNL     1      -0.044  -1.357  -2.421  0.00  0.00    -0.047 A 
ATOM     31  C   UNL     1      -0.793  -2.512  -2.242  0.00  0.00    -0.046 A 
ATOM     32  C   UNL     1      -2.079  -2.449  -1.752  0.00  0.00    +0.030 A 
ATOM     33  C   UNL     1      -2.638  -1.214  -1.437  0.00  0.00    +0.049 A 
ATOM     34  N   UNL     1      -3.924  -1.120  -0.951  0.00  0.00    -0.322 N 
ATOM     35  H   UNL     1      -4.447  -1.927  -0.825  0.00  0.00    +0.169 HD
ATOM     36  C   UNL     1      -4.463   0.073  -0.648  0.00  0.00    +0.251 A 
ATOM     37  O   UNL     1      -5.604   0.119  -0.220  0.00  0.00    -0.268 OA
ATOM     38  C   UNL     1      -0.192  -3.850  -2.588  0.00  0.00    +0.044 C 
ATOM     39  C   UNL     1       1.360  -1.452  -2.959  0.00  0.00    +0.044 C 
ENDBRANCH  25  26
ENDBRANCH   1  25
TORSDOF 8
