REMARK  Name = ZINC35686400
REMARK  16 active torsions:
REMARK  status: ('A' for Active; 'I' for Inactive)
REMARK    1  A    between atoms: C_1  and  C_2
REMARK    2  A    between atoms: C_2  and  C_3
REMARK    3  A    between atoms: C_2  and  C_4
REMARK    4  A    between atoms: C_2  and  C_5
REMARK    5  A    between atoms: C_7  and  C_16
REMARK    6  A    between atoms: C_9  and  C_12
REMARK    7  A    between atoms: C_10  and  O_11
REMARK    8  A    between atoms: C_12  and  C_13
REMARK    9  A    between atoms: C_12  and  C_14
REMARK   10  A    between atoms: C_12  and  C_15
REMARK   11  A    between atoms: N_17  and  N_18
REMARK   12  A    between atoms: C_22  and  C_25
REMARK   13  A    between atoms: C_23  and  N_24
REMARK   14  A    between atoms: C_27  and  C_30
REMARK   15  A    between atoms: C_33  and  O_36
REMARK   16  A    between atoms: O_36  and  C_37
REMARK                            x       y       z     vdW  Elec       q    Type
REMARK                         _______ _______ _______ _____ _____    ______ ____
ROOT
ATOM      1  N   UNL     1       3.465   1.427  -6.291  0.00  0.00    -0.203 N 
ATOM      2  C   UNL     1       3.384   2.892  -6.194  0.00  0.00    +0.213 C 
ATOM      3  C   UNL     1       3.940   3.402  -7.506  0.00  0.00    +0.188 C 
ATOM      4  O   UNL     1       4.059   4.562  -7.851  0.00  0.00    -0.290 OA
ATOM      5  C   UNL     1       4.290   2.258  -8.242  0.00  0.00    +0.088 C 
ATOM      6  C   UNL     1       4.004   1.116  -7.501  0.00  0.00    +0.117 C 
ENDROOT
BRANCH   5   7
ATOM      7  C   UNL     1       4.877   2.266  -9.595  0.00  0.00    +0.115 A 
ATOM      8  N   UNL     1       5.191   3.297 -10.367  0.00  0.00    -0.239 NA
ATOM      9  C   UNL     1       5.716   3.118 -11.568  0.00  0.00    +0.079 A 
ATOM     10  C   UNL     1       5.939   1.847 -12.021  0.00  0.00    +0.075 A 
ATOM     11  S   UNL     1       5.361   0.889 -10.627  0.00  0.00    -0.075 S 
BRANCH   9  12
ATOM     12  C   UNL     1       6.059   4.286 -12.415  0.00  0.00    +0.001 A 
ATOM     13  C   UNL     1       6.607   4.092 -13.682  0.00  0.00    +0.013 A 
ATOM     14  C   UNL     1       6.925   5.180 -14.468  0.00  0.00    +0.046 A 
ATOM     15  C   UNL     1       6.700   6.467 -13.999  0.00  0.00    +0.120 A 
ATOM     16  C   UNL     1       6.156   6.663 -12.737  0.00  0.00    +0.046 A 
ATOM     17  C   UNL     1       5.830   5.579 -11.949  0.00  0.00    +0.013 A 
BRANCH  15  18
ATOM     18  O   UNL     1       7.015   7.537 -14.775  0.00  0.00    -0.495 OA
ATOM     19  C   UNL     1       6.757   8.832 -14.230  0.00  0.00    +0.277 C 
ENDBRANCH  15  18
ENDBRANCH   9  12
ENDBRANCH   5   7
BRANCH   6  20
ATOM     20  N   UNL     1       4.233  -0.160  -7.934  0.00  0.00    -0.345 N 
ATOM     21  H   UNL     1       3.928  -0.914  -7.406  0.00  0.00    +0.144 HD
ATOM     22  H   UNL     1       4.701  -0.311  -8.770  0.00  0.00    +0.144 HD
ENDBRANCH   6  20
BRANCH   1  24
ATOM     23  C   UNL     1       2.467   0.934  -4.234  0.00  0.00    +0.138 C 
ATOM     24  N   UNL     1       3.063   0.513  -5.308  0.00  0.00    -0.186 NA
BRANCH  23  27
ATOM     25  C   UNL     1       0.816  -0.491  -1.183  0.00  0.00    +0.000 A 
ATOM     26  C   UNL     1       1.303   0.417  -2.097  0.00  0.00    +0.017 A 
ATOM     27  C   UNL     1       1.945  -0.034  -3.254  0.00  0.00    -0.005 A 
ATOM     28  C   UNL     1       2.089  -1.406  -3.478  0.00  0.00    +0.017 A 
ATOM     29  C   UNL     1       1.599  -2.307  -2.558  0.00  0.00    +0.000 A 
ATOM     30  C   UNL     1       0.966  -1.854  -1.407  0.00  0.00    +0.124 A 
BRANCH  25  32
ATOM     31  C   UNL     1       0.091   1.523   0.068  0.00  0.00    +0.015 C 
ATOM     32  C   UNL     1       0.124  -0.006   0.065  0.00  0.00    -0.009 C 
ATOM     33  C   UNL     1       0.885  -0.502   1.296  0.00  0.00    +0.015 C 
ATOM     34  C   UNL     1      -1.307  -0.547   0.098  0.00  0.00    +0.015 C 
ENDBRANCH  25  32
BRANCH  29  35
ATOM     35  C   UNL     1       1.753  -3.787  -2.799  0.00  0.00    -0.009 C 
ATOM     36  C   UNL     1       2.483  -4.014  -4.124  0.00  0.00    +0.015 C 
ATOM     37  C   UNL     1       2.562  -4.407  -1.657  0.00  0.00    +0.015 C 
ATOM     38  C   UNL     1       0.371  -4.441  -2.859  0.00  0.00    +0.015 C 
ENDBRANCH  29  35
BRANCH  30  39
ATOM     39  O   UNL     1       0.488  -2.746  -0.501  0.00  0.00    -0.506 OA
ATOM     40  H   UNL     1      -0.425  -3.020  -0.662  0.00  0.00    +0.292 HD
ENDBRANCH  30  39
ENDBRANCH  23  27
ENDBRANCH   1  24
TORSDOF 9
