REMARK  Name = ZINC32753326
REMARK  5 active torsions:
REMARK  status: ('A' for Active; 'I' for Inactive)
REMARK    1  A    between atoms: C_1  and  C_2
REMARK    2  A    between atoms: C_2  and  C_4
REMARK    3  A    between atoms: C_2  and  N_10
REMARK    4  A    between atoms: N_10  and  C_11
REMARK    5  A    between atoms: C_14  and  C_17
REMARK                            x       y       z     vdW  Elec       q    Type
REMARK                         _______ _______ _______ _____ _____    ______ ____
ROOT
ATOM      1  C   UNL     1      -3.108   1.764   0.597  0.00  0.00    +0.028 A 
ATOM      2  C   UNL     1      -2.807   2.936  -0.086  0.00  0.00    +0.023 A 
ATOM      3  C   UNL     1      -3.802   3.614  -0.762  0.00  0.00    +0.006 A 
ATOM      4  C   UNL     1      -5.098   3.134  -0.751  0.00  0.00    -0.041 A 
ATOM      5  C   UNL     1      -5.403   1.971  -0.068  0.00  0.00    +0.006 A 
ATOM      6  C   UNL     1      -4.412   1.284   0.606  0.00  0.00    +0.023 A 
ENDROOT
BRANCH   4   7
ATOM      7  C   UNL     1      -6.183   3.881  -1.485  0.00  0.00    -0.003 C 
ATOM      8  C   UNL     1      -7.270   4.305  -0.495  0.00  0.00    +0.015 C 
ATOM      9  C   UNL     1      -8.370   5.062  -1.241  0.00  0.00    -0.010 C 
ATOM     10  C   UNL     1      -7.774   6.304  -1.907  0.00  0.00    +0.007 C 
ATOM     11  C   UNL     1      -6.686   5.880  -2.896  0.00  0.00    -0.010 C 
ATOM     12  C   UNL     1      -5.586   5.122  -2.151  0.00  0.00    +0.015 C 
ATOM     13  C   UNL     1      -7.297   4.971  -3.965  0.00  0.00    +0.007 C 
ATOM     14  C   UNL     1      -7.893   3.730  -3.300  0.00  0.00    -0.010 C 
ATOM     15  C   UNL     1      -8.980   4.154  -2.310  0.00  0.00    +0.007 C 
ATOM     16  C   UNL     1      -6.793   2.972  -2.554  0.00  0.00    +0.015 C 
ENDBRANCH   4   7
BRANCH   1  17
ATOM     17  N   UNL     1      -2.103   1.072   1.277  0.00  0.00    -0.333 N 
ATOM     18  H   UNL     1      -2.344   0.147   1.821  0.00  0.00    +0.147 HD
BRANCH  17  20
ATOM     19  C   UNL     1      -0.013   1.086   0.008  0.00  0.00    +0.038 C 
ATOM     20  C   UNL     1      -0.729   1.579   1.267  0.00  0.00    +0.154 C 
BRANCH  20  21
ATOM     21  C   UNL     1       0.000   1.080   2.488  0.00  0.00    +0.240 C 
ATOM     22  O   UNL     1      -0.572   0.371   3.287  0.00  0.00    -0.273 OA
ATOM     23  N   UNL     1       1.288   1.422   2.691  0.00  0.00    -0.239 N 
ATOM     24  C   UNL     1       1.940   0.976   3.782  0.00  0.00    +0.303 C 
ATOM     25  O   UNL     1       1.366   0.265   4.584  0.00  0.00    -0.253 OA
ATOM     26  N   UNL     1       3.227   1.317   3.985  0.00  0.00    -0.313 N 
ATOM     27  H   UNL     1       1.807   2.066   1.965  0.00  0.00    +0.159 HD
ATOM     28  H   UNL     1       3.759   0.953   4.877  0.00  0.00    +0.146 HD
ATOM     29  H   UNL     1       3.746   1.961   3.260  0.00  0.00    +0.146 HD
ENDBRANCH  20  21
ENDBRANCH  17  20
ENDBRANCH   1  17
TORSDOF 4
