REMARK  Name = ZINC58597711
REMARK  8 active torsions:
REMARK  status: ('A' for Active; 'I' for Inactive)
REMARK    1  A    between atoms: C_9  and  C_13
REMARK    2  A    between atoms: C_13  and  S_14
REMARK    3  A    between atoms: S_14  and  C_15
REMARK    4  A    between atoms: C_18  and  C_27
REMARK    5  A    between atoms: N_19  and  C_20
REMARK    6  A    between atoms: C_20  and  C_21
REMARK    7  A    between atoms: C_27  and  C_28
REMARK    8  A    between atoms: C_28  and  C_29
REMARK                            x       y       z     vdW  Elec       q    Type
REMARK                         _______ _______ _______ _____ _____    ______ ____
ROOT
ATOM      1  S   UNL     1       1.808  -6.742   2.948  0.00  0.00    -0.078 S 
ENDROOT
BRANCH   1   2
ATOM      2  C   UNL     1       1.596  -8.174   3.953  0.00  0.00    +0.192 A 
ATOM      3  N   UNL     1       0.836  -8.274   5.018  0.00  0.00    -0.122 NA
ATOM      4  N   UNL     1       0.920  -9.461   5.504  0.00  0.00    -0.134 NA
ATOM      5  C   UNL     1       1.732 -10.183   4.785  0.00  0.00    +0.135 A 
ATOM      6  N   UNL     1       2.187  -9.391   3.767  0.00  0.00    -0.303 N 
BRANCH   6   7
ATOM      7  C   UNL     1       3.119  -9.768   2.702  0.00  0.00    +0.157 C 
BRANCH   7   8
ATOM      8  C   UNL     1       4.553  -9.486   3.154  0.00  0.00    +0.138 C 
ATOM      9  C   UNL     1       5.533  -9.767   1.995  0.00  0.00    +0.035 C 
ATOM     10  C   UNL     1       6.732 -10.427   2.729  0.00  0.00    +0.031 C 
ATOM     11  C   UNL     1       5.998 -11.203   3.852  0.00  0.00    +0.160 C 
ATOM     12  O   UNL     1       4.901 -10.357   4.238  0.00  0.00    -0.375 OA
ENDBRANCH   7   8
ENDBRANCH   6   7
BRANCH   5  13
ATOM     13  C   UNL     1       2.097 -11.625   5.026  0.00  0.00    +0.085 C 
BRANCH  13  14
ATOM     14  C   UNL     1       1.116 -12.531   4.279  0.00  0.00    +0.103 C 
BRANCH  14  15
ATOM     15  C   UNL     1       1.481 -13.973   4.520  0.00  0.00    +0.211 C 
ATOM     16  O   UNL     1       2.432 -14.249   5.220  0.00  0.00    -0.276 OA
ATOM     17  N   UNL     1       0.750 -14.956   3.957  0.00  0.00    -0.329 N 
ATOM     18  H   UNL     1      -0.010 -14.735   3.397  0.00  0.00    +0.145 HD
ATOM     19  H   UNL     1       0.985 -15.884   4.112  0.00  0.00    +0.145 HD
ENDBRANCH  14  15
ENDBRANCH  13  14
ENDBRANCH   5  13
ENDBRANCH   1   2
BRANCH   1  20
ATOM     20  C   UNL     1       0.756  -5.493   3.737  0.00  0.00    +0.153 C 
BRANCH  20  29
ATOM     21  C   UNL     1       0.436   1.355  -0.426  0.00  0.00    +0.005 C 
ATOM     22  C   UNL     1       1.919   1.727  -0.510  0.00  0.00    +0.005 C 
ATOM     23  C   UNL     1       2.562   1.497   0.865  0.00  0.00    +0.043 C 
ATOM     24  C   UNL     1       2.150   0.145   1.361  0.00  0.00    -0.004 A 
ATOM     25  C   UNL     1       1.150  -0.632   0.887  0.00  0.00    -0.025 A 
ATOM     26  C   UNL     1       0.951  -1.913   1.545  0.00  0.00    +0.051 A 
ATOM     27  C   UNL     1      -0.029  -2.898   1.232  0.00  0.00    +0.128 A 
ATOM     28  N   UNL     1      -0.009  -3.997   1.984  0.00  0.00    -0.216 NA
ATOM     29  C   UNL     1       0.846  -4.201   2.966  0.00  0.00    +0.143 A 
ATOM     30  N   UNL     1       1.782  -3.325   3.311  0.00  0.00    -0.224 NA
ATOM     31  C   UNL     1       1.833  -2.206   2.616  0.00  0.00    +0.114 A 
ATOM     32  S   UNL     1       2.870  -0.782   2.694  0.00  0.00    -0.073 S 
ATOM     33  N   UNL     1      -0.945  -2.724   0.210  0.00  0.00    -0.343 N 
ATOM     34  C   UNL     1       0.289  -0.160  -0.282  0.00  0.00    +0.037 C 
ATOM     35  H   UNL     1      -0.796  -2.043  -0.465  0.00  0.00    +0.144 HD
ATOM     36  H   UNL     1      -1.737  -3.283   0.168  0.00  0.00    +0.144 HD
ENDBRANCH  20  29
ENDBRANCH   1  20
TORSDOF 8
