REMARK  Name = ZINC36598781
REMARK  21 active torsions:
REMARK  status: ('A' for Active; 'I' for Inactive)
REMARK    1  A    between atoms: C_1  and  C_2
REMARK    2  A    between atoms: C_5  and  C_7
REMARK    3  A    between atoms: C_7  and  N_8
REMARK    4  A    between atoms: N_8  and  C_9
REMARK    5  A    between atoms: C_9  and  C_11
REMARK    6  A    between atoms: C_9  and  C_20
REMARK    7  A    between atoms: C_14  and  N_17
REMARK    8  A    between atoms: N_17  and  C_18
REMARK    9  A    between atoms: N_17  and  C_19
REMARK   10  A    between atoms: N_22  and  C_23
REMARK   11  A    between atoms: C_23  and  C_24
REMARK   12  A    between atoms: C_23  and  C_25
REMARK   13  A    between atoms: C_23  and  C_26
REMARK   14  A    between atoms: C_26  and  C_27
REMARK   15  A    between atoms: C_27  and  C_28
REMARK   16  A    between atoms: C_27  and  C_29
REMARK   17  A    between atoms: C_27  and  C_30
REMARK   18  A    between atoms: C_31  and  C_33
REMARK   19  A    between atoms: C_33  and  C_34
REMARK   20  A    between atoms: C_34  and  C_36
REMARK   21  A    between atoms: C_34  and  C_37
REMARK                            x       y       z     vdW  Elec       q    Type
REMARK                         _______ _______ _______ _____ _____    ______ ____
ROOT
ATOM      1  C   UNL     1       2.513  -2.109  -4.699  0.00  0.00    +0.193 C 
ENDROOT
BRANCH   1   2
ATOM      2  C   UNL     1       3.505  -2.792  -3.794  0.00  0.00    -0.018 A 
ATOM      3  C   UNL     1       3.149  -3.114  -2.497  0.00  0.00    +0.008 A 
ATOM      4  C   UNL     1       4.056  -3.740  -1.665  0.00  0.00    +0.023 A 
ATOM      5  C   UNL     1       5.328  -4.046  -2.132  0.00  0.00    +0.029 A 
ATOM      6  C   UNL     1       5.683  -3.721  -3.435  0.00  0.00    +0.023 A 
ATOM      7  C   UNL     1       4.769  -3.100  -4.263  0.00  0.00    +0.008 A 
BRANCH   5   8
ATOM      8  N   UNL     1       6.248  -4.679  -1.293  0.00  0.00    -0.336 N 
ATOM      9  C   UNL     1       5.831  -5.148   0.031  0.00  0.00    +0.129 C 
ATOM     10  C   UNL     1       7.631  -4.873  -1.736  0.00  0.00    +0.129 C 
ENDBRANCH   5   8
ENDBRANCH   1   2
BRANCH   1  11
ATOM     11  C   UNL     1       2.363  -0.668  -4.283  0.00  0.00    +0.239 C 
ATOM     12  O   UNL     1       1.299  -0.266  -3.861  0.00  0.00    -0.273 OA
ATOM     13  N   UNL     1       3.411   0.174  -4.380  0.00  0.00    -0.308 N 
ATOM     14  H   UNL     1       4.261  -0.147  -4.718  0.00  0.00    +0.149 HD
BRANCH  13  15
ATOM     15  C   UNL     1       3.265   1.575  -3.977  0.00  0.00    +0.030 C 
ATOM     16  C   UNL     1       2.341   2.296  -4.960  0.00  0.00    +0.031 C 
ATOM     17  C   UNL     1       2.664   1.640  -2.571  0.00  0.00    +0.031 C 
BRANCH  15  18
ATOM     18  C   UNL     1       4.638   2.251  -3.976  0.00  0.00    +0.031 C 
BRANCH  18  19
ATOM     19  C   UNL     1       5.494   1.667  -2.851  0.00  0.00    -0.036 C 
ATOM     20  C   UNL     1       5.453   0.139  -2.920  0.00  0.00    +0.010 C 
ATOM     21  C   UNL     1       6.938   2.146  -3.008  0.00  0.00    +0.010 C 
ATOM     22  C   UNL     1       4.947   2.131  -1.500  0.00  0.00    +0.010 C 
ENDBRANCH  18  19
ENDBRANCH  15  18
ENDBRANCH  13  15
ENDBRANCH   1  11
BRANCH   1  23
ATOM     23  N   UNL     1       1.216  -2.783  -4.599  0.00  0.00    -0.279 N 
ATOM     24  C   UNL     1       1.005  -3.939  -5.260  0.00  0.00    +0.217 C 
ATOM     25  O   UNL     1       1.888  -4.420  -5.938  0.00  0.00    -0.276 OA
BRANCH  23  26
ATOM     26  C   UNL     1       0.149  -2.202  -3.780  0.00  0.00    +0.183 C 
BRANCH  26  31
ATOM     27  C   UNL     1      -1.874   1.832  -6.033  0.00  0.00    +0.086 C 
ATOM     28  C   UNL     1      -1.622   0.403  -5.627  0.00  0.00    +0.102 A 
ATOM     29  C   UNL     1      -2.309  -0.670  -6.059  0.00  0.00    +0.045 A 
ATOM     30  C   UNL     1      -1.742  -1.801  -5.428  0.00  0.00    +0.046 A 
ATOM     31  C   UNL     1      -0.743  -1.351  -4.648  0.00  0.00    +0.122 A 
ATOM     32  O   UNL     1      -0.671  -0.016  -4.777  0.00  0.00    -0.463 OA
ENDBRANCH  26  31
ENDBRANCH  23  26
BRANCH  24  33
ATOM     33  C   UNL     1      -0.329  -4.633  -5.157  0.00  0.00    +0.104 C 
BRANCH  33  34
ATOM     34  C   UNL     1      -0.304  -5.912  -5.996  0.00  0.00    +0.025 C 
ATOM     35  C   UNL     1      -0.150  -5.549  -7.474  0.00  0.00    +0.013 C 
BRANCH  34  36
ATOM     36  C   UNL     1      -1.593  -6.668  -5.797  0.00  0.00    -0.044 A 
ATOM     37  C   UNL     1      -2.798  -6.079  -6.129  0.00  0.00    +0.004 A 
ATOM     38  C   UNL     1      -3.980  -6.773  -5.946  0.00  0.00    +0.000 A 
ATOM     39  C   UNL     1      -3.955  -8.056  -5.431  0.00  0.00    +0.000 A 
ATOM     40  C   UNL     1      -2.750  -8.645  -5.100  0.00  0.00    +0.000 A 
ATOM     41  C   UNL     1      -1.568  -7.953  -5.287  0.00  0.00    +0.004 A 
ENDBRANCH  34  36
ENDBRANCH  33  34
ENDBRANCH  24  33
ENDBRANCH   1  23
TORSDOF 12
