REMARK  Name = ZINC59464042
REMARK  10 active torsions:
REMARK  status: ('A' for Active; 'I' for Inactive)
REMARK    1  A    between atoms: C_1  and  C_2
REMARK    2  A    between atoms: C_2  and  C_25
REMARK    3  A    between atoms: N_3  and  N_4
REMARK    4  A    between atoms: C_5  and  C_7
REMARK    5  A    between atoms: C_7  and  N_8
REMARK    6  A    between atoms: N_8  and  C_9
REMARK    7  A    between atoms: N_8  and  S_21
REMARK    8  A    between atoms: S_21  and  C_24
REMARK    9  A    between atoms: C_25  and  C_26
REMARK   10  A    between atoms: C_26  and  C_27
REMARK                            x       y       z     vdW  Elec       q    Type
REMARK                         _______ _______ _______ _____ _____    ______ ____
ROOT
ATOM      1  N   UNL     1      -0.051  -0.845   5.904  0.00  0.00    -0.198 N 
ENDROOT
BRANCH   1   2
ATOM      2  C   UNL     1       1.107  -1.374   6.470  0.00  0.00    +0.059 A 
ATOM      3  C   UNL     1       1.779  -2.417   5.860  0.00  0.00    +0.025 A 
ATOM      4  C   UNL     1       2.939  -2.967   6.403  0.00  0.00    +0.006 A 
ATOM      5  C   UNL     1       3.453  -2.485   7.569  0.00  0.00    -0.039 A 
ATOM      6  C   UNL     1       2.790  -1.436   8.197  0.00  0.00    -0.010 A 
ATOM      7  C   UNL     1       1.621  -0.853   7.676  0.00  0.00    +0.005 A 
ATOM      8  C   UNL     1       1.040   0.205   8.391  0.00  0.00    +0.010 A 
ATOM      9  C   UNL     1       1.633   0.622   9.548  0.00  0.00    +0.001 A 
ATOM     10  C   UNL     1       2.797   0.031  10.045  0.00  0.00    +0.004 A 
ATOM     11  C   UNL     1       3.380  -1.004   9.381  0.00  0.00    -0.039 A 
ATOM     12  C   UNL     1       4.606  -1.854   9.611  0.00  0.00    +0.040 C 
ATOM     13  C   UNL     1       4.654  -2.831   8.416  0.00  0.00    +0.040 C 
ENDBRANCH   1   2
BRANCH   1  14
ATOM     14  S   UNL     1      -1.536  -1.406   6.376  0.00  0.00    +0.043 S 
ATOM     15  O   UNL     1      -1.359  -1.806   7.728  0.00  0.00    -0.155 OA
ATOM     16  O   UNL     1      -2.441  -0.363   6.042  0.00  0.00    -0.155 OA
ATOM     17  C   UNL     1      -1.840  -2.856   5.330  0.00  0.00    +0.218 C 
ENDBRANCH   1  14
BRANCH   1  18
ATOM     18  C   UNL     1       0.045   0.208   4.889  0.00  0.00    +0.228 C 
BRANCH  18  20
ATOM     19  N   UNL     1       0.322   0.363   2.436  0.00  0.00    -0.206 N 
ATOM     20  C   UNL     1       0.217  -0.418   3.530  0.00  0.00    +0.251 C 
ATOM     21  O   UNL     1       0.260  -1.625   3.419  0.00  0.00    -0.272 OA
ATOM     22  H   UNL     1       0.287   1.328   2.525  0.00  0.00    +0.177 HD
BRANCH  19  25
ATOM     23  C   UNL     1       0.527   2.022   0.271  0.00  0.00    +0.062 C 
ATOM     24  C   UNL     1       0.580   0.522   0.134  0.00  0.00    +0.034 C 
ATOM     25  N   UNL     1       0.481  -0.220   1.172  0.00  0.00    -0.189 NA
BRANCH  24  26
ATOM     26  C   UNL     1       0.752  -0.104  -1.226  0.00  0.00    +0.057 C 
BRANCH  26  27
ATOM     27  C   UNL     1      -0.474   0.205  -2.088  0.00  0.00    +0.041 C 
BRANCH  27  28
ATOM     28  C   UNL     1      -0.303  -0.421  -3.448  0.00  0.00    -0.047 A 
ATOM     29  C   UNL     1       0.310   0.289  -4.464  0.00  0.00    +0.003 A 
ATOM     30  C   UNL     1       0.467  -0.286  -5.712  0.00  0.00    +0.000 A 
ATOM     31  C   UNL     1       0.012  -1.571  -5.943  0.00  0.00    +0.000 A 
ATOM     32  C   UNL     1      -0.600  -2.281  -4.927  0.00  0.00    +0.000 A 
ATOM     33  C   UNL     1      -0.753  -1.708  -3.678  0.00  0.00    +0.003 A 
ENDBRANCH  27  28
ENDBRANCH  26  27
ENDBRANCH  24  26
ENDBRANCH  19  25
ENDBRANCH  18  20
ENDBRANCH   1  18
TORSDOF 8
