REMARK  Name = ZINC20573496
REMARK  7 active torsions:
REMARK  status: ('A' for Active; 'I' for Inactive)
REMARK    1  A    between atoms: C_1  and  S_2
REMARK    2  A    between atoms: S_2  and  C_3
REMARK    3  A    between atoms: C_3  and  C_4
REMARK    4  A    between atoms: C_4  and  C_5
REMARK    5  A    between atoms: C_5  and  C_7
REMARK    6  A    between atoms: C_5  and  N_24
REMARK    7  A    between atoms: C_25  and  C_27
REMARK                            x       y       z     vdW  Elec       q    Type
REMARK                         _______ _______ _______ _____ _____    ______ ____
ROOT
ATOM      1  C   UNL     1       1.757  -2.329   2.909  0.00  0.00    +0.160 C 
ENDROOT
BRANCH   1   2
ATOM      2  C   UNL     1       1.640  -3.811   3.155  0.00  0.00    +0.236 C 
ATOM      3  O   UNL     1       2.585  -4.538   2.933  0.00  0.00    -0.274 OA
ATOM      4  N   UNL     1       0.486  -4.328   3.621  0.00  0.00    -0.300 N 
ATOM      5  C   UNL     1      -0.702  -3.479   3.785  0.00  0.00    +0.110 C 
ATOM      6  C   UNL     1      -1.873  -4.121   3.033  0.00  0.00    +0.047 C 
ATOM      7  C   UNL     1      -2.056  -5.561   3.513  0.00  0.00    +0.064 C 
ATOM      8  C   UNL     1      -0.791  -6.368   3.220  0.00  0.00    +0.047 C 
ATOM      9  C   UNL     1       0.390  -5.752   3.968  0.00  0.00    +0.110 C 
ATOM     10  C   UNL     1      -3.232  -6.185   2.810  0.00  0.00    +0.057 A 
ATOM     11  C   UNL     1      -4.170  -6.931   3.437  0.00  0.00    +0.039 A 
ATOM     12  N   UNL     1      -5.062  -7.322   2.526  0.00  0.00    -0.349 N 
ATOM     13  C   UNL     1      -4.715  -6.851   1.356  0.00  0.00    +0.171 A 
ATOM     14  N   UNL     1      -3.574  -6.135   1.496  0.00  0.00    -0.348 N 
ATOM     15  H   UNL     1      -3.093  -5.673   0.792  0.00  0.00    +0.166 HD
ATOM     16  C   UNL     1      -4.135  -7.224   4.917  0.00  0.00    +0.070 C 
ATOM     17  C   UNL     1      -2.723  -6.903   5.427  0.00  0.00    +0.088 C 
ATOM     18  N   UNL     1      -2.321  -5.568   4.961  0.00  0.00    -0.305 NA
ATOM     19  H   UNL     1      -1.521  -5.231   5.476  0.00  0.00    +0.123 HD
ATOM     20  H   UNL     1      -5.843  -7.870   2.703  0.00  0.00    +0.166 HD
ENDBRANCH   1   2
BRANCH   1  21
ATOM     21  N   UNL     1       3.159  -1.922   3.031  0.00  0.00    -0.300 N 
ATOM     22  C   UNL     1       3.466  -0.650   3.354  0.00  0.00    +0.245 C 
ATOM     23  O   UNL     1       2.580   0.160   3.544  0.00  0.00    -0.270 OA
ATOM     24  H   UNL     1       3.866  -2.568   2.879  0.00  0.00    +0.150 HD
BRANCH  22  25
ATOM     25  C   UNL     1       4.880  -0.240   3.477  0.00  0.00    +0.037 A 
ATOM     26  C   UNL     1       5.902  -1.180   3.250  0.00  0.00    +0.013 A 
ATOM     27  C   UNL     1       7.208  -0.828   3.357  0.00  0.00    +0.009 A 
ATOM     28  C   UNL     1       7.556   0.492   3.699  0.00  0.00    -0.018 A 
ATOM     29  C   UNL     1       8.901   0.880   3.816  0.00  0.00    +0.008 A 
ATOM     30  C   UNL     1       9.206   2.165   4.148  0.00  0.00    +0.001 A 
ATOM     31  C   UNL     1       8.203   3.105   4.375  0.00  0.00    +0.001 A 
ATOM     32  C   UNL     1       6.889   2.767   4.272  0.00  0.00    +0.008 A 
ATOM     33  C   UNL     1       6.535   1.449   3.930  0.00  0.00    -0.017 A 
ATOM     34  C   UNL     1       5.190   1.068   3.809  0.00  0.00    +0.021 A 
ENDBRANCH  22  25
ENDBRANCH   1  21
BRANCH   1  35
ATOM     35  C   UNL     1       1.252  -2.004   1.501  0.00  0.00    +0.042 C 
BRANCH  35  36
ATOM     36  C   UNL     1       1.236  -0.487   1.303  0.00  0.00    +0.071 C 
BRANCH  36  38
ATOM     37  C   UNL     1       0.678   1.710  -0.440  0.00  0.00    +0.084 C 
ATOM     38  S   UNL     1       0.637  -0.102  -0.366  0.00  0.00    -0.164 S 
ENDBRANCH  36  38
ENDBRANCH  35  36
ENDBRANCH   1  35
TORSDOF 6
