REMARK  Name = ZINC28445908
REMARK  11 active torsions:
REMARK  status: ('A' for Active; 'I' for Inactive)
REMARK    1  A    between atoms: C_1  and  C_2
REMARK    2  A    between atoms: C_2  and  C_4
REMARK    3  A    between atoms: C_9  and  N_10
REMARK    4  A    between atoms: C_11  and  C_13
REMARK    5  A    between atoms: C_13  and  S_14
REMARK    6  A    between atoms: S_14  and  C_15
REMARK    7  A    between atoms: C_18  and  C_27
REMARK    8  A    between atoms: N_19  and  C_20
REMARK    9  A    between atoms: C_20  and  C_21
REMARK   10  A    between atoms: C_30  and  O_33
REMARK   11  A    between atoms: O_33  and  C_34
REMARK                            x       y       z     vdW  Elec       q    Type
REMARK                         _______ _______ _______ _____ _____    ______ ____
ROOT
ATOM      1  C   UNL     1      -2.349   0.426   4.761  0.00  0.00    +0.192 A 
ATOM      2  N   UNL     1      -2.606   1.339   5.671  0.00  0.00    -0.122 NA
ATOM      3  N   UNL     1      -1.511   1.855   6.102  0.00  0.00    -0.128 NA
ATOM      4  C   UNL     1      -0.486   1.299   5.497  0.00  0.00    +0.165 A 
ATOM      5  N   UNL     1      -0.991   0.372   4.616  0.00  0.00    -0.300 N 
ENDROOT
BRANCH   4   6
ATOM      6  C   UNL     1       0.941   1.614   5.720  0.00  0.00    +0.020 A 
ATOM      7  C   UNL     1       1.337   2.289   6.876  0.00  0.00    +0.015 A 
ATOM      8  C   UNL     1       2.670   2.576   7.082  0.00  0.00    +0.046 A 
ATOM      9  C   UNL     1       3.616   2.204   6.137  0.00  0.00    +0.120 A 
ATOM     10  C   UNL     1       3.226   1.536   4.983  0.00  0.00    +0.046 A 
ATOM     11  C   UNL     1       1.896   1.241   4.772  0.00  0.00    +0.015 A 
BRANCH   9  12
ATOM     12  O   UNL     1       4.928   2.493   6.341  0.00  0.00    -0.495 OA
ATOM     13  C   UNL     1       5.260   3.180   7.549  0.00  0.00    +0.277 C 
ENDBRANCH   9  12
ENDBRANCH   4   6
BRANCH   1  14
ATOM     14  S   UNL     1      -3.533  -0.545   3.891  0.00  0.00    -0.077 S 
BRANCH  14  15
ATOM     15  C   UNL     1      -5.061   0.094   4.620  0.00  0.00    +0.173 C 
BRANCH  15  17
ATOM     16  N   UNL     1      -7.494  -0.298   4.402  0.00  0.00    -0.284 N 
ATOM     17  C   UNL     1      -6.244  -0.612   4.009  0.00  0.00    +0.228 C 
ATOM     18  O   UNL     1      -6.070  -1.464   3.164  0.00  0.00    -0.275 OA
ATOM     19  H   UNL     1      -7.657   0.534   5.103  0.00  0.00    +0.155 HD
BRANCH  16  25
ATOM     20  C   UNL     1      -9.635  -1.370   4.781  0.00  0.00    +0.038 A 
ATOM     21  C   UNL     1     -10.720  -2.102   4.283  0.00  0.00    +0.013 A 
ATOM     22  C   UNL     1     -10.744  -2.478   2.959  0.00  0.00    +0.001 A 
ATOM     23  C   UNL     1      -9.699  -2.135   2.114  0.00  0.00    +0.002 A 
ATOM     24  C   UNL     1      -8.625  -1.409   2.588  0.00  0.00    +0.024 A 
ATOM     25  C   UNL     1      -8.578  -1.025   3.921  0.00  0.00    +0.044 A 
BRANCH  20  27
ATOM     26  C   UNL     1     -10.759  -1.299   7.099  0.00  0.00    +0.091 C 
ATOM     27  C   UNL     1      -9.603  -0.965   6.192  0.00  0.00    +0.162 C 
ATOM     28  O   UNL     1      -8.645  -0.361   6.627  0.00  0.00    -0.292 OA
ENDBRANCH  20  27
ENDBRANCH  16  25
ENDBRANCH  15  17
ENDBRANCH  14  15
ENDBRANCH   1  14
BRANCH   5  29
ATOM     29  C   UNL     1      -0.232  -0.497   3.713  0.00  0.00    +0.157 C 
BRANCH  29  30
ATOM     30  C   UNL     1      -0.008   0.221   2.381  0.00  0.00    +0.138 C 
ATOM     31  C   UNL     1       0.900  -0.623   1.451  0.00  0.00    +0.035 C 
ATOM     32  C   UNL     1       0.496  -0.109   0.048  0.00  0.00    +0.031 C 
ATOM     33  C   UNL     1      -0.895   0.519   0.262  0.00  0.00    +0.160 C 
ATOM     34  O   UNL     1      -1.245   0.322   1.642  0.00  0.00    -0.375 OA
ENDBRANCH  29  30
ENDBRANCH   5  29
TORSDOF 9
