REMARK  Name = ZINC50122091
REMARK  4 active torsions:
REMARK  status: ('A' for Active; 'I' for Inactive)
REMARK    1  A    between atoms: C_1  and  C_2
REMARK    2  A    between atoms: C_2  and  C_3
REMARK    3  A    between atoms: C_2  and  N_4
REMARK    4  A    between atoms: C_7  and  C_10
REMARK                            x       y       z     vdW  Elec       q    Type
REMARK                         _______ _______ _______ _____ _____    ______ ____
ROOT
ATOM      1  N   UNL     1      -1.372  -0.511   0.012  0.00  0.00    -0.279 N 
ATOM      2  C   UNL     1      -2.291  -0.262   0.992  0.00  0.00    +0.160 C 
ATOM      3  N   UNL     1      -3.430  -0.818   0.776  0.00  0.00    -0.366 N 
ATOM      4  C   UNL     1      -3.348  -1.556  -0.494  0.00  0.00    +0.172 C 
ATOM      5  C   UNL     1      -1.929  -1.305  -0.968  0.00  0.00    +0.101 C 
ATOM      6  N   UNL     1      -1.367  -1.740  -2.047  0.00  0.00    -0.388 N 
ATOM      7  H   UNL     1      -0.444  -1.511  -2.240  0.00  0.00    +0.157 HD
ATOM      8  H   UNL     1      -1.867  -2.295  -2.664  0.00  0.00    +0.157 HD
ATOM      9  H   UNL     1      -4.210  -0.761   1.351  0.00  0.00    +0.161 HD
ENDROOT
BRANCH   4  10
ATOM     10  C   UNL     1      -3.583  -3.027  -0.268  0.00  0.00    -0.013 A 
ATOM     11  C   UNL     1      -4.307  -3.759  -1.190  0.00  0.00    +0.055 A 
ATOM     12  C   UNL     1      -4.524  -5.112  -0.985  0.00  0.00    +0.168 A 
ATOM     13  C   UNL     1      -4.012  -5.731   0.152  0.00  0.00    +0.184 A 
ATOM     14  C   UNL     1      -3.288  -4.991   1.073  0.00  0.00    +0.087 A 
ATOM     15  C   UNL     1      -3.070  -3.642   0.859  0.00  0.00    +0.030 A 
ATOM     16 CL   UNL     1      -2.647  -5.759   2.493  0.00  0.00    -0.080 Cl
ATOM     17  O   UNL     1      -4.358  -7.052   0.123  0.00  0.00    -0.451 OA
ATOM     18  C   UNL     1      -5.431  -7.147  -0.832  0.00  0.00    +0.466 C 
ATOM     19  O   UNL     1      -5.191  -6.044  -1.726  0.00  0.00    -0.453 OA
ENDBRANCH   4  10
BRANCH   1  21
ATOM     20  C   UNL     1      -0.019   1.526   0.010  0.00  0.00    +0.028 C 
ATOM     21  C   UNL     1       0.002  -0.004   0.002  0.00  0.00    +0.075 C 
ATOM     22  C   UNL     1       0.742  -0.511   1.242  0.00  0.00    +0.028 C 
ENDBRANCH   1  21
TORSDOF 2
