REMARK  Name = ZINC16120819
REMARK  5 active torsions:
REMARK  status: ('A' for Active; 'I' for Inactive)
REMARK    1  A    between atoms: C_1  and  C_2
REMARK    2  A    between atoms: C_5  and  S_9
REMARK    3  A    between atoms: C_7  and  C_8
REMARK    4  A    between atoms: S_9  and  N_12
REMARK    5  A    between atoms: N_12  and  C_13
REMARK                            x       y       z     vdW  Elec       q    Type
REMARK                         _______ _______ _______ _____ _____    ______ ____
ROOT
ATOM      1  N   UNL     1      -1.974   2.469   1.607  0.00  0.00    -0.215 N 
ATOM      2  H   UNL     1      -2.770   2.043   1.962  0.00  0.00    +0.174 HD
ENDROOT
BRANCH   1   3
ATOM      3  C   UNL     1      -1.133   3.198   2.455  0.00  0.00    +0.066 A 
ATOM      4  C   UNL     1      -0.497   4.340   1.987  0.00  0.00    +0.075 A 
ATOM      5  C   UNL     1       0.333   5.065   2.828  0.00  0.00    +0.164 A 
ATOM      6  C   UNL     1       0.534   4.643   4.137  0.00  0.00    +0.163 A 
ATOM      7  C   UNL     1      -0.099   3.499   4.600  0.00  0.00    +0.066 A 
ATOM      8  C   UNL     1      -0.930   2.778   3.763  0.00  0.00    +0.044 A 
ATOM      9 BR   UNL     1      -1.789   1.218   4.398  0.00  0.00    -0.048 Br
ATOM     10  O   UNL     1       1.346   5.342   4.978  0.00  0.00    -0.485 OA
ATOM     11  C   UNL     1       2.253   6.270   4.373  0.00  0.00    +0.270 C 
ATOM     12  C   UNL     1       1.479   7.088   3.330  0.00  0.00    +0.270 C 
ATOM     13  O   UNL     1       0.949   6.183   2.355  0.00  0.00    -0.485 OA
ENDBRANCH   1   3
BRANCH   1  14
ATOM     14  S   UNL     1      -1.610   2.331  -0.003  0.00  0.00    +0.072 S 
ATOM     15  O   UNL     1      -1.430   3.653  -0.493  0.00  0.00    -0.150 OA
ATOM     16  O   UNL     1      -2.563   1.435  -0.559  0.00  0.00    -0.150 OA
BRANCH  14  21
ATOM     17  C   UNL     1       3.756  -0.398  -0.410  0.00  0.00    +0.044 C 
ATOM     18  C   UNL     1       2.415   0.284  -0.307  0.00  0.00    -0.047 A 
ATOM     19  C   UNL     1       2.345   1.662  -0.231  0.00  0.00    +0.005 A 
ATOM     20  C   UNL     1       1.116   2.287  -0.135  0.00  0.00    +0.029 A 
ATOM     21  C   UNL     1      -0.043   1.534  -0.117  0.00  0.00    +0.109 A 
ATOM     22  C   UNL     1       0.027   0.156  -0.193  0.00  0.00    +0.032 A 
ATOM     23  C   UNL     1       1.257  -0.469  -0.289  0.00  0.00    -0.046 A 
ATOM     24  C   UNL     1       1.333  -1.972  -0.372  0.00  0.00    +0.044 C 
ENDBRANCH  14  21
ENDBRANCH   1  14
TORSDOF 3
