REMARK  Name = ZINC48669654
REMARK  7 active torsions:
REMARK  status: ('A' for Active; 'I' for Inactive)
REMARK    1  A    between atoms: C_1  and  C_2
REMARK    2  A    between atoms: C_2  and  C_3
REMARK    3  A    between atoms: C_3  and  C_4
REMARK    4  A    between atoms: C_9  and  S_11
REMARK    5  A    between atoms: S_11  and  C_12
REMARK    6  A    between atoms: C_15  and  N_21
REMARK    7  A    between atoms: C_16  and  C_18
REMARK                            x       y       z     vdW  Elec       q    Type
REMARK                         _______ _______ _______ _____ _____    ______ ____
ROOT
ATOM      1  C   UNL     1      -1.375  -6.572   0.764  0.00  0.00    +0.016 A 
ATOM      2  C   UNL     1      -1.389  -7.278   1.964  0.00  0.00    +0.017 A 
ATOM      3  C   UNL     1      -1.055  -8.616   1.990  0.00  0.00    +0.024 A 
ATOM      4  C   UNL     1      -0.702  -9.269   0.816  0.00  0.00    +0.037 A 
ATOM      5  C   UNL     1      -0.686  -8.564  -0.397  0.00  0.00    +0.058 A 
ATOM      6  C   UNL     1      -1.031  -7.210  -0.414  0.00  0.00    +0.030 A 
ENDROOT
BRANCH   5   7
ATOM      7  C   UNL     1      -0.313  -9.250  -1.648  0.00  0.00    +0.243 C 
ATOM      8  O   UNL     1       0.091 -10.396  -1.616  0.00  0.00    -0.270 OA
ATOM      9  N   UNL     1      -0.418  -8.605  -2.827  0.00  0.00    -0.325 N 
ATOM     10  H   UNL     1      -0.740  -7.691  -2.853  0.00  0.00    +0.145 HD
ATOM     11  H   UNL     1      -0.172  -9.056  -3.650  0.00  0.00    +0.145 HD
ENDBRANCH   5   7
BRANCH   4  12
ATOM     12  N   UNL     1      -0.365 -10.619   0.843  0.00  0.00    -0.357 N 
ATOM     13  H   UNL     1      -0.453 -11.124   1.666  0.00  0.00    +0.142 HD
ATOM     14  H   UNL     1      -0.043 -11.054   0.038  0.00  0.00    +0.142 HD
ENDBRANCH   4  12
BRANCH   1  15
ATOM     15  S   UNL     1      -1.803  -4.863   0.745  0.00  0.00    -0.050 S 
BRANCH  15  21
ATOM     16  C   UNL     1       0.928  -2.054   0.826  0.00  0.00    +0.049 A 
ATOM     17  C   UNL     1       2.103  -2.762   1.001  0.00  0.00    +0.095 A 
ATOM     18  C   UNL     1       2.036  -4.151   1.096  0.00  0.00    +0.274 A 
ATOM     19  O   UNL     1       3.163  -4.883   1.268  0.00  0.00    -0.266 OA
ATOM     20  N   UNL     1       0.852  -4.746   1.016  0.00  0.00    -0.183 NA
ATOM     21  C   UNL     1      -0.252  -4.034   0.847  0.00  0.00    +0.197 A 
ATOM     22  N   UNL     1      -0.219  -2.711   0.759  0.00  0.00    -0.226 NA
BRANCH  16  23
ATOM     23  C   UNL     1       0.953  -0.551   0.718  0.00  0.00    +0.055 C 
BRANCH  23  25
ATOM     24  C   UNL     1       0.280   1.405  -0.683  0.00  0.00    +0.004 C 
ATOM     25  C   UNL     1       0.255  -0.121  -0.574  0.00  0.00    +0.003 C 
ENDBRANCH  23  25
ENDBRANCH  16  23
ENDBRANCH  15  21
ENDBRANCH   1  15
TORSDOF 6
