REMARK  Name = ZINC02083345
REMARK  10 active torsions:
REMARK  status: ('A' for Active; 'I' for Inactive)
REMARK    1  A    between atoms: C_4  and  C_7
REMARK    2  A    between atoms: C_7  and  C_8
REMARK    3  A    between atoms: C_8  and  N_69
REMARK    4  A    between atoms: C_9  and  C_10
REMARK    5  A    between atoms: C_9  and  N_69
REMARK    6  A    between atoms: C_10  and  C_12
REMARK    7  A    between atoms: C_10  and  O_38
REMARK    8  A    between atoms: C_12  and  N_13
REMARK    9  A    between atoms: C_24  and  C_32
REMARK   10  A    between atoms: C_25  and  C_26
REMARK                            x       y       z     vdW  Elec       q    Type
REMARK                         _______ _______ _______ _____ _____    ______ ____
ROOT
ATOM      1  N   UNL     1      -1.948   1.348  -1.429  0.00  0.00    -0.336 N 
ATOM      2  C   UNL     1      -2.194   0.052  -1.813  0.00  0.00    +0.058 A 
ATOM      3  C   UNL     1      -1.365  -0.971  -2.327  0.00  0.00    +0.006 A 
ATOM      4  C   UNL     1       0.005  -0.757  -2.537  0.00  0.00    +0.010 A 
ATOM      5  C   UNL     1       0.778  -1.764  -3.033  0.00  0.00    +0.001 A 
ATOM      6  C   UNL     1       0.225  -3.005  -3.336  0.00  0.00    +0.001 A 
ATOM      7  C   UNL     1      -1.102  -3.247  -3.144  0.00  0.00    +0.008 A 
ATOM      8  C   UNL     1      -1.928  -2.233  -2.634  0.00  0.00    -0.016 A 
ATOM      9  C   UNL     1      -3.305  -2.457  -2.427  0.00  0.00    +0.009 A 
ATOM     10  C   UNL     1      -4.090  -1.472  -1.927  0.00  0.00    +0.011 A 
ATOM     11  C   UNL     1      -3.553  -0.209  -1.618  0.00  0.00    +0.009 A 
ATOM     12  C   UNL     1      -4.140   1.030  -1.090  0.00  0.00    +0.015 A 
ATOM     13  C   UNL     1      -3.107   1.942  -0.998  0.00  0.00    +0.058 A 
ENDROOT
BRANCH  13  14
ATOM     14  C   UNL     1      -3.230   3.331  -0.513  0.00  0.00    -0.001 A 
ATOM     15  C   UNL     1      -2.424   3.783   0.534  0.00  0.00    +0.010 A 
ATOM     16  C   UNL     1      -2.540   5.084   0.978  0.00  0.00    +0.001 A 
ATOM     17  C   UNL     1      -3.461   5.937   0.396  0.00  0.00    +0.000 A 
ATOM     18  C   UNL     1      -4.267   5.494  -0.638  0.00  0.00    +0.001 A 
ATOM     19  C   UNL     1      -4.157   4.198  -1.096  0.00  0.00    +0.010 A 
ENDBRANCH  13  14
BRANCH  12  20
ATOM     20  C   UNL     1      -5.557   1.256  -0.727  0.00  0.00    -0.015 A 
ATOM     21  C   UNL     1      -5.910   1.498   0.601  0.00  0.00    +0.008 A 
ATOM     22  C   UNL     1      -7.232   1.713   0.932  0.00  0.00    +0.001 A 
ATOM     23  C   UNL     1      -8.208   1.678  -0.048  0.00  0.00    +0.000 A 
ATOM     24  C   UNL     1      -7.865   1.432  -1.366  0.00  0.00    +0.001 A 
ATOM     25  C   UNL     1      -6.546   1.221  -1.710  0.00  0.00    +0.008 A 
ENDBRANCH  12  20
BRANCH   1  26
ATOM     26  C   UNL     1      -0.639   2.003  -1.480  0.00  0.00    +0.151 C 
BRANCH  26  27
ATOM     27  C   UNL     1      -0.455   2.671  -2.844  0.00  0.00    +0.117 C 
BRANCH  27  28
ATOM     28  O   UNL     1      -0.437   1.671  -3.865  0.00  0.00    -0.392 OA
ATOM     29  H   UNL     1       0.340   1.095  -3.838  0.00  0.00    +0.210 HD
ENDBRANCH  27  28
BRANCH  27  30
ATOM     30  C   UNL     1       0.868   3.440  -2.860  0.00  0.00    -0.049 C 
BRANCH  30  31
ATOM     31  N   UNL     1       0.982   4.178  -4.133  0.00  0.00    +0.381 N 
ATOM     32  H   UNL     1       0.956   3.512  -4.914  0.00  0.00    -0.086 HD
ATOM     33  H   UNL     1       0.195   4.833  -4.216  0.00  0.00    -0.086 HD
BRANCH  31  34
ATOM     34  C   UNL     1       2.249   4.931  -4.176  0.00  0.00    -0.078 C 
BRANCH  34  35
ATOM     35  C   UNL     1       2.339   5.685  -5.505  0.00  0.00    +0.016 C 
BRANCH  35  39
ATOM     36  C   UNL     1       6.004   7.873  -5.655  0.00  0.00    +0.000 A 
ATOM     37  C   UNL     1       5.954   6.576  -6.129  0.00  0.00    +0.000 A 
ATOM     38  C   UNL     1       4.768   5.868  -6.080  0.00  0.00    +0.003 A 
ATOM     39  C   UNL     1       3.632   6.457  -5.558  0.00  0.00    -0.049 A 
ATOM     40  C   UNL     1       3.681   7.756  -5.088  0.00  0.00    +0.003 A 
ATOM     41  C   UNL     1       4.868   8.463  -5.133  0.00  0.00    +0.000 A 
ENDBRANCH  35  39
ENDBRANCH  34  35
ENDBRANCH  31  34
ENDBRANCH  30  31
ENDBRANCH  27  30
ENDBRANCH  26  27
ENDBRANCH   1  26
TORSDOF 10
