REMARK  Name = ZINC00905795
REMARK  10 active torsions:
REMARK  status: ('A' for Active; 'I' for Inactive)
REMARK    1  A    between atoms: C_1  and  C_2
REMARK    2  A    between atoms: C_2  and  C_3
REMARK    3  A    between atoms: C_6  and  N_9
REMARK    4  A    between atoms: N_9  and  C_10
REMARK    5  A    between atoms: C_10  and  C_12
REMARK    6  A    between atoms: C_10  and  C_18
REMARK    7  A    between atoms: N_20  and  C_21
REMARK    8  A    between atoms: C_27  and  C_29
REMARK    9  A    between atoms: C_29  and  N_30
REMARK   10  A    between atoms: C_32  and  C_35
REMARK                            x       y       z     vdW  Elec       q    Type
REMARK                         _______ _______ _______ _____ _____    ______ ____
ROOT
ATOM      1  N   UNL     1       3.157  -1.286   4.974  0.00  0.00    -0.252 N 
ATOM      2  C   UNL     1       4.058  -2.181   4.524  0.00  0.00    +0.244 C 
ATOM      3  O   UNL     1       4.254  -3.207   5.142  0.00  0.00    -0.273 OA
ENDROOT
BRANCH   1   7
ATOM      4  C   UNL     1       2.194   2.042   2.659  0.00  0.00    -0.048 A 
ATOM      5  C   UNL     1       2.768   0.932   2.066  0.00  0.00    +0.005 A 
ATOM      6  C   UNL     1       3.088  -0.173   2.831  0.00  0.00    +0.024 A 
ATOM      7  C   UNL     1       2.834  -0.168   4.196  0.00  0.00    +0.038 A 
ATOM      8  C   UNL     1       2.258   0.948   4.788  0.00  0.00    +0.024 A 
ATOM      9  C   UNL     1       1.944   2.052   4.019  0.00  0.00    +0.005 A 
BRANCH   4  11
ATOM     10  C   UNL     1       3.042   4.198   1.775  0.00  0.00    +0.009 C 
ATOM     11  C   UNL     1       1.846   3.245   1.821  0.00  0.00    +0.032 C 
ENDBRANCH   4  11
ENDBRANCH   1   7
BRANCH   1  12
ATOM     12  C   UNL     1       2.515  -1.482   6.276  0.00  0.00    +0.215 C 
BRANCH  12  13
ATOM     13  C   UNL     1       1.023  -1.587   6.090  0.00  0.00    +0.071 A 
ATOM     14  C   UNL     1       0.264  -2.261   7.028  0.00  0.00    +0.026 A 
ATOM     15  C   UNL     1      -1.108  -2.351   6.847  0.00  0.00    +0.003 A 
ATOM     16  C   UNL     1      -1.667  -1.758   5.726  0.00  0.00    +0.020 A 
ATOM     17  C   UNL     1      -0.844  -1.101   4.831  0.00  0.00    +0.111 A 
ATOM     18  N   UNL     1       0.457  -1.030   5.038  0.00  0.00    -0.257 NA
ENDBRANCH  12  13
BRANCH  12  19
ATOM     19  C   UNL     1       2.829  -0.312   7.172  0.00  0.00    +0.240 C 
ATOM     20  O   UNL     1       3.520   0.596   6.764  0.00  0.00    -0.273 OA
ATOM     21  N   UNL     1       2.341  -0.276   8.428  0.00  0.00    -0.311 N 
ATOM     22  H   UNL     1       1.788  -1.002   8.755  0.00  0.00    +0.149 HD
BRANCH  21  23
ATOM     23  C   UNL     1       2.646   0.862   9.300  0.00  0.00    +0.073 C 
ATOM     24  C   UNL     1       3.993   0.631   9.987  0.00  0.00    +0.022 C 
ATOM     25  C   UNL     1       4.312   1.819  10.897  0.00  0.00    +0.002 C 
ATOM     26  C   UNL     1       3.216   1.958  11.956  0.00  0.00    +0.000 C 
ATOM     27  C   UNL     1       1.869   2.189  11.269  0.00  0.00    +0.002 C 
ATOM     28  C   UNL     1       1.550   1.001  10.359  0.00  0.00    +0.022 C 
ENDBRANCH  21  23
ENDBRANCH  12  19
ENDBRANCH   1  12
BRANCH   2  29
ATOM     29  C   UNL     1       4.823  -1.909   3.255  0.00  0.00    +0.264 C 
BRANCH  29  30
ATOM     30  N   UNL     1       6.187  -2.426   3.386  0.00  0.00    -0.154 N 
ATOM     31  N   UNL     1       7.194  -1.764   3.845  0.00  0.00    -0.130 NA
ATOM     32  C   UNL     1       8.247  -2.557   3.809  0.00  0.00    +0.205 A 
ATOM     33  N   UNL     1       7.830  -3.728   3.308  0.00  0.00    -0.108 NA
ATOM     34  N   UNL     1       6.568  -3.613   3.066  0.00  0.00    -0.045 NA
BRANCH  32  35
ATOM     35  C   UNL     1       9.627  -2.218   4.240  0.00  0.00    +0.023 A 
ATOM     36  C   UNL     1       9.909  -0.952   4.750  0.00  0.00    +0.012 A 
ATOM     37  C   UNL     1      11.193  -0.643   5.150  0.00  0.00    +0.001 A 
ATOM     38  C   UNL     1      12.199  -1.586   5.045  0.00  0.00    +0.000 A 
ATOM     39  C   UNL     1      11.924  -2.844   4.540  0.00  0.00    +0.001 A 
ATOM     40  C   UNL     1      10.642  -3.166   4.142  0.00  0.00    +0.012 A 
ENDBRANCH  32  35
ENDBRANCH  29  30
ENDBRANCH   2  29
TORSDOF 9
