REMARK  Name = ZINC13882006
REMARK  11 active torsions:
REMARK  status: ('A' for Active; 'I' for Inactive)
REMARK    1  A    between atoms: C_1  and  C_2
REMARK    2  A    between atoms: C_2  and  C_4
REMARK    3  A    between atoms: C_2  and  S_17
REMARK    4  A    between atoms: N_6  and  N_7
REMARK    5  A    between atoms: C_8  and  C_9
REMARK    6  A    between atoms: C_8  and  C_10
REMARK    7  A    between atoms: S_17  and  C_18
REMARK    8  A    between atoms: C_21  and  C_29
REMARK    9  A    between atoms: N_22  and  C_23
REMARK   10  A    between atoms: C_29  and  N_30
REMARK   11  A    between atoms: N_30  and  C_31
REMARK                            x       y       z     vdW  Elec       q    Type
REMARK                         _______ _______ _______ _____ _____    ______ ____
ROOT
ATOM      1  C   UNL     1      -1.852  -6.237  -1.540  0.00  0.00    +0.197 A 
ATOM      2  N   UNL     1      -1.496  -5.931  -0.313  0.00  0.00    -0.122 NA
ATOM      3  N   UNL     1      -1.796  -4.706  -0.064  0.00  0.00    -0.132 NA
ATOM      4  C   UNL     1      -2.364  -4.162  -1.103  0.00  0.00    +0.156 A 
ATOM      5  N   UNL     1      -2.417  -5.117  -2.084  0.00  0.00    -0.273 N 
ENDROOT
BRANCH   5   6
ATOM      6  C   UNL     1      -2.943  -4.975  -3.377  0.00  0.00    +0.050 A 
ATOM      7  C   UNL     1      -4.300  -4.745  -3.554  0.00  0.00    +0.026 A 
ATOM      8  C   UNL     1      -4.814  -4.600  -4.828  0.00  0.00    +0.002 A 
ATOM      9  C   UNL     1      -3.979  -4.695  -5.926  0.00  0.00    +0.000 A 
ATOM     10  C   UNL     1      -2.628  -4.930  -5.753  0.00  0.00    +0.002 A 
ATOM     11  C   UNL     1      -2.107  -5.070  -4.481  0.00  0.00    +0.026 A 
ENDBRANCH   5   6
BRANCH   1  12
ATOM     12  S   UNL     1      -1.639  -7.795  -2.334  0.00  0.00    -0.073 S 
BRANCH  12  14
ATOM     13  C   UNL     1       0.526  -8.111  -0.699  0.00  0.00    +0.029 C 
ATOM     14  C   UNL     1      -0.844  -8.723  -0.999  0.00  0.00    +0.139 C 
BRANCH  14  15
ATOM     15  C   UNL     1      -0.670 -10.160  -1.419  0.00  0.00    +0.245 C 
ATOM     16  O   UNL     1      -0.607 -10.444  -2.597  0.00  0.00    -0.273 OA
ATOM     17  N   UNL     1      -0.585 -11.129  -0.487  0.00  0.00    -0.206 N 
ATOM     18  H   UNL     1      -0.635 -10.902   0.455  0.00  0.00    +0.177 HD
BRANCH  17  19
ATOM     19  N   UNL     1      -0.424 -12.465  -0.877  0.00  0.00    -0.185 NA
ATOM     20  C   UNL     1      -0.457 -13.409   0.012  0.00  0.00    +0.063 C 
ATOM     21  C   UNL     1      -0.102 -14.822  -0.376  0.00  0.00    +0.068 C 
BRANCH  20  22
ATOM     22  C   UNL     1      -0.842 -13.101   1.401  0.00  0.00    -0.002 A 
ATOM     23  C   UNL     1      -0.218 -13.759   2.464  0.00  0.00    +0.012 A 
ATOM     24  C   UNL     1      -0.578 -13.462   3.762  0.00  0.00    +0.039 A 
ATOM     25  C   UNL     1      -1.564 -12.521   4.012  0.00  0.00    +0.123 A 
ATOM     26  C   UNL     1      -2.190 -11.868   2.962  0.00  0.00    +0.039 A 
ATOM     27  C   UNL     1      -1.835 -12.153   1.660  0.00  0.00    +0.012 A 
ATOM     28  F   UNL     1      -1.916 -12.238   5.285  0.00  0.00    -0.205 F 
ENDBRANCH  20  22
ENDBRANCH  17  19
ENDBRANCH  14  15
ENDBRANCH  12  14
ENDBRANCH   1  12
BRANCH   4  29
ATOM     29  C   UNL     1      -2.863  -2.744  -1.208  0.00  0.00    +0.178 C 
BRANCH  29  30
ATOM     30  N   UNL     1      -4.263  -2.687  -0.783  0.00  0.00    -0.337 N 
ATOM     31  H   UNL     1      -4.716  -3.494  -0.494  0.00  0.00    +0.147 HD
BRANCH  30  32
ATOM     32  C   UNL     1      -4.948  -1.468  -0.795  0.00  0.00    +0.028 A 
ATOM     33  C   UNL     1      -6.276  -1.412  -0.392  0.00  0.00    +0.024 A 
ATOM     34  C   UNL     1      -6.949  -0.206  -0.405  0.00  0.00    +0.022 A 
ATOM     35  C   UNL     1      -6.303   0.945  -0.817  0.00  0.00    +0.041 A 
ATOM     36  C   UNL     1      -4.979   0.892  -1.219  0.00  0.00    +0.022 A 
ATOM     37  C   UNL     1      -4.301  -0.311  -1.208  0.00  0.00    +0.024 A 
ATOM     38 CL   UNL     1      -7.153   2.459  -0.832  0.00  0.00    -0.084 Cl
ENDBRANCH  30  32
ENDBRANCH  29  30
ENDBRANCH   4  29
TORSDOF 9
