REMARK  Name = ZINC36692848
REMARK  14 active torsions:
REMARK  status: ('A' for Active; 'I' for Inactive)
REMARK    1  A    between atoms: C_1  and  C_2
REMARK    2  A    between atoms: C_2  and  N_3
REMARK    3  A    between atoms: N_3  and  C_4
REMARK    4  A    between atoms: N_3  and  C_6
REMARK    5  A    between atoms: C_4  and  C_5
REMARK    6  A    between atoms: C_6  and  C_8
REMARK    7  A    between atoms: C_6  and  C_27
REMARK    8  A    between atoms: C_8  and  N_9
REMARK    9  A    between atoms: C_10  and  C_12
REMARK   10  A    between atoms: C_12  and  C_14
REMARK   11  A    between atoms: C_12  and  N_17
REMARK   12  A    between atoms: C_14  and  C_15
REMARK   13  A    between atoms: C_14  and  C_16
REMARK   14  A    between atoms: C_18  and  C_20
REMARK                            x       y       z     vdW  Elec       q    Type
REMARK                         _______ _______ _______ _____ _____    ______ ____
ROOT
ATOM      1  N   UNL     1      -1.277  -2.350   1.025  0.00  0.00    -0.315 N 
ATOM      2  C   UNL     1      -1.175  -3.409   0.198  0.00  0.00    +0.234 C 
ATOM      3  O   UNL     1      -1.104  -3.238  -1.000  0.00  0.00    -0.274 OA
ATOM      4  H   UNL     1      -1.257  -2.481   1.986  0.00  0.00    +0.149 HD
ENDROOT
BRANCH   1   5
ATOM      5  C   UNL     1      -1.419  -1.000   0.472  0.00  0.00    +0.093 C 
BRANCH   5   6
ATOM      6  C   UNL     1      -1.369   0.024   1.608  0.00  0.00    -0.020 C 
BRANCH   6   7
ATOM      7  C   UNL     1      -1.401   1.416   1.031  0.00  0.00    -0.059 A 
ATOM      8  C   UNL     1      -1.921   1.629  -0.232  0.00  0.00    +0.002 A 
ATOM      9  C   UNL     1      -1.950   2.905  -0.761  0.00  0.00    +0.000 A 
ATOM     10  C   UNL     1      -1.459   3.969  -0.027  0.00  0.00    +0.000 A 
ATOM     11  C   UNL     1      -0.940   3.756   1.236  0.00  0.00    +0.000 A 
ATOM     12  C   UNL     1      -0.915   2.480   1.767  0.00  0.00    +0.002 A 
ENDBRANCH   6   7
BRANCH   6  13
ATOM     13  N   UNL     1      -0.132  -0.159   2.379  0.00  0.00    +0.385 N 
ATOM     14  H   UNL     1       0.115  -1.137   2.391  0.00  0.00    -0.081 HD
BRANCH  13  16
ATOM     15  C   UNL     1       1.114   0.176   0.297  0.00  0.00    -0.017 C 
ATOM     16  C   UNL     1       0.952   0.612   1.755  0.00  0.00    -0.081 C 
ENDBRANCH  13  16
BRANCH  13  17
ATOM     17  C   UNL     1      -0.338   0.312   3.755  0.00  0.00    -0.081 C 
ATOM     18  C   UNL     1      -1.302  -0.632   4.478  0.00  0.00    -0.017 C 
ENDBRANCH  13  17
ENDBRANCH   6  13
ENDBRANCH   5   6
ENDBRANCH   1   5
BRANCH   2  19
ATOM     19  C   UNL     1      -1.149  -4.806   0.763  0.00  0.00    +0.162 C 
BRANCH  19  20
ATOM     20  N   UNL     1      -0.606  -5.728  -0.238  0.00  0.00    -0.300 N 
ATOM     21  C   UNL     1      -0.021  -6.877   0.152  0.00  0.00    +0.247 C 
ATOM     22  O   UNL     1       0.056  -7.150   1.335  0.00  0.00    -0.270 OA
ATOM     23  H   UNL     1      -0.667  -5.510  -1.181  0.00  0.00    +0.150 HD
BRANCH  21  24
ATOM     24  C   UNL     1       0.527  -7.806  -0.857  0.00  0.00    +0.072 A 
ATOM     25  C   UNL     1       0.446  -7.494  -2.216  0.00  0.00    +0.016 A 
ATOM     26  C   UNL     1       0.960  -8.366  -3.152  0.00  0.00    +0.001 A 
ATOM     27  C   UNL     1       1.556  -9.549  -2.750  0.00  0.00    +0.003 A 
ATOM     28  C   UNL     1       1.640  -9.867  -1.408  0.00  0.00    +0.039 A 
ATOM     29  C   UNL     1       1.135  -9.000  -0.456  0.00  0.00    +0.135 A 
ATOM     30  F   UNL     1       1.223  -9.309   0.857  0.00  0.00    -0.205 F 
ENDBRANCH  21  24
ENDBRANCH  19  20
BRANCH  19  31
ATOM     31  C   UNL     1      -2.571  -5.234   1.131  0.00  0.00    +0.012 C 
ATOM     32  C   UNL     1      -2.534  -6.611   1.796  0.00  0.00    +0.009 C 
ATOM     33  C   UNL     1      -3.175  -4.216   2.101  0.00  0.00    +0.009 C 
ENDBRANCH  19  31
ENDBRANCH   2  19
TORSDOF 10
