REMARK  Name = ZINC36313015
REMARK  16 active torsions:
REMARK  status: ('A' for Active; 'I' for Inactive)
REMARK    1  A    between atoms: C_1  and  O_2
REMARK    2  A    between atoms: O_2  and  C_3
REMARK    3  A    between atoms: C_3  and  C_4
REMARK    4  A    between atoms: C_4  and  C_5
REMARK    5  A    between atoms: C_5  and  N_6
REMARK    6  A    between atoms: N_6  and  C_7
REMARK    7  A    between atoms: N_6  and  C_25
REMARK    8  A    between atoms: C_7  and  C_8
REMARK    9  A    between atoms: C_9  and  C_19
REMARK   10  A    between atoms: C_12  and  N_13
REMARK   11  A    between atoms: C_25  and  C_26
REMARK   12  A    between atoms: C_26  and  C_28
REMARK   13  A    between atoms: C_26  and  O_37
REMARK   14  A    between atoms: C_28  and  O_29
REMARK   15  A    between atoms: O_29  and  C_30
REMARK   16  A    between atoms: C_30  and  C_31
REMARK                            x       y       z     vdW  Elec       q    Type
REMARK                         _______ _______ _______ _____ _____    ______ ____
ROOT
ATOM      1  N   UNL     1       2.046  -4.512  -2.047  0.00  0.00    +0.384 N 
ATOM      2  H   UNL     1       2.338  -4.762  -1.114  0.00  0.00    -0.081 HD
ENDROOT
BRANCH   1   3
ATOM      3  C   UNL     1       2.312  -3.086  -2.278  0.00  0.00    -0.076 C 
BRANCH   3   4
ATOM      4  C   UNL     1       1.646  -2.258  -1.177  0.00  0.00    +0.009 C 
BRANCH   4   5
ATOM      5  C   UNL     1       2.034  -0.787  -1.341  0.00  0.00    +0.157 C 
BRANCH   5   7
ATOM      6  C   UNL     1       1.712   1.382  -0.374  0.00  0.00    +0.193 C 
ATOM      7  O   UNL     1       1.413  -0.014  -0.312  0.00  0.00    -0.383 OA
ENDBRANCH   5   7
ENDBRANCH   4   5
ENDBRANCH   3   4
ENDBRANCH   1   3
BRANCH   1   8
ATOM      8  C   UNL     1       0.608  -4.773  -2.196  0.00  0.00    -0.035 C 
BRANCH   8   9
ATOM      9  C   UNL     1       0.315  -6.204  -1.826  0.00  0.00    +0.025 A 
ATOM     10  C   UNL     1       0.204  -7.287  -2.724  0.00  0.00    +0.117 A 
ATOM     11  N   UNL     1      -0.055  -8.367  -2.025  0.00  0.00    -0.076 NA
ATOM     12  O   UNL     1      -0.116  -8.000  -0.658  0.00  0.00    -0.339 OA
ATOM     13  C   UNL     1       0.118  -6.680  -0.571  0.00  0.00    +0.222 A 
BRANCH  13  14
ATOM     14  N   UNL     1       0.151  -5.936   0.595  0.00  0.00    -0.299 N 
ATOM     15  C   UNL     1      -1.088  -5.399   1.175  0.00  0.00    +0.108 C 
ATOM     16  C   UNL     1      -1.180  -5.843   2.638  0.00  0.00    +0.019 C 
ATOM     17  C   UNL     1       0.093  -5.423   3.376  0.00  0.00    +0.003 C 
ATOM     18  C   UNL     1       1.304  -6.109   2.738  0.00  0.00    +0.019 C 
ATOM     19  C   UNL     1       1.423  -5.672   1.280  0.00  0.00    +0.108 C 
ENDBRANCH  13  14
BRANCH  10  20
ATOM     20  C   UNL     1       0.354  -7.216  -4.199  0.00  0.00    +0.004 A 
ATOM     21  C   UNL     1      -0.231  -6.172  -4.912  0.00  0.00    +0.010 A 
ATOM     22  C   UNL     1      -0.088  -6.111  -6.284  0.00  0.00    +0.001 A 
ATOM     23  C   UNL     1       0.634  -7.085  -6.950  0.00  0.00    +0.000 A 
ATOM     24  C   UNL     1       1.217  -8.124  -6.247  0.00  0.00    +0.001 A 
ATOM     25  C   UNL     1       1.085  -8.191  -4.875  0.00  0.00    +0.010 A 
ENDBRANCH  10  20
ENDBRANCH   8   9
ENDBRANCH   1   8
BRANCH   1  26
ATOM     26  C   UNL     1       2.792  -5.315  -3.025  0.00  0.00    -0.044 C 
BRANCH  26  27
ATOM     27  C   UNL     1       4.294  -5.139  -2.788  0.00  0.00    +0.124 C 
BRANCH  27  28
ATOM     28  O   UNL     1       4.641  -5.680  -1.512  0.00  0.00    -0.391 OA
ATOM     29  H   UNL     1       4.446  -6.622  -1.417  0.00  0.00    +0.210 HD
ENDBRANCH  27  28
BRANCH  27  30
ATOM     30  C   UNL     1       5.072  -5.874  -3.882  0.00  0.00    +0.189 C 
BRANCH  30  31
ATOM     31  O   UNL     1       6.468  -5.615  -3.729  0.00  0.00    -0.373 OA
BRANCH  31  32
ATOM     32  C   UNL     1       7.289  -6.258  -4.706  0.00  0.00    +0.195 C 
BRANCH  32  33
ATOM     33  C   UNL     1       8.735  -5.917  -4.451  0.00  0.00    -0.022 A 
ATOM     34  C   UNL     1       9.297  -4.801  -5.042  0.00  0.00    +0.006 A 
ATOM     35  C   UNL     1      10.623  -4.489  -4.808  0.00  0.00    +0.000 A 
ATOM     36  C   UNL     1      11.387  -5.292  -3.982  0.00  0.00    +0.000 A 
ATOM     37  C   UNL     1      10.825  -6.407  -3.389  0.00  0.00    +0.000 A 
ATOM     38  C   UNL     1       9.498  -6.717  -3.620  0.00  0.00    +0.006 A 
ENDBRANCH  32  33
ENDBRANCH  31  32
ENDBRANCH  30  31
ENDBRANCH  27  30
ENDBRANCH  26  27
ENDBRANCH   1  26
TORSDOF 15
