REMARK  Name = ZINC63340501
REMARK  11 active torsions:
REMARK  status: ('A' for Active; 'I' for Inactive)
REMARK    1  A    between atoms: C_1  and  C_2
REMARK    2  A    between atoms: C_4  and  C_26
REMARK    3  A    between atoms: C_5  and  S_22
REMARK    4  A    between atoms: C_7  and  C_8
REMARK    5  A    between atoms: N_10  and  C_11
REMARK    6  A    between atoms: C_11  and  C_12
REMARK    7  A    between atoms: C_12  and  C_13
REMARK    8  A    between atoms: C_12  and  C_14
REMARK    9  A    between atoms: C_12  and  N_15
REMARK   10  A    between atoms: C_19  and  C_21
REMARK   11  A    between atoms: S_22  and  N_25
REMARK                            x       y       z     vdW  Elec       q    Type
REMARK                         _______ _______ _______ _____ _____    ______ ____
ROOT
ATOM      1  C   UNL     1       1.639   1.997   4.366  0.00  0.00    +0.244 C 
ATOM      2  O   UNL     1       0.864   2.285   3.475  0.00  0.00    -0.270 OA
ATOM      3  N   UNL     1       1.266   1.135   5.332  0.00  0.00    -0.313 N 
ATOM      4  H   UNL     1       1.885   0.904   6.042  0.00  0.00    +0.149 HD
ENDROOT
BRANCH   1  11
ATOM      5  C   UNL     1       2.526   3.621   2.142  0.00  0.00    +0.044 C 
ATOM      6  C   UNL     1       3.431   3.377   3.321  0.00  0.00    -0.038 A 
ATOM      7  C   UNL     1       4.693   3.934   3.351  0.00  0.00    +0.009 A 
ATOM      8  C   UNL     1       5.526   3.710   4.434  0.00  0.00    -0.024 A 
ATOM      9  C   UNL     1       5.099   2.928   5.492  0.00  0.00    +0.109 A 
ATOM     10  C   UNL     1       3.840   2.365   5.475  0.00  0.00    +0.042 A 
ATOM     11  C   UNL     1       2.993   2.591   4.388  0.00  0.00    +0.041 A 
ATOM     12  C   UNL     1       6.903   4.321   4.460  0.00  0.00    +0.046 C 
BRANCH   9  13
ATOM     13  S   UNL     1       6.168   2.648   6.865  0.00  0.00    +0.056 S 
ATOM     14  O   UNL     1       6.667   3.920   7.256  0.00  0.00    -0.153 OA
ATOM     15  O   UNL     1       5.465   1.798   7.761  0.00  0.00    -0.153 OA
BRANCH  13  16
ATOM     16  N   UNL     1       7.464   1.781   6.309  0.00  0.00    -0.204 NA
ATOM     17  H   UNL     1       8.332   1.882   6.730  0.00  0.00    +0.144 HD
ATOM     18  H   UNL     1       7.355   1.172   5.561  0.00  0.00    +0.144 HD
ENDBRANCH  13  16
ENDBRANCH   9  13
ENDBRANCH   1  11
BRANCH   3  19
ATOM     19  C   UNL     1      -0.075   0.545   5.309  0.00  0.00    +0.092 C 
BRANCH  19  20
ATOM     20  C   UNL     1      -0.281  -0.302   6.566  0.00  0.00    -0.055 C 
ATOM     21  C   UNL     1      -0.290   0.606   7.798  0.00  0.00    -0.008 C 
ATOM     22  C   UNL     1      -1.616  -1.043   6.469  0.00  0.00    -0.008 C 
BRANCH  20  23
ATOM     23  N   UNL     1       0.812  -1.277   6.684  0.00  0.00    +0.384 N 
ATOM     24  C   UNL     1       0.804  -2.163   5.514  0.00  0.00    -0.078 C 
ATOM     25  C   UNL     1       1.989  -3.127   5.592  0.00  0.00    -0.018 C 
ATOM     26  C   UNL     1       1.876  -3.965   6.869  0.00  0.00    -0.001 C 
ATOM     27  C   UNL     1       1.810  -3.027   8.078  0.00  0.00    -0.031 C 
ATOM     28  C   UNL     1       0.631  -2.066   7.908  0.00  0.00    -0.075 C 
ATOM     29  C   UNL     1       1.618  -3.851   9.353  0.00  0.00    +0.005 C 
ATOM     30  H   UNL     1       1.694  -0.788   6.728  0.00  0.00    -0.081 HD
ENDBRANCH  20  23
ENDBRANCH  19  20
ENDBRANCH   3  19
TORSDOF 6
