REMARK  Name = ZINC03033324
REMARK  11 active torsions:
REMARK  status: ('A' for Active; 'I' for Inactive)
REMARK    1  A    between atoms: C_1  and  C_2
REMARK    2  A    between atoms: C_3  and  C_21
REMARK    3  A    between atoms: C_4  and  C_20
REMARK    4  A    between atoms: C_8  and  C_11
REMARK    5  A    between atoms: N_13  and  C_14
REMARK    6  A    between atoms: C_14  and  C_15
REMARK    7  A    between atoms: C_15  and  O_16
REMARK    8  A    between atoms: C_15  and  O_18
REMARK    9  A    between atoms: O_16  and  C_17
REMARK   10  A    between atoms: O_18  and  C_19
REMARK   11  A    between atoms: C_21  and  C_22
REMARK                            x       y       z     vdW  Elec       q    Type
REMARK                         _______ _______ _______ _____ _____    ______ ____
ROOT
ATOM      1  C   UNL     1       3.399  -0.283   6.673  0.00  0.00    +0.066 C 
ATOM      2  C   UNL     1       2.010   0.151   6.281  0.00  0.00    +0.046 A 
ATOM      3  C   UNL     1       1.024   0.307   7.262  0.00  0.00    -0.001 A 
ATOM      4  C   UNL     1      -0.223   0.698   6.896  0.00  0.00    +0.047 A 
ATOM      5  N   UNL     1      -0.486   0.932   5.579  0.00  0.00    -0.218 N 
ATOM      6  C   UNL     1       0.504   0.769   4.651  0.00  0.00    +0.168 A 
ATOM      7  N   UNL     1       1.727   0.384   5.018  0.00  0.00    -0.232 NA
ATOM      8  C   UNL     1      -0.060   1.078   3.399  0.00  0.00    +0.100 A 
ATOM      9  C   UNL     1      -1.402   1.430   3.629  0.00  0.00    +0.150 A 
ATOM     10  N   UNL     1      -1.646   1.336   4.910  0.00  0.00    -0.172 NA
ATOM     11  C   UNL     1      -1.303   0.873   7.932  0.00  0.00    +0.066 C 
ENDROOT
BRANCH   8  12
ATOM     12  C   UNL     1       0.623   1.046   2.102  0.00  0.00    +0.249 C 
ATOM     13  O   UNL     1       1.796   0.726   2.040  0.00  0.00    -0.270 OA
ATOM     14  N   UNL     1      -0.047   1.369   0.979  0.00  0.00    -0.306 N 
ATOM     15  H   UNL     1      -0.982   1.623   1.028  0.00  0.00    +0.149 HD
BRANCH  14  16
ATOM     16  C   UNL     1       0.636   1.337  -0.317  0.00  0.00    +0.165 C 
BRANCH  16  17
ATOM     17  C   UNL     1      -0.344   1.744  -1.420  0.00  0.00    +0.266 C 
BRANCH  17  18
ATOM     18  O   UNL     1      -1.445   0.833  -1.439  0.00  0.00    -0.353 OA
ATOM     19  C   UNL     1      -2.092   0.730  -2.709  0.00  0.00    +0.197 C 
ENDBRANCH  17  18
BRANCH  17  20
ATOM     20  O   UNL     1      -0.823   3.066  -1.167  0.00  0.00    -0.353 OA
ATOM     21  C   UNL     1      -1.490   3.665  -2.280  0.00  0.00    +0.197 C 
ENDBRANCH  17  20
ENDBRANCH  16  17
ENDBRANCH  14  16
ENDBRANCH   8  12
BRANCH   3  22
ATOM     22  C   UNL     1       1.344   0.042   8.711  0.00  0.00    +0.073 C 
BRANCH  22  23
ATOM     23  C   UNL     1       1.828   1.313   9.359  0.00  0.00    -0.043 A 
ATOM     24  C   UNL     1       3.177   1.617   9.362  0.00  0.00    +0.005 A 
ATOM     25  C   UNL     1       3.621   2.785   9.951  0.00  0.00    +0.020 A 
ATOM     26  C   UNL     1       2.717   3.646  10.548  0.00  0.00    +0.041 A 
ATOM     27  C   UNL     1       1.368   3.339  10.549  0.00  0.00    +0.020 A 
ATOM     28  C   UNL     1       0.924   2.173   9.955  0.00  0.00    +0.005 A 
ATOM     29 CL   UNL     1       3.275   5.111  11.294  0.00  0.00    -0.084 Cl
ENDBRANCH  22  23
ENDBRANCH   3  22
TORSDOF 7
