REMARK  Name = ZINC14015258
REMARK  7 active torsions:
REMARK  status: ('A' for Active; 'I' for Inactive)
REMARK    1  A    between atoms: C_1  and  C_2
REMARK    2  A    between atoms: C_5  and  N_8
REMARK    3  A    between atoms: C_20  and  C_22
REMARK    4  A    between atoms: C_22  and  C_23
REMARK    5  A    between atoms: N_25  and  C_26
REMARK    6  A    between atoms: C_31  and  S_32
REMARK    7  A    between atoms: S_32  and  C_33
REMARK                            x       y       z     vdW  Elec       q    Type
REMARK                         _______ _______ _______ _____ _____    ______ ____
ROOT
ATOM      1  N   UNL     1       0.931   4.019  -0.535  0.00  0.00    -0.214 N 
ATOM      2  C   UNL     1       1.859   4.714   0.178  0.00  0.00    +0.171 A 
ATOM      3  C   UNL     1       1.526   6.074   0.060  0.00  0.00    +0.103 A 
ATOM      4  C   UNL     1       0.365   6.145  -0.740  0.00  0.00    +0.150 A 
ATOM      5  N   UNL     1       0.024   4.935  -1.084  0.00  0.00    -0.172 NA
ATOM      6  C   UNL     1       2.335   7.032   0.707  0.00  0.00    +0.266 A 
ATOM      7  O   UNL     1       2.064   8.217   0.623  0.00  0.00    -0.267 OA
ATOM      8  N   UNL     1       3.429   6.627   1.430  0.00  0.00    -0.283 N 
ATOM      9  C   UNL     1       3.681   5.286   1.486  0.00  0.00    +0.174 A 
ATOM     10  N   UNL     1       2.939   4.379   0.890  0.00  0.00    -0.203 NA
ATOM     11  S   UNL     1       5.142   5.079   2.482  0.00  0.00    -0.085 S 
ATOM     12  C   UNL     1       5.484   6.834   2.876  0.00  0.00    +0.103 C 
ATOM     13  C   UNL     1       4.332   7.532   2.139  0.00  0.00    +0.112 C 
ENDROOT
BRANCH   1  18
ATOM     14  C   UNL     1       0.753  -1.618  -1.162  0.00  0.00    +0.044 C 
ATOM     15  C   UNL     1       0.801  -0.121  -0.995  0.00  0.00    -0.050 A 
ATOM     16  C   UNL     1      -0.376   0.601  -0.908  0.00  0.00    +0.005 A 
ATOM     17  C   UNL     1      -0.336   1.973  -0.756  0.00  0.00    +0.028 A 
ATOM     18  C   UNL     1       0.887   2.627  -0.689  0.00  0.00    +0.068 A 
ATOM     19  C   UNL     1       2.067   1.899  -0.776  0.00  0.00    +0.028 A 
ATOM     20  C   UNL     1       2.020   0.528  -0.929  0.00  0.00    +0.005 A 
ENDBRANCH   1  18
BRANCH  13  21
ATOM     21  C   UNL     1       3.518   8.332   3.157  0.00  0.00    +0.122 C 
BRANCH  21  22
ATOM     22  C   UNL     1       4.396   9.379   3.792  0.00  0.00    +0.219 C 
ATOM     23  O   UNL     1       5.533   9.537   3.399  0.00  0.00    -0.275 OA
ATOM     24  N   UNL     1       3.918  10.140   4.796  0.00  0.00    -0.285 N 
ATOM     25  H   UNL     1       3.037   9.965   5.161  0.00  0.00    +0.155 HD
BRANCH  24  26
ATOM     26  C   UNL     1       4.695  11.186   5.314  0.00  0.00    +0.047 A 
ATOM     27  C   UNL     1       5.732  11.718   4.563  0.00  0.00    +0.024 A 
ATOM     28  C   UNL     1       6.498  12.749   5.075  0.00  0.00    +0.002 A 
ATOM     29  C   UNL     1       6.232  13.254   6.335  0.00  0.00    +0.001 A 
ATOM     30  C   UNL     1       5.200  12.730   7.091  0.00  0.00    +0.016 A 
ATOM     31  C   UNL     1       4.424  11.698   6.583  0.00  0.00    +0.029 A 
BRANCH  31  32
ATOM     32  S   UNL     1       3.102  11.032   7.540  0.00  0.00    -0.127 S 
ATOM     33  C   UNL     1       3.142  11.999   9.075  0.00  0.00    +0.090 C 
ENDBRANCH  31  32
ENDBRANCH  24  26
ENDBRANCH  21  22
ENDBRANCH  13  21
TORSDOF 5
