REMARK  Name = ZINC08878237
REMARK  14 active torsions:
REMARK  status: ('A' for Active; 'I' for Inactive)
REMARK    1  A    between atoms: C_1  and  C_2
REMARK    2  A    between atoms: C_3  and  C_39
REMARK    3  A    between atoms: C_9  and  O_19
REMARK    4  A    between atoms: C_15  and  C_17
REMARK    5  A    between atoms: C_15  and  C_18
REMARK    6  A    between atoms: O_19  and  C_20
REMARK    7  A    between atoms: C_20  and  C_21
REMARK    8  A    between atoms: N_23  and  C_24
REMARK    9  A    between atoms: C_24  and  C_26
REMARK   10  A    between atoms: C_24  and  C_33
REMARK   11  A    between atoms: C_26  and  C_27
REMARK   12  A    between atoms: N_35  and  C_36
REMARK   13  A    between atoms: C_36  and  C_37
REMARK   14  A    between atoms: C_36  and  C_38
REMARK                            x       y       z     vdW  Elec       q    Type
REMARK                         _______ _______ _______ _____ _____    ______ ____
ROOT
ATOM      1  O   UNL     1       0.004  -0.006   0.095  0.00  0.00    -0.482 OA
ENDROOT
BRANCH   1  10
ATOM      2  C   UNL     1       1.280  -2.154  -0.017  0.00  0.00    +0.045 C 
ATOM      3  C   UNL     1      -0.073  -2.818  -0.011  0.00  0.00    -0.027 A 
ATOM      4  C   UNL     1      -0.179  -4.172  -0.063  0.00  0.00    +0.038 A 
ATOM      5  C   UNL     1      -1.452  -4.777  -0.056  0.00  0.00    +0.340 A 
ATOM      6  O   UNL     1      -1.539  -5.991  -0.104  0.00  0.00    -0.245 OA
ATOM      7  O   UNL     1      -2.572  -4.035   0.001  0.00  0.00    -0.421 OA
ATOM      8  C   UNL     1      -2.509  -2.686   0.054  0.00  0.00    +0.149 A 
ATOM      9  C   UNL     1      -1.258  -2.042   0.049  0.00  0.00    +0.063 A 
ATOM     10  C   UNL     1      -1.197  -0.639   0.101  0.00  0.00    +0.136 A 
ATOM     11  C   UNL     1      -2.366   0.090   0.166  0.00  0.00    +0.092 A 
ATOM     12  C   UNL     1      -3.605  -0.552   0.169  0.00  0.00    +0.131 A 
ATOM     13  C   UNL     1      -3.675  -1.933   0.114  0.00  0.00    +0.038 A 
ATOM     14  C   UNL     1      -4.999  -2.655   0.114  0.00  0.00    +0.046 C 
ATOM     15  C   UNL     1      -6.099  -1.716   0.615  0.00  0.00    +0.052 C 
ATOM     16  C   UNL     1      -5.968  -0.381  -0.130  0.00  0.00    +0.105 C 
ATOM     17  O   UNL     1      -4.723   0.216   0.235  0.00  0.00    -0.486 OA
ATOM     18  C   UNL     1      -7.120   0.545   0.266  0.00  0.00    +0.055 C 
ATOM     19  C   UNL     1      -5.999  -0.628  -1.639  0.00  0.00    +0.055 C 
ATOM     20  C   UNL     1       1.061  -5.025  -0.127  0.00  0.00    +0.051 C 
ENDBRANCH   1  10
BRANCH   1  21
ATOM     21  C   UNL     1      -0.015   1.422   0.150  0.00  0.00    +0.324 C 
BRANCH  21  22
ATOM     22  C   UNL     1       1.399   1.944   0.134  0.00  0.00    +0.251 C 
ATOM     23  O   UNL     1       2.330   1.169   0.080  0.00  0.00    -0.272 OA
ATOM     24  N   UNL     1       1.627   3.271   0.180  0.00  0.00    -0.301 N 
ATOM     25  H   UNL     1       0.882   3.890   0.223  0.00  0.00    +0.150 HD
BRANCH  24  26
ATOM     26  C   UNL     1       3.002   3.778   0.164  0.00  0.00    +0.163 C 
BRANCH  26  27
ATOM     27  C   UNL     1       3.552   3.781   1.566  0.00  0.00    +0.234 C 
ATOM     28  O   UNL     1       2.865   3.398   2.489  0.00  0.00    -0.274 OA
ATOM     29  N   UNL     1       4.809   4.211   1.796  0.00  0.00    -0.311 N 
ATOM     30  H   UNL     1       5.359   4.518   1.058  0.00  0.00    +0.149 HD
BRANCH  29  31
ATOM     31  C   UNL     1       5.344   4.214   3.160  0.00  0.00    +0.067 C 
ATOM     32  C   UNL     1       5.913   2.832   3.487  0.00  0.00    +0.027 C 
ATOM     33  C   UNL     1       6.454   5.261   3.270  0.00  0.00    +0.027 C 
ENDBRANCH  29  31
ENDBRANCH  26  27
BRANCH  26  34
ATOM     34  C   UNL     1       3.013   5.204  -0.392  0.00  0.00    +0.067 C 
BRANCH  34  35
ATOM     35  C   UNL     1       2.578   5.184  -1.835  0.00  0.00    -0.045 A 
ATOM     36  C   UNL     1       3.518   5.040  -2.838  0.00  0.00    +0.004 A 
ATOM     37  C   UNL     1       3.119   5.017  -4.161  0.00  0.00    +0.000 A 
ATOM     38  C   UNL     1       1.781   5.149  -4.482  0.00  0.00    +0.000 A 
ATOM     39  C   UNL     1       0.841   5.299  -3.479  0.00  0.00    +0.000 A 
ATOM     40  C   UNL     1       1.240   5.317  -2.155  0.00  0.00    +0.004 A 
ENDBRANCH  34  35
ENDBRANCH  26  34
ENDBRANCH  24  26
ENDBRANCH  21  22
ENDBRANCH   1  21
TORSDOF 8
