REMARK  Name = ZINC60154393
REMARK  9 active torsions:
REMARK  status: ('A' for Active; 'I' for Inactive)
REMARK    1  A    between atoms: C_1  and  C_2
REMARK    2  A    between atoms: C_2  and  C_3
REMARK    3  A    between atoms: C_6  and  C_9
REMARK    4  A    between atoms: C_9  and  C_11
REMARK    5  A    between atoms: C_9  and  N_14
REMARK    6  A    between atoms: C_11  and  C_12
REMARK    7  A    between atoms: C_11  and  C_13
REMARK    8  A    between atoms: C_15  and  C_17
REMARK    9  A    between atoms: C_21  and  N_23
REMARK                            x       y       z     vdW  Elec       q    Type
REMARK                         _______ _______ _______ _____ _____    ______ ____
ROOT
ATOM      1  C   UNL     1       5.755  -0.092  -6.251  0.00  0.00    +0.039 A 
ATOM      2  C   UNL     1       6.504   0.157  -5.100  0.00  0.00    +0.013 A 
ATOM      3  C   UNL     1       7.824   0.546  -5.207  0.00  0.00    +0.003 A 
ATOM      4  C   UNL     1       8.408   0.692  -6.451  0.00  0.00    +0.025 A 
ATOM      5  C   UNL     1       7.671   0.446  -7.603  0.00  0.00    +0.057 A 
ATOM      6  C   UNL     1       6.346   0.049  -7.507  0.00  0.00    +0.038 A 
ENDROOT
BRANCH   5   7
ATOM      7  N   UNL     1       8.267   0.595  -8.860  0.00  0.00    -0.188 N 
ATOM      8  C   UNL     1       8.974   1.709  -9.143  0.00  0.00    +0.240 C 
ATOM      9  O   UNL     1       9.051   2.605  -8.329  0.00  0.00    -0.273 OA
ATOM     10  C   UNL     1       9.667   1.833 -10.473  0.00  0.00    +0.093 C 
ATOM     11  C   UNL     1      10.865   2.778 -10.363  0.00  0.00    +0.040 C 
ATOM     12  C   UNL     1      11.691   2.694 -11.615  0.00  0.00    -0.030 C 
ATOM     13  C   UNL     1      11.613   1.727 -12.473  0.00  0.00    -0.030 C 
ATOM     14  C   UNL     1      10.683   0.554 -12.339  0.00  0.00    +0.040 C 
ATOM     15  C   UNL     1      10.175   0.449 -10.903  0.00  0.00    +0.092 C 
ATOM     16  C   UNL     1       9.043  -0.539 -10.808  0.00  0.00    +0.234 C 
ATOM     17  O   UNL     1       8.955  -1.444 -11.610  0.00  0.00    -0.274 OA
ATOM     18  N   UNL     1       8.134  -0.416  -9.822  0.00  0.00    -0.227 N 
ATOM     19  H   UNL     1       7.382  -1.028  -9.780  0.00  0.00    +0.173 HD
ENDBRANCH   5   7
BRANCH   1  21
ATOM     20  N   UNL     1       3.772  -0.645  -4.926  0.00  0.00    -0.304 N 
ATOM     21  C   UNL     1       4.341  -0.510  -6.140  0.00  0.00    +0.245 C 
ATOM     22  O   UNL     1       3.692  -0.731  -7.144  0.00  0.00    -0.270 OA
ATOM     23  H   UNL     1       4.290  -0.469  -4.125  0.00  0.00    +0.150 HD
BRANCH  20  24
ATOM     24  C   UNL     1       2.371  -1.059  -4.816  0.00  0.00    +0.106 C 
BRANCH  24  28
ATOM     25  C   UNL     1       0.758   0.339  -1.116  0.00  0.00    -0.048 A 
ATOM     26  C   UNL     1      -0.008   0.386  -2.265  0.00  0.00    +0.004 A 
ATOM     27  C   UNL     1       0.514  -0.066  -3.463  0.00  0.00    +0.006 A 
ATOM     28  C   UNL     1       1.802  -0.565  -3.511  0.00  0.00    -0.027 A 
ATOM     29  C   UNL     1       2.569  -0.611  -2.361  0.00  0.00    +0.006 A 
ATOM     30  C   UNL     1       2.049  -0.154  -1.165  0.00  0.00    +0.004 A 
BRANCH  25  32
ATOM     31  C   UNL     1       0.493   2.324   0.347  0.00  0.00    +0.009 C 
ATOM     32  C   UNL     1       0.189   0.833   0.190  0.00  0.00    +0.032 C 
ENDBRANCH  25  32
ENDBRANCH  24  28
BRANCH  24  33
ATOM     33  C   UNL     1       2.284  -2.586  -4.864  0.00  0.00    +0.008 C 
ATOM     34  C   UNL     1       2.978  -3.175  -3.635  0.00  0.00    +0.009 C 
ATOM     35  C   UNL     1       0.816  -3.014  -4.875  0.00  0.00    +0.009 C 
ENDBRANCH  24  33
ENDBRANCH  20  24
ENDBRANCH   1  21
TORSDOF 6
