REMARK  Name = ZINC01512153
REMARK  4 active torsions:
REMARK  status: ('A' for Active; 'I' for Inactive)
REMARK    1  A    between atoms: C_3  and  C_10
REMARK    2  A    between atoms: C_5  and  N_7
REMARK    3  A    between atoms: N_12  and  N_13
REMARK    4  A    between atoms: C_22  and  O_23
REMARK                            x       y       z     vdW  Elec       q    Type
REMARK                         _______ _______ _______ _____ _____    ______ ____
ROOT
ATOM      1  C   UNL     1       3.646   2.171   0.135  0.00  0.00    +0.263 C 
ATOM      2  O   UNL     1       4.690   1.592   0.363  0.00  0.00    -0.268 OA
ATOM      3  N   UNL     1       3.645   3.503  -0.069  0.00  0.00    -0.202 N 
ATOM      4  H   UNL     1       2.812   3.965  -0.251  0.00  0.00    +0.178 HD
ENDROOT
BRANCH   3   5
ATOM      5  N   UNL     1       4.752   4.164  -0.022  0.00  0.00    -0.174 NA
ATOM      6  C   UNL     1       4.739   5.474  -0.115  0.00  0.00    +0.152 C 
ATOM      7  C   UNL     1       3.563   6.375  -0.111  0.00  0.00    +0.034 A 
ATOM      8  C   UNL     1       2.194   6.171  -0.017  0.00  0.00    +0.027 A 
ATOM      9  C   UNL     1       1.337   7.255  -0.045  0.00  0.00    +0.019 A 
ATOM     10  C   UNL     1       1.842   8.541  -0.166  0.00  0.00    +0.017 A 
ATOM     11  C   UNL     1       3.200   8.759  -0.259  0.00  0.00    +0.029 A 
ATOM     12  C   UNL     1       4.086   7.678  -0.233  0.00  0.00    +0.077 A 
ATOM     13  N   UNL     1       5.442   7.611  -0.307  0.00  0.00    -0.211 NA
ATOM     14  C   UNL     1       5.892   6.386  -0.240  0.00  0.00    +0.241 C 
ATOM     15 BR   UNL     1      -0.530   6.985   0.082  0.00  0.00    -0.050 Br
BRANCH  14  16
ATOM     16  O   UNL     1       7.195   6.016  -0.282  0.00  0.00    -0.491 OA
ATOM     17  H   UNL     1       7.811   6.756  -0.367  0.00  0.00    +0.294 HD
ENDBRANCH  14  16
ENDBRANCH   3   5
BRANCH   1  20
ATOM     18  C   UNL     1      -0.002   1.363  -0.230  0.00  0.00    +0.003 A 
ATOM     19  C   UNL     1       1.178   2.076  -0.181  0.00  0.00    +0.013 A 
ATOM     20  C   UNL     1       2.379   1.414   0.081  0.00  0.00    +0.041 A 
ATOM     21  C   UNL     1       2.377   0.033   0.291  0.00  0.00    +0.045 A 
ATOM     22  C   UNL     1       1.190  -0.667   0.239  0.00  0.00    +0.127 A 
ATOM     23  C   UNL     1       0.003  -0.005  -0.021  0.00  0.00    +0.033 A 
BRANCH  22  24
ATOM     24  N   UNL     1       1.186  -2.131   0.461  0.00  0.00    +0.056 N 
ATOM     25  O   UNL     1       2.223  -2.711   0.688  0.00  0.00    -0.126 OA
ATOM     26  O   UNL     1       0.146  -2.746   0.416  0.00  0.00    -0.126 OA
ENDBRANCH  22  24
ENDBRANCH   1  20
TORSDOF 4
