REMARK  Name = ZINC13012678
REMARK  10 active torsions:
REMARK  status: ('A' for Active; 'I' for Inactive)
REMARK    1  A    between atoms: C_1  and  C_2
REMARK    2  A    between atoms: C_2  and  C_3
REMARK    3  A    between atoms: C_3  and  C_33
REMARK    4  A    between atoms: N_6  and  C_10
REMARK    5  A    between atoms: C_10  and  C_11
REMARK    6  A    between atoms: N_13  and  C_14
REMARK    7  A    between atoms: C_17  and  S_20
REMARK    8  A    between atoms: S_20  and  N_23
REMARK    9  A    between atoms: C_25  and  C_32
REMARK   10  A    between atoms: C_28  and  C_31
REMARK                            x       y       z     vdW  Elec       q    Type
REMARK                         _______ _______ _______ _____ _____    ______ ____
ROOT
ATOM      1  C   UNL     1       5.466   2.343  -4.416  0.00  0.00    +0.235 C 
ATOM      2  O   UNL     1       6.156   2.820  -5.292  0.00  0.00    -0.274 OA
ATOM      3  N   UNL     1       5.416   1.006  -4.250  0.00  0.00    -0.284 N 
ATOM      4  H   UNL     1       4.918   0.628  -3.509  0.00  0.00    +0.155 HD
ENDROOT
BRANCH   3   5
ATOM      5  C   UNL     1       6.082   0.164  -5.148  0.00  0.00    +0.034 A 
ATOM      6  C   UNL     1       5.532  -1.064  -5.489  0.00  0.00    +0.025 A 
ATOM      7  C   UNL     1       6.192  -1.893  -6.375  0.00  0.00    +0.030 A 
ATOM      8  C   UNL     1       7.400  -1.500  -6.922  0.00  0.00    +0.106 A 
ATOM      9  C   UNL     1       7.951  -0.278  -6.584  0.00  0.00    +0.030 A 
ATOM     10  C   UNL     1       7.293   0.558  -5.703  0.00  0.00    +0.025 A 
BRANCH   8  11
ATOM     11  S   UNL     1       8.239  -2.560  -8.052  0.00  0.00    +0.061 S 
ATOM     12  O   UNL     1       9.613  -2.202  -8.002  0.00  0.00    -0.153 OA
ATOM     13  O   UNL     1       7.785  -3.880  -7.784  0.00  0.00    -0.153 OA
BRANCH  11  14
ATOM     14  N   UNL     1       7.705  -2.177  -9.572  0.00  0.00    -0.176 NA
ATOM     15  C   UNL     1       6.532  -2.851 -10.146  0.00  0.00    +0.112 C 
ATOM     16  C   UNL     1       5.529  -1.788 -10.606  0.00  0.00    +0.002 C 
ATOM     17  C   UNL     1       6.224  -0.815 -11.560  0.00  0.00    +0.009 C 
ATOM     18  C   UNL     1       7.370  -0.112 -10.829  0.00  0.00    +0.002 C 
ATOM     19  C   UNL     1       8.391  -1.151 -10.370  0.00  0.00    +0.112 C 
ATOM     20  C   UNL     1       8.043   0.885 -11.774  0.00  0.00    +0.009 C 
ATOM     21  C   UNL     1       4.362  -2.466 -11.327  0.00  0.00    +0.009 C 
ENDBRANCH  11  14
ENDBRANCH   8  11
ENDBRANCH   3   5
BRANCH   1  22
ATOM     22  C   UNL     1       4.665   3.245  -3.513  0.00  0.00    +0.214 C 
BRANCH  22  26
ATOM     23  C   UNL     1       4.733   6.702  -4.868  0.00  0.00    +0.138 C 
ATOM     24  C   UNL     1       4.144   5.307  -4.799  0.00  0.00    +0.251 C 
ATOM     25  O   UNL     1       3.200   4.880  -5.428  0.00  0.00    -0.272 OA
ATOM     26  N   UNL     1       4.888   4.641  -3.895  0.00  0.00    -0.215 N 
ATOM     27  C   UNL     1       5.856   5.413  -3.388  0.00  0.00    +0.310 C 
ATOM     28  O   UNL     1       6.655   5.035  -2.554  0.00  0.00    -0.252 OA
ATOM     29  N   UNL     1       5.846   6.656  -3.904  0.00  0.00    -0.281 N 
ATOM     30  H   UNL     1       6.453   7.380  -3.684  0.00  0.00    +0.152 HD
BRANCH  23  31
ATOM     31  C   UNL     1       5.245   6.997  -6.254  0.00  0.00    -0.015 A 
ATOM     32  C   UNL     1       4.429   7.631  -7.172  0.00  0.00    +0.006 A 
ATOM     33  C   UNL     1       4.899   7.901  -8.444  0.00  0.00    +0.000 A 
ATOM     34  C   UNL     1       6.185   7.539  -8.797  0.00  0.00    +0.000 A 
ATOM     35  C   UNL     1       7.002   6.906  -7.879  0.00  0.00    +0.000 A 
ATOM     36  C   UNL     1       6.533   6.639  -6.606  0.00  0.00    +0.006 A 
ENDBRANCH  23  31
BRANCH  23  38
ATOM     37  C   UNL     1       3.248   7.465  -3.010  0.00  0.00    +0.007 C 
ATOM     38  C   UNL     1       3.698   7.746  -4.445  0.00  0.00    +0.037 C 
ENDBRANCH  23  38
ENDBRANCH  22  26
ENDBRANCH   1  22
TORSDOF 7
