REMARK  Name = ZINC60166225
REMARK  6 active torsions:
REMARK  status: ('A' for Active; 'I' for Inactive)
REMARK    1  A    between atoms: C_3  and  C_8
REMARK    2  A    between atoms: C_8  and  C_10
REMARK    3  A    between atoms: C_8  and  N_27
REMARK    4  A    between atoms: C_10  and  N_11
REMARK    5  A    between atoms: C_12  and  C_14
REMARK    6  A    between atoms: C_17  and  C_22
REMARK                            x       y       z     vdW  Elec       q    Type
REMARK                         _______ _______ _______ _____ _____    ______ ____
ROOT
ATOM      1  N   UNL     1       3.405   2.895  -2.316  0.00  0.00    -0.312 N 
ATOM      2  C   UNL     1       3.741   2.968  -3.619  0.00  0.00    +0.249 C 
ATOM      3  O   UNL     1       4.838   2.590  -3.987  0.00  0.00    -0.270 OA
ATOM      4  H   UNL     1       2.559   3.260  -2.012  0.00  0.00    +0.149 HD
ENDROOT
BRANCH   2   5
ATOM      5  C   UNL     1       2.784   3.503  -4.595  0.00  0.00    +0.101 A 
ATOM      6  C   UNL     1       1.566   4.044  -4.168  0.00  0.00    +0.020 A 
ATOM      7  C   UNL     1       0.682   4.543  -5.109  0.00  0.00    +0.030 A 
ATOM      8  C   UNL     1       1.010   4.500  -6.458  0.00  0.00    +0.085 A 
ATOM      9  N   UNL     1       2.203   3.970  -6.870  0.00  0.00    -0.319 N 
ATOM     10  H   UNL     1       2.416   3.949  -7.816  0.00  0.00    +0.169 HD
ATOM     11  C   UNL     1       3.086   3.482  -5.979  0.00  0.00    +0.261 A 
ATOM     12  O   UNL     1       4.146   3.018  -6.364  0.00  0.00    -0.267 OA
BRANCH   8  13
ATOM     13  C   UNL     1       0.071   5.029  -7.450  0.00  0.00    +0.151 A 
ATOM     14  C   UNL     1       0.259   5.048  -8.804  0.00  0.00    +0.051 A 
ATOM     15  C   UNL     1      -0.886   5.639  -9.361  0.00  0.00    +0.042 A 
ATOM     16  C   UNL     1      -1.711   5.951  -8.338  0.00  0.00    +0.196 A 
ATOM     17  O   UNL     1      -1.133   5.576  -7.188  0.00  0.00    -0.461 OA
ENDBRANCH   8  13
ENDBRANCH   2   5
BRANCH   1  18
ATOM     18  C   UNL     1       4.316   2.264  -1.359  0.00  0.00    +0.094 C 
BRANCH  18  19
ATOM     19  C   UNL     1       3.646   2.196   0.015  0.00  0.00    -0.020 C 
BRANCH  19  22
ATOM     20  C   UNL     1       0.094   0.939  -0.233  0.00  0.00    +0.002 A 
ATOM     21  C   UNL     1       1.184   1.788  -0.172  0.00  0.00    +0.002 A 
ATOM     22  C   UNL     1       2.459   1.270  -0.051  0.00  0.00    -0.058 A 
ATOM     23  C   UNL     1       2.646  -0.099   0.011  0.00  0.00    +0.022 A 
ATOM     24  C   UNL     1       1.556  -0.949  -0.050  0.00  0.00    +0.041 A 
ATOM     25  C   UNL     1       0.280  -0.429  -0.171  0.00  0.00    +0.020 A 
ATOM     26 CL   UNL     1       1.790  -2.667   0.026  0.00  0.00    -0.084 Cl
ENDBRANCH  19  22
BRANCH  19  27
ATOM     27  N   UNL     1       4.607   1.690   1.004  0.00  0.00    +0.385 N 
ATOM     28  C   UNL     1       5.703   2.673   1.202  0.00  0.00    -0.078 C 
ATOM     29  C   UNL     1       6.269   2.297   2.595  0.00  0.00    -0.020 C 
ATOM     30  C   UNL     1       5.002   1.910   3.390  0.00  0.00    -0.020 C 
ATOM     31  C   UNL     1       3.953   1.545   2.323  0.00  0.00    -0.078 C 
ATOM     32  H   UNL     1       4.984   0.804   0.703  0.00  0.00    -0.081 HD
ENDBRANCH  19  27
ENDBRANCH  18  19
ENDBRANCH   1  18
TORSDOF 6
