REMARK  Name = ZINC10039714
REMARK  8 active torsions:
REMARK  status: ('A' for Active; 'I' for Inactive)
REMARK    1  A    between atoms: C_1  and  C_2
REMARK    2  A    between atoms: C_2  and  C_3
REMARK    3  A    between atoms: C_3  and  C_4
REMARK    4  A    between atoms: C_4  and  C_5
REMARK    5  A    between atoms: C_8  and  N_11
REMARK    6  A    between atoms: C_15  and  C_32
REMARK    7  A    between atoms: C_16  and  N_20
REMARK    8  A    between atoms: C_21  and  C_23
REMARK                            x       y       z     vdW  Elec       q    Type
REMARK                         _______ _______ _______ _____ _____    ______ ____
ROOT
ATOM      1  N   UNL     1      -2.713   2.922   4.643  0.00  0.00    -0.149 N 
ATOM      2  N   UNL     1      -2.430   4.032   5.230  0.00  0.00    -0.147 NA
ATOM      3  C   UNL     1      -3.210   4.166   6.292  0.00  0.00    +0.114 A 
ATOM      4  C   UNL     1      -3.389   5.120   7.309  0.00  0.00    +0.037 A 
ATOM      5  C   UNL     1      -4.324   4.908   8.270  0.00  0.00    -0.027 A 
ATOM      6  C   UNL     1      -5.124   3.757   8.276  0.00  0.00    +0.039 A 
ATOM      7  C   UNL     1      -4.999   2.795   7.317  0.00  0.00    +0.055 A 
ATOM      8  C   UNL     1      -4.047   2.957   6.296  0.00  0.00    +0.115 A 
ATOM      9  N   UNL     1      -3.655   2.272   5.233  0.00  0.00    -0.147 NA
ATOM     10  C   UNL     1      -4.508   5.936   9.356  0.00  0.00    +0.046 C 
ENDROOT
BRANCH   1  14
ATOM     11  C   UNL     1      -0.800   1.585   1.191  0.00  0.00    -0.047 A 
ATOM     12  C   UNL     1      -0.431   2.789   1.762  0.00  0.00    +0.006 A 
ATOM     13  C   UNL     1      -1.067   3.237   2.903  0.00  0.00    +0.030 A 
ATOM     14  C   UNL     1      -2.070   2.472   3.483  0.00  0.00    +0.086 A 
ATOM     15  C   UNL     1      -2.435   1.261   2.910  0.00  0.00    +0.030 A 
ATOM     16  C   UNL     1      -1.799   0.821   1.766  0.00  0.00    +0.006 A 
BRANCH  11  17
ATOM     17  C   UNL     1      -0.108   1.101  -0.058  0.00  0.00    +0.035 C 
BRANCH  17  18
ATOM     18  C   UNL     1      -0.858   1.616  -1.288  0.00  0.00    +0.004 C 
BRANCH  18  20
ATOM     19  C   UNL     1      -0.905   1.639  -3.786  0.00  0.00    +0.004 C 
ATOM     20  C   UNL     1      -0.155   1.125  -2.556  0.00  0.00    -0.003 C 
ENDBRANCH  18  20
ENDBRANCH  17  18
ENDBRANCH  11  17
ENDBRANCH   1  14
BRANCH   6  21
ATOM     21  N   UNL     1      -6.073   3.591   9.290  0.00  0.00    -0.281 N 
ATOM     22  C   UNL     1      -6.483   2.354   9.633  0.00  0.00    +0.248 C 
ATOM     23  O   UNL     1      -5.956   1.379   9.134  0.00  0.00    -0.270 OA
ATOM     24  H   UNL     1      -6.436   4.366   9.746  0.00  0.00    +0.155 HD
BRANCH  22  25
ATOM     25  C   UNL     1      -7.572   2.183  10.615  0.00  0.00    +0.041 A 
ATOM     26  C   UNL     1      -8.175   3.303  11.194  0.00  0.00    +0.017 A 
ATOM     27  C   UNL     1      -9.195   3.141  12.106  0.00  0.00    +0.050 A 
ATOM     28  C   UNL     1      -9.619   1.868  12.461  0.00  0.00    +0.166 A 
ATOM     29  C   UNL     1      -9.017   0.746  11.891  0.00  0.00    +0.167 A 
ATOM     30  C   UNL     1      -7.998   0.901  10.972  0.00  0.00    +0.062 A 
ATOM     31  O   UNL     1      -9.610  -0.373  12.403  0.00  0.00    -0.453 OA
ATOM     32  C   UNL     1     -10.296   0.064  13.590  0.00  0.00    +0.466 C 
ATOM     33  O   UNL     1     -10.587   1.450  13.327  0.00  0.00    -0.453 OA
ENDBRANCH  22  25
ENDBRANCH   6  21
TORSDOF 6
