REMARK  Name = ZINC09360349
REMARK  5 active torsions:
REMARK  status: ('A' for Active; 'I' for Inactive)
REMARK    1  A    between atoms: C_1  and  C_2
REMARK    2  A    between atoms: C_2  and  C_32
REMARK    3  A    between atoms: C_6  and  C_21
REMARK    4  A    between atoms: C_24  and  O_27
REMARK    5  A    between atoms: O_27  and  C_28
REMARK                            x       y       z     vdW  Elec       q    Type
REMARK                         _______ _______ _______ _____ _____    ______ ____
ROOT
ATOM      1  C   UNL     1      -0.019   1.526   0.010  0.00  0.00    +0.011 C 
ATOM      2  C   UNL     1       0.002  -0.004   0.002  0.00  0.00    -0.023 C 
ATOM      3  C   UNL     1      -1.432  -0.538   0.036  0.00  0.00    +0.058 C 
ATOM      4  C   UNL     1      -1.410  -2.043   0.087  0.00  0.00    +0.020 C 
ATOM      5  C   UNL     1      -0.398  -2.708   0.686  0.00  0.00    +0.041 C 
ATOM      6  C   UNL     1      -0.404  -4.215   0.737  0.00  0.00    +0.173 C 
ATOM      7  N   UNL     1      -1.330  -4.776  -0.236  0.00  0.00    -0.243 NA
ATOM      8  C   UNL     1      -2.268  -4.078  -0.791  0.00  0.00    +0.188 C 
ATOM      9  N   UNL     1      -2.435  -2.745  -0.490  0.00  0.00    -0.290 N 
ATOM     10  N   UNL     1      -3.113  -4.679  -1.700  0.00  0.00    -0.241 N 
ATOM     11  C   UNL     1      -2.955  -6.015  -2.010  0.00  0.00    +0.295 A 
ATOM     12  N   UNL     1      -2.044  -6.801  -1.498  0.00  0.00    -0.195 NA
ATOM     13  C   UNL     1      -2.188  -8.044  -2.033  0.00  0.00    +0.111 A 
ATOM     14  C   UNL     1      -1.511  -9.252  -1.861  0.00  0.00    +0.031 A 
ATOM     15  C   UNL     1      -1.908 -10.365  -2.569  0.00  0.00    +0.002 A 
ATOM     16  C   UNL     1      -2.976 -10.292  -3.450  0.00  0.00    +0.004 A 
ATOM     17  C   UNL     1      -3.655  -9.103  -3.630  0.00  0.00    +0.048 A 
ATOM     18  C   UNL     1      -3.268  -7.974  -2.926  0.00  0.00    +0.157 A 
ATOM     19  O   UNL     1      -3.720  -6.700  -2.878  0.00  0.00    -0.424 OA
ATOM     20  C   UNL     1       0.678  -2.018   1.269  0.00  0.00    +0.164 C 
ATOM     21  O   UNL     1       1.571  -2.646   1.803  0.00  0.00    -0.292 OA
ATOM     22  C   UNL     1       0.743  -0.515   1.242  0.00  0.00    +0.086 C 
ATOM     23  C   UNL     1       0.710  -0.501  -1.260  0.00  0.00    +0.011 C 
ATOM     24  H   UNL     1      -3.277  -2.304  -0.686  0.00  0.00    +0.154 HD
ATOM     25  H   UNL     1      -3.818  -4.164  -2.121  0.00  0.00    +0.159 HD
ENDROOT
BRANCH   6  26
ATOM     26  C   UNL     1      -0.812  -4.659   2.118  0.00  0.00    -0.018 A 
ATOM     27  C   UNL     1      -2.149  -4.676   2.470  0.00  0.00    +0.009 A 
ATOM     28  C   UNL     1      -2.526  -5.083   3.736  0.00  0.00    +0.046 A 
ATOM     29  C   UNL     1      -1.562  -5.474   4.653  0.00  0.00    +0.120 A 
ATOM     30  C   UNL     1      -0.222  -5.457   4.297  0.00  0.00    +0.046 A 
ATOM     31  C   UNL     1       0.150  -5.054   3.029  0.00  0.00    +0.009 A 
BRANCH  29  32
ATOM     32  O   UNL     1      -1.931  -5.874   5.899  0.00  0.00    -0.495 OA
ATOM     33  C   UNL     1      -0.885  -6.263   6.791  0.00  0.00    +0.277 C 
ENDBRANCH  29  32
ENDBRANCH   6  26
TORSDOF 2
