REMARK  Name = ZINC39445810
REMARK  7 active torsions:
REMARK  status: ('A' for Active; 'I' for Inactive)
REMARK    1  A    between atoms: C_7  and  C_10
REMARK    2  A    between atoms: C_10  and  C_11
REMARK    3  A    between atoms: C_11  and  C_12
REMARK    4  A    between atoms: C_16  and  C_19
REMARK    5  A    between atoms: C_19  and  C_20
REMARK    6  A    between atoms: C_20  and  C_21
REMARK    7  A    between atoms: C_27  and  C_29
REMARK                            x       y       z     vdW  Elec       q    Type
REMARK                         _______ _______ _______ _____ _____    ______ ____
ROOT
ATOM      1  C   UNL     1      -4.986   5.108  -1.361  0.00  0.00    +0.259 C 
ATOM      2  N   UNL     1      -5.119   5.615  -2.733  0.00  0.00    -0.158 NA
ATOM      3  N   UNL     1      -4.186   6.385  -2.995  0.00  0.00    -0.158 NA
ATOM      4  C   UNL     1      -3.292   6.505  -1.836  0.00  0.00    +0.260 C 
ATOM      5  O   UNL     1      -4.051   5.998  -0.716  0.00  0.00    -0.327 OA
ENDROOT
BRANCH   1   6
ATOM      6  C   UNL     1      -4.437   3.680  -1.374  0.00  0.00    +0.062 C 
BRANCH   6   7
ATOM      7  C   UNL     1      -4.358   3.151   0.060  0.00  0.00    +0.042 C 
BRANCH   7  14
ATOM      8  C   UNL     1      -0.017   1.384   0.010  0.00  0.00    +0.001 A 
ATOM      9  C   UNL     1       0.002  -0.004   0.002  0.00  0.00    +0.002 A 
ATOM     10  C   UNL     1      -1.173  -0.723   0.009  0.00  0.00    +0.026 A 
ATOM     11  C   UNL     1      -2.392  -0.053   0.024  0.00  0.00    +0.047 A 
ATOM     12  N   UNL     1      -3.704  -0.472   0.034  0.00  0.00    -0.360 N 
ATOM     13  C   UNL     1      -4.539   0.612   0.047  0.00  0.00    +0.087 A 
ATOM     14  C   UNL     1      -3.818   1.744   0.047  0.00  0.00    -0.022 A 
ATOM     15  C   UNL     1      -2.406   1.353   0.032  0.00  0.00    +0.003 A 
ATOM     16  C   UNL     1      -1.203   2.062   0.030  0.00  0.00    +0.010 A 
ATOM     17  H   UNL     1      -3.993  -1.398   0.030  0.00  0.00    +0.165 HD
ENDBRANCH   7  14
ENDBRANCH   6   7
ENDBRANCH   1   6
BRANCH   4  18
ATOM     18  C   UNL     1      -2.917   7.971  -1.605  0.00  0.00    +0.067 C 
BRANCH  18  19
ATOM     19  C   UNL     1      -1.918   8.066  -0.451  0.00  0.00    +0.100 C 
BRANCH  19  20
ATOM     20  C   UNL     1      -1.549   9.509  -0.223  0.00  0.00    +0.216 C 
ATOM     21  O   UNL     1      -2.038  10.377  -0.916  0.00  0.00    -0.276 OA
ATOM     22  N   UNL     1      -0.676   9.837   0.750  0.00  0.00    -0.292 N 
ATOM     23  C   UNL     1      -0.005   8.888   1.657  0.00  0.00    +0.108 C 
ATOM     24  C   UNL     1       1.282   9.619   2.115  0.00  0.00    +0.021 C 
ATOM     25  C   UNL     1       0.781  11.082   2.239  0.00  0.00    +0.031 C 
ATOM     26  C   UNL     1      -0.231  11.199   1.079  0.00  0.00    +0.132 C 
BRANCH  26  27
ATOM     27  C   UNL     1      -1.409  12.033   1.512  0.00  0.00    +0.099 A 
ATOM     28  N   UNL     1      -2.371  11.713   2.342  0.00  0.00    -0.250 NA
ATOM     29  C   UNL     1      -3.342  12.558   2.624  0.00  0.00    +0.119 A 
ATOM     30  C   UNL     1      -3.298  13.772   2.016  0.00  0.00    +0.066 A 
ATOM     31  S   UNL     1      -1.803  13.603   1.054  0.00  0.00    -0.079 S 
ENDBRANCH  26  27
ENDBRANCH  19  20
ENDBRANCH  18  19
ENDBRANCH   4  18
TORSDOF 7
