REMARK  Name = ZINC15867139
REMARK  3 active torsions:
REMARK  status: ('A' for Active; 'I' for Inactive)
REMARK    1  A    between atoms: C_1  and  C_2
REMARK    2  A    between atoms: C_5  and  C_7
REMARK    3  A    between atoms: N_17  and  C_18
REMARK                            x       y       z     vdW  Elec       q    Type
REMARK                         _______ _______ _______ _____ _____    ______ ____
ROOT
ATOM      1  C   UNL     1       1.283  -0.047  -2.052  0.00  0.00    +0.114 C 
ATOM      2  C   UNL     1       2.400   0.539  -1.155  0.00  0.00    +0.028 C 
ATOM      3  C   UNL     1       1.992   1.847  -0.619  0.00  0.00    +0.002 C 
ATOM      4  C   UNL     1       0.765   1.799   0.287  0.00  0.00    +0.002 C 
ATOM      5  C   UNL     1      -0.484   1.860  -0.557  0.00  0.00    +0.019 C 
ATOM      6  C   UNL     1      -0.958   0.437  -0.903  0.00  0.00    +0.110 C 
ATOM      7  N   UNL     1       0.167  -0.460  -1.231  0.00  0.00    -0.278 N 
ATOM      8  C   UNL     1       0.154  -1.717  -0.744  0.00  0.00    +0.307 C 
ATOM      9  O   UNL     1       1.012  -2.509  -1.082  0.00  0.00    -0.252 OA
ATOM     10  N   UNL     1      -0.810  -2.096   0.118  0.00  0.00    -0.269 N 
ATOM     11  H   UNL     1      -1.538  -1.490   0.328  0.00  0.00    +0.156 HD
ENDROOT
BRANCH  10  12
ATOM     12  C   UNL     1      -0.762  -3.365   0.710  0.00  0.00    +0.038 A 
ATOM     13  C   UNL     1      -1.939  -4.050   0.981  0.00  0.00    +0.027 A 
ATOM     14  C   UNL     1      -1.893  -5.304   1.560  0.00  0.00    +0.051 A 
ATOM     15  C   UNL     1      -0.673  -5.877   1.881  0.00  0.00    +0.166 A 
ATOM     16  C   UNL     1       0.509  -5.190   1.616  0.00  0.00    +0.168 A 
ATOM     17  C   UNL     1       0.462  -3.935   1.031  0.00  0.00    +0.073 A 
ATOM     18  O   UNL     1       1.561  -5.959   2.021  0.00  0.00    -0.453 OA
ATOM     19  C   UNL     1       0.999  -6.944   2.907  0.00  0.00    +0.466 C 
ATOM     20  O   UNL     1      -0.360  -7.077   2.452  0.00  0.00    -0.453 OA
ENDBRANCH  10  12
BRANCH   1  25
ATOM     21  C   UNL     1       3.838  -4.679  -4.078  0.00  0.00    +0.051 C 
ATOM     22  C   UNL     1       3.035  -3.442  -3.772  0.00  0.00    -0.013 A 
ATOM     23  C   UNL     1       2.130  -2.797  -4.548  0.00  0.00    +0.011 A 
ATOM     24  C   UNL     1       1.502  -1.670  -4.052  0.00  0.00    +0.013 A 
ATOM     25  C   UNL     1       1.818  -1.236  -2.807  0.00  0.00    +0.010 A 
ATOM     26  S   UNL     1       3.026  -2.445  -2.291  0.00  0.00    -0.097 S 
ENDBRANCH   1  25
TORSDOF 2
