REMARK  Name = ZINC27360819
REMARK  8 active torsions:
REMARK  status: ('A' for Active; 'I' for Inactive)
REMARK    1  A    between atoms: C_1  and  C_2
REMARK    2  A    between atoms: C_2  and  C_4
REMARK    3  A    between atoms: C_2  and  N_14
REMARK    4  A    between atoms: N_10  and  C_11
REMARK    5  A    between atoms: N_10  and  C_12
REMARK    6  A    between atoms: N_17  and  C_20
REMARK    7  A    between atoms: C_20  and  C_21
REMARK    8  A    between atoms: C_25  and  C_27
REMARK                            x       y       z     vdW  Elec       q    Type
REMARK                         _______ _______ _______ _____ _____    ______ ____
ROOT
ATOM      1  N   UNL     1       2.044   3.917  -1.033  0.00  0.00    +0.388 N 
ATOM      2  C   UNL     1       3.385   3.383  -0.760  0.00  0.00    -0.062 C 
ATOM      3  C   UNL     1       4.325   3.760  -1.908  0.00  0.00    +0.066 C 
ATOM      4  N   UNL     1       4.362   5.223  -2.047  0.00  0.00    -0.302 NA
ATOM      5  C   UNL     1       3.020   5.757  -2.320  0.00  0.00    +0.066 C 
ATOM      6  C   UNL     1       2.081   5.380  -1.172  0.00  0.00    -0.062 C 
ATOM      7  H   UNL     1       1.697   3.494  -1.988  0.00  0.00    -0.081 HD
ENDROOT
BRANCH   1   9
ATOM      8  C   UNL     1       1.008   1.985   0.057  0.00  0.00    -0.005 C 
ATOM      9  C   UNL     1       1.093   3.512   0.011  0.00  0.00    -0.002 C 
BRANCH   9  10
ATOM     10  C   UNL     1      -0.267   4.082  -0.299  0.00  0.00    +0.123 A 
ATOM     11  N   UNL     1      -0.762   3.979  -1.520  0.00  0.00    -0.201 NA
ATOM     12  C   UNL     1      -1.963   4.481  -1.798  0.00  0.00    +0.217 A 
ATOM     13  N   UNL     1      -2.664   5.087  -0.846  0.00  0.00    -0.181 NA
ATOM     14  C   UNL     1      -2.163   5.188   0.380  0.00  0.00    +0.222 A 
ATOM     15  N   UNL     1      -0.961   4.684   0.650  0.00  0.00    -0.201 NA
ATOM     16  N   UNL     1      -2.888   5.816   1.373  0.00  0.00    -0.306 N 
ATOM     17  C   UNL     1      -2.334   5.927   2.725  0.00  0.00    +0.132 C 
ATOM     18  C   UNL     1      -4.210   6.372   1.075  0.00  0.00    +0.132 C 
ATOM     19  N   UNL     1      -2.479   4.372  -3.073  0.00  0.00    -0.327 N 
ATOM     20  H   UNL     1      -3.472   4.788  -3.302  0.00  0.00    +0.145 HD
ATOM     21  H   UNL     1      -1.898   3.870  -3.861  0.00  0.00    +0.145 HD
ENDBRANCH   9  10
ENDBRANCH   1   9
BRANCH   4  22
ATOM     22  C   UNL     1       5.312   5.629  -3.091  0.00  0.00    +0.119 C 
BRANCH  22  23
ATOM     23  C   UNL     1       6.713   5.277  -2.659  0.00  0.00    -0.033 A 
ATOM     24  C   UNL     1       7.467   6.193  -1.949  0.00  0.00    +0.005 A 
ATOM     25  C   UNL     1       8.750   5.869  -1.549  0.00  0.00    +0.001 A 
ATOM     26  C   UNL     1       9.282   4.633  -1.868  0.00  0.00    +0.012 A 
ATOM     27  C   UNL     1       8.530   3.720  -2.583  0.00  0.00    +0.055 A 
ATOM     28  C   UNL     1       7.245   4.043  -2.979  0.00  0.00    +0.017 A 
BRANCH  27  29
ATOM     29  C   UNL     1       9.110   2.374  -2.930  0.00  0.00    +0.417 C 
ATOM     30  F   UNL     1       9.762   2.452  -4.166  0.00  0.00    -0.166 F 
ATOM     31  F   UNL     1      10.026   1.992  -1.944  0.00  0.00    -0.166 F 
ATOM     32  F   UNL     1       8.082   1.428  -3.004  0.00  0.00    -0.166 F 
ENDBRANCH  27  29
ENDBRANCH  22  23
ENDBRANCH   4  22
TORSDOF 5
