REMARK  Name = ZINC00754880
REMARK  2 active torsions:
REMARK  status: ('A' for Active; 'I' for Inactive)
REMARK    1  A    between atoms: C_4  and  C_7
REMARK    2  A    between atoms: C_18  and  C_20
REMARK                            x       y       z     vdW  Elec       q    Type
REMARK                         _______ _______ _______ _____ _____    ______ ____
ROOT
ATOM      1  C   UNL     1      -2.544  -0.129   0.648  0.00  0.00    +0.252 C 
ATOM      2  O   UNL     1      -1.573  -0.782   0.317  0.00  0.00    -0.270 OA
ATOM      3  N   UNL     1      -2.416   1.188   0.902  0.00  0.00    -0.254 N 
ATOM      4  C   UNL     1      -1.163   1.808   0.858  0.00  0.00    +0.045 A 
ATOM      5  C   UNL     1      -0.153   1.347   0.034  0.00  0.00    +0.024 A 
ATOM      6  C   UNL     1       1.081   1.972   0.045  0.00  0.00    +0.002 A 
ATOM      7  C   UNL     1       1.313   3.050   0.882  0.00  0.00    +0.001 A 
ATOM      8  C   UNL     1       0.314   3.519   1.713  0.00  0.00    +0.010 A 
ATOM      9  C   UNL     1      -0.934   2.906   1.702  0.00  0.00    -0.004 A 
ATOM     10  C   UNL     1      -2.032   3.372   2.571  0.00  0.00    +0.008 C 
ATOM     11  C   UNL     1      -3.268   2.942   2.363  0.00  0.00    +0.002 C 
ATOM     12  C   UNL     1      -3.589   2.008   1.227  0.00  0.00    +0.151 C 
ENDROOT
BRANCH  12  13
ATOM     13  C   UNL     1      -3.989   2.811   0.017  0.00  0.00    +0.042 A 
ATOM     14  C   UNL     1      -3.134   3.341  -0.873  0.00  0.00    +0.033 A 
ATOM     15  C   UNL     1      -3.941   4.032  -1.882  0.00  0.00    -0.000 A 
ATOM     16  C   UNL     1      -3.638   4.758  -3.036  0.00  0.00    +0.010 A 
ATOM     17  C   UNL     1      -4.647   5.297  -3.782  0.00  0.00    +0.001 A 
ATOM     18  C   UNL     1      -5.972   5.130  -3.403  0.00  0.00    +0.002 A 
ATOM     19  C   UNL     1      -6.293   4.418  -2.268  0.00  0.00    +0.026 A 
ATOM     20  C   UNL     1      -5.282   3.860  -1.493  0.00  0.00    +0.047 A 
ATOM     21  N   UNL     1      -5.276   3.114  -0.336  0.00  0.00    -0.356 N 
ATOM     22  H   UNL     1      -6.067   2.843   0.156  0.00  0.00    +0.166 HD
ENDBRANCH  12  13
BRANCH   1  26
ATOM     23  C   UNL     1      -6.340  -2.001   1.004  0.00  0.00    +0.000 A 
ATOM     24  C   UNL     1      -5.228  -2.582   1.588  0.00  0.00    +0.001 A 
ATOM     25  C   UNL     1      -3.992  -1.979   1.476  0.00  0.00    +0.013 A 
ATOM     26  C   UNL     1      -3.865  -0.780   0.772  0.00  0.00    +0.037 A 
ATOM     27  C   UNL     1      -4.992  -0.196   0.191  0.00  0.00    +0.013 A 
ATOM     28  C   UNL     1      -6.221  -0.813   0.305  0.00  0.00    +0.001 A 
ENDBRANCH   1  26
TORSDOF 2
