REMARK  Name = ZINC37353253
REMARK  3 active torsions:
REMARK  status: ('A' for Active; 'I' for Inactive)
REMARK    1  A    between atoms: C_3  and  O_16
REMARK    2  A    between atoms: C_6  and  C_7
REMARK    3  A    between atoms: O_16  and  C_17
REMARK                            x       y       z     vdW  Elec       q    Type
REMARK                         _______ _______ _______ _____ _____    ______ ____
ROOT
ATOM      1  C   UNL     1      -0.017   1.390   0.010  0.00  0.00    +0.013 A 
ATOM      2  C   UNL     1       1.169   2.094   0.002  0.00  0.00    +0.046 A 
ATOM      3  C   UNL     1       2.380   1.416  -0.013  0.00  0.00    +0.130 A 
ATOM      4  C   UNL     1       2.402   0.029  -0.021  0.00  0.00    +0.046 A 
ATOM      5  C   UNL     1       1.220  -0.682  -0.014  0.00  0.00    +0.013 A 
ATOM      6  C   UNL     1       0.002  -0.004   0.002  0.00  0.00    +0.002 A 
ENDROOT
BRANCH   6   7
ATOM      7  C   UNL     1      -1.272  -0.765   0.011  0.00  0.00    +0.092 A 
ATOM      8  C   UNL     1      -1.393  -2.116   0.010  0.00  0.00    +0.143 A 
ATOM      9  N   UNL     1      -2.748  -2.416   0.020  0.00  0.00    -0.212 N 
ATOM     10  C   UNL     1      -3.382  -1.201   0.026  0.00  0.00    +0.197 A 
ATOM     11  N   UNL     1      -2.511  -0.234   0.026  0.00  0.00    -0.220 NA
ATOM     12  S   UNL     1      -5.097  -1.667   0.039  0.00  0.00    -0.021 S 
ATOM     13  C   UNL     1      -4.862  -3.437   0.035  0.00  0.00    +0.168 A 
ATOM     14  N   UNL     1      -3.566  -3.541   0.025  0.00  0.00    -0.150 NA
ATOM     15 BR   UNL     1      -6.164  -4.809   0.043  0.00  0.00    -0.019 Br
ENDBRANCH   6   7
BRANCH   3  16
ATOM     16  O   UNL     1       3.547   2.113  -0.021  0.00  0.00    -0.406 OA
BRANCH  16  17
ATOM     17  C   UNL     1       4.757   1.353  -0.036  0.00  0.00    +0.575 C 
ATOM     18  F   UNL     1       4.790   0.552  -1.183  0.00  0.00    -0.133 F 
ATOM     19  F   UNL     1       5.854   2.221  -0.042  0.00  0.00    -0.133 F 
ATOM     20  F   UNL     1       4.812   0.540   1.101  0.00  0.00    -0.133 F 
ENDBRANCH  16  17
ENDBRANCH   3  16
TORSDOF 3
