REMARK  Name = ZINC08900683
REMARK  5 active torsions:
REMARK  status: ('A' for Active; 'I' for Inactive)
REMARK    1  A    between atoms: C_7  and  C_11
REMARK    2  A    between atoms: C_14  and  S_19
REMARK    3  A    between atoms: N_15  and  C_16
REMARK    4  A    between atoms: S_19  and  C_20
REMARK    5  A    between atoms: C_20  and  C_21
REMARK                            x       y       z     vdW  Elec       q    Type
REMARK                         _______ _______ _______ _____ _____    ______ ____
ROOT
ATOM      1  C   UNL     1      -1.729   4.199   0.002  0.00  0.00    +0.167 A 
ATOM      2  N   UNL     1      -1.400   5.465   0.112  0.00  0.00    -0.128 NA
ATOM      3  N   UNL     1      -2.459   6.193   0.139  0.00  0.00    -0.122 NA
ATOM      4  C   UNL     1      -3.529   5.437   0.047  0.00  0.00    +0.193 A 
ATOM      5  N   UNL     1      -3.102   4.141  -0.050  0.00  0.00    -0.299 N 
ENDROOT
BRANCH   1  12
ATOM      6  C   UNL     1       2.928   3.882  -0.291  0.00  0.00    +0.001 A 
ATOM      7  C   UNL     1       3.373   2.568  -0.326  0.00  0.00    +0.002 A 
ATOM      8  C   UNL     1       2.478   1.522  -0.275  0.00  0.00    +0.026 A 
ATOM      9  C   UNL     1       1.113   1.784  -0.188  0.00  0.00    +0.047 A 
ATOM     10  C   UNL     1       0.670   3.116  -0.153  0.00  0.00    +0.010 A 
ATOM     11  C   UNL     1       1.592   4.160  -0.207  0.00  0.00    +0.011 A 
ATOM     12  C   UNL     1      -0.799   3.053  -0.062  0.00  0.00    +0.044 A 
ATOM     13  C   UNL     1      -1.132   1.737  -0.054  0.00  0.00    +0.095 A 
ATOM     14  N   UNL     1      -0.001   0.975  -0.123  0.00  0.00    -0.360 N 
ATOM     15  H   UNL     1       0.016   0.005  -0.129  0.00  0.00    +0.165 HD
ENDBRANCH   1  12
BRANCH   5  16
ATOM     16  C   UNL     1      -3.934   2.942  -0.178  0.00  0.00    +0.091 C 
ATOM     17  C   UNL     1      -5.398   3.137  -0.579  0.00  0.00    +0.027 C 
ATOM     18  C   UNL     1      -5.044   2.738   0.856  0.00  0.00    +0.027 C 
ENDBRANCH   5  16
BRANCH   4  19
ATOM     19  S   UNL     1      -5.202   5.990   0.042  0.00  0.00    -0.077 S 
BRANCH  19  20
ATOM     20  C   UNL     1      -4.944   7.775   0.193  0.00  0.00    +0.173 C 
BRANCH  20  21
ATOM     21  C   UNL     1      -6.277   8.476   0.209  0.00  0.00    +0.229 C 
ATOM     22  O   UNL     1      -7.302   7.832   0.127  0.00  0.00    -0.275 OA
ATOM     23  N   UNL     1      -6.332   9.819   0.315  0.00  0.00    -0.269 N 
ATOM     24  C   UNL     1      -7.567  10.467   0.331  0.00  0.00    +0.143 A 
ATOM     25  C   UNL     1      -7.616  11.853   0.446  0.00  0.00    +0.082 A 
ATOM     26  C   UNL     1      -8.848  12.485   0.454  0.00  0.00    +0.045 A 
ATOM     27  C   UNL     1      -9.993  11.704   0.358  0.00  0.00    +0.061 A 
ATOM     28  C   UNL     1      -9.869  10.332   0.252  0.00  0.00    +0.133 A 
ATOM     29  N   UNL     1      -8.681   9.759   0.241  0.00  0.00    -0.237 NA
ATOM     30 CL   UNL     1     -11.563  12.445   0.371  0.00  0.00    -0.082 Cl
ATOM     31 CL   UNL     1      -6.152  12.778   0.571  0.00  0.00    -0.080 Cl
ATOM     32  H   UNL     1      -5.513  10.334   0.381  0.00  0.00    +0.156 HD
ENDBRANCH  20  21
ENDBRANCH  19  20
ENDBRANCH   4  19
TORSDOF 5
