REMARK  Name = ZINC40922190
REMARK  9 active torsions:
REMARK  status: ('A' for Active; 'I' for Inactive)
REMARK    1  A    between atoms: C_1  and  C_2
REMARK    2  A    between atoms: C_3  and  C_22
REMARK    3  A    between atoms: C_4  and  C_12
REMARK    4  A    between atoms: C_15  and  O_18
REMARK    5  A    between atoms: O_18  and  C_19
REMARK    6  A    between atoms: C_19  and  C_20
REMARK    7  A    between atoms: C_19  and  C_21
REMARK    8  A    between atoms: C_22  and  O_24
REMARK    9  A    between atoms: O_24  and  C_25
REMARK                            x       y       z     vdW  Elec       q    Type
REMARK                         _______ _______ _______ _____ _____    ______ ____
ROOT
ATOM      1  C   UNL     1       0.977   0.511   0.265  0.00  0.00    +0.061 C 
ATOM      2  C   UNL     1       0.773  -0.976   0.126  0.00  0.00    +0.020 C 
ATOM      3  C   UNL     1      -0.478  -1.462   0.140  0.00  0.00    +0.082 C 
ATOM      4  C   UNL     1      -0.792  -2.928  -0.004  0.00  0.00    +0.181 C 
ATOM      5  N   UNL     1       0.436  -3.702   0.133  0.00  0.00    -0.201 N 
ATOM      6  C   UNL     1       1.679  -3.153   0.122  0.00  0.00    +0.240 A 
ATOM      7  N   UNL     1       2.533  -4.127   0.259  0.00  0.00    -0.092 NA
ATOM      8  N   UNL     1       1.914  -5.253   0.360  0.00  0.00    -0.021 NA
ATOM      9  N   UNL     1       0.634  -5.072   0.293  0.00  0.00    -0.042 NA
ATOM     10  N   UNL     1       1.873  -1.785  -0.016  0.00  0.00    -0.286 N 
ATOM     11  H   UNL     1       2.750  -1.415  -0.203  0.00  0.00    +0.155 HD
ENDROOT
BRANCH   4  12
ATOM     12  C   UNL     1      -1.398  -3.182  -1.360  0.00  0.00    -0.018 A 
ATOM     13  C   UNL     1      -0.679  -2.885  -2.503  0.00  0.00    +0.009 A 
ATOM     14  C   UNL     1      -1.232  -3.116  -3.748  0.00  0.00    +0.046 A 
ATOM     15  C   UNL     1      -2.510  -3.647  -3.850  0.00  0.00    +0.121 A 
ATOM     16  C   UNL     1      -3.228  -3.945  -2.701  0.00  0.00    +0.046 A 
ATOM     17  C   UNL     1      -2.669  -3.717  -1.459  0.00  0.00    +0.009 A 
BRANCH  15  18
ATOM     18  O   UNL     1      -3.056  -3.875  -5.073  0.00  0.00    -0.489 OA
BRANCH  18  19
ATOM     19  C   UNL     1      -2.309  -3.436  -6.210  0.00  0.00    +0.167 C 
ATOM     20  C   UNL     1      -1.289  -4.509  -6.595  0.00  0.00    +0.051 C 
ATOM     21  C   UNL     1      -3.261  -3.193  -7.383  0.00  0.00    +0.051 C 
ENDBRANCH  18  19
ENDBRANCH  15  18
ENDBRANCH   4  12
BRANCH   3  22
ATOM     22  C   UNL     1      -1.550  -0.556   0.297  0.00  0.00    +0.339 C 
ATOM     23  O   UNL     1      -1.329   0.634   0.416  0.00  0.00    -0.245 OA
BRANCH  22  24
ATOM     24  O   UNL     1      -2.821  -1.012   0.316  0.00  0.00    -0.465 OA
ATOM     25  C   UNL     1      -3.856  -0.040   0.478  0.00  0.00    +0.280 C 
ENDBRANCH  22  24
ENDBRANCH   3  22
TORSDOF 5
