REMARK  Name = ZINC24893151
REMARK  12 active torsions:
REMARK  status: ('A' for Active; 'I' for Inactive)
REMARK    1  A    between atoms: C_1  and  C_2
REMARK    2  A    between atoms: C_2  and  C_4
REMARK    3  A    between atoms: C_2  and  N_10
REMARK    4  A    between atoms: C_4  and  C_5
REMARK    5  A    between atoms: N_10  and  C_11
REMARK    6  A    between atoms: N_10  and  C_20
REMARK    7  A    between atoms: C_11  and  C_12
REMARK    8  A    between atoms: C_15  and  O_18
REMARK    9  A    between atoms: O_18  and  C_19
REMARK   10  A    between atoms: C_20  and  C_21
REMARK   11  A    between atoms: C_30  and  S_32
REMARK   12  A    between atoms: S_32  and  N_35
REMARK                            x       y       z     vdW  Elec       q    Type
REMARK                         _______ _______ _______ _____ _____    ______ ____
ROOT
ATOM      1  N   UNL     1       4.330   6.172   0.837  0.00  0.00    +0.390 N 
ATOM      2  H   UNL     1       3.950   6.197   1.868  0.00  0.00    -0.080 HD
ENDROOT
BRANCH   1   4
ATOM      3  C   UNL     1       2.741   8.032   0.729  0.00  0.00    -0.013 C 
ATOM      4  C   UNL     1       3.349   6.846  -0.023  0.00  0.00    -0.066 C 
BRANCH   4   5
ATOM      5  C   UNL     1       4.042   7.349  -1.292  0.00  0.00    +0.027 C 
BRANCH   5   6
ATOM      6  C   UNL     1       4.553   6.173  -2.084  0.00  0.00    -0.012 A 
ATOM      7  C   UNL     1       3.887   5.378  -2.956  0.00  0.00    +0.011 A 
ATOM      8  C   UNL     1       4.568   4.348  -3.578  0.00  0.00    +0.008 A 
ATOM      9  C   UNL     1       5.879   4.158  -3.289  0.00  0.00    +0.045 A 
ATOM     10  S   UNL     1       6.191   5.463  -2.112  0.00  0.00    -0.102 S 
ENDBRANCH   5   6
ENDBRANCH   4   5
ENDBRANCH   1   4
BRANCH   1  11
ATOM     11  C   UNL     1       5.621   6.873   0.813  0.00  0.00    -0.042 C 
BRANCH  11  12
ATOM     12  C   UNL     1       5.500   8.173   1.566  0.00  0.00    -0.064 A 
ATOM     13  C   UNL     1       5.603   9.374   0.889  0.00  0.00    +0.005 A 
ATOM     14  C   UNL     1       5.486  10.568   1.575  0.00  0.00    +0.046 A 
ATOM     15  C   UNL     1       5.277  10.560   2.947  0.00  0.00    +0.120 A 
ATOM     16  C   UNL     1       5.180   9.353   3.625  0.00  0.00    +0.046 A 
ATOM     17  C   UNL     1       5.291   8.163   2.933  0.00  0.00    +0.005 A 
BRANCH  15  18
ATOM     18  O   UNL     1       5.167  11.732   3.625  0.00  0.00    -0.495 OA
ATOM     19  C   UNL     1       5.277  12.936   2.863  0.00  0.00    +0.277 C 
ENDBRANCH  15  18
ENDBRANCH  11  12
ENDBRANCH   1  11
BRANCH   1  20
ATOM     20  C   UNL     1       4.489   4.763   0.449  0.00  0.00    +0.020 C 
BRANCH  20  21
ATOM     21  C   UNL     1       3.269   3.986   0.870  0.00  0.00    +0.203 C 
ATOM     22  O   UNL     1       2.402   4.526   1.524  0.00  0.00    -0.277 OA
ATOM     23  N   UNL     1       3.142   2.690   0.521  0.00  0.00    -0.272 N 
ATOM     24  C   UNL     1       4.120   1.932  -0.264  0.00  0.00    +0.118 C 
ATOM     25  C   UNL     1       3.526   0.520  -0.394  0.00  0.00    +0.056 C 
ATOM     26  C   UNL     1       2.213   0.590   0.353  0.00  0.00    -0.023 A 
ATOM     27  C   UNL     1       2.058   1.873   0.855  0.00  0.00    +0.040 A 
ATOM     28  C   UNL     1       0.911   2.180   1.588  0.00  0.00    +0.026 A 
ATOM     29  C   UNL     1      -0.052   1.218   1.809  0.00  0.00    +0.030 A 
ATOM     30  C   UNL     1       0.109  -0.057   1.299  0.00  0.00    +0.105 A 
ATOM     31  C   UNL     1       1.245  -0.371   0.577  0.00  0.00    +0.034 A 
BRANCH  30  32
ATOM     32  S   UNL     1      -1.128  -1.282   1.576  0.00  0.00    +0.056 S 
ATOM     33  O   UNL     1      -2.343  -0.585   1.814  0.00  0.00    -0.153 OA
ATOM     34  O   UNL     1      -0.990  -2.240   0.536  0.00  0.00    -0.153 OA
BRANCH  32  35
ATOM     35  N   UNL     1      -0.742  -2.056   2.988  0.00  0.00    -0.204 NA
ATOM     36  H   UNL     1      -1.493  -2.832   3.197  0.00  0.00    +0.144 HD
ATOM     37  H   UNL     1      -0.726  -1.329   3.813  0.00  0.00    +0.144 HD
ENDBRANCH  32  35
ENDBRANCH  30  32
ENDBRANCH  20  21
ENDBRANCH   1  20
TORSDOF 10
