REMARK  Name = ZINC10355674
REMARK  9 active torsions:
REMARK  status: ('A' for Active; 'I' for Inactive)
REMARK    1  A    between atoms: C_1  and  C_2
REMARK    2  A    between atoms: C_3  and  C_29
REMARK    3  A    between atoms: C_4  and  C_18
REMARK    4  A    between atoms: N_9  and  C_10
REMARK    5  A    between atoms: C_13  and  O_16
REMARK    6  A    between atoms: O_16  and  C_17
REMARK    7  A    between atoms: C_21  and  N_24
REMARK    8  A    between atoms: C_29  and  O_31
REMARK    9  A    between atoms: O_31  and  C_32
REMARK                            x       y       z     vdW  Elec       q    Type
REMARK                         _______ _______ _______ _____ _____    ______ ____
ROOT
ATOM      1  C   UNL     1       0.053  -0.456   4.931  0.00  0.00    +0.062 C 
ATOM      2  C   UNL     1      -0.705   0.842   4.823  0.00  0.00    +0.027 C 
ATOM      3  C   UNL     1      -1.166   1.244   3.618  0.00  0.00    +0.078 C 
ATOM      4  C   UNL     1      -1.928   2.552   3.556  0.00  0.00    +0.141 C 
ATOM      5  N   UNL     1      -2.101   3.284   4.822  0.00  0.00    -0.315 N 
ATOM      6  C   UNL     1      -1.578   2.756   5.946  0.00  0.00    +0.142 C 
ATOM      7  S   UNL     1      -1.771   3.597   7.424  0.00  0.00    -0.018 S 
ATOM      8  N   UNL     1      -0.912   1.594   5.944  0.00  0.00    -0.255 N 
ATOM      9  H   UNL     1      -2.580   4.127   4.846  0.00  0.00    +0.149 HD
ENDROOT
BRANCH   8  10
ATOM     10  C   UNL     1      -0.403   1.121   7.161  0.00  0.00    +0.040 A 
ATOM     11  C   UNL     1       0.883   1.466   7.558  0.00  0.00    +0.027 A 
ATOM     12  C   UNL     1       1.382   1.004   8.759  0.00  0.00    +0.047 A 
ATOM     13  C   UNL     1       0.603   0.187   9.566  0.00  0.00    +0.120 A 
ATOM     14  C   UNL     1      -0.679  -0.162   9.168  0.00  0.00    +0.047 A 
ATOM     15  C   UNL     1      -1.181   0.303   7.969  0.00  0.00    +0.027 A 
BRANCH  13  16
ATOM     16  O   UNL     1       1.097  -0.272  10.747  0.00  0.00    -0.495 OA
ATOM     17  C   UNL     1       2.424   0.127  11.094  0.00  0.00    +0.277 C 
ENDBRANCH  13  16
ENDBRANCH   8  10
BRANCH   4  18
ATOM     18  C   UNL     1      -3.297   2.265   2.995  0.00  0.00    -0.022 A 
ATOM     19  C   UNL     1      -4.282   1.741   3.812  0.00  0.00    +0.008 A 
ATOM     20  C   UNL     1      -5.539   1.482   3.301  0.00  0.00    +0.026 A 
ATOM     21  C   UNL     1      -5.811   1.739   1.965  0.00  0.00    +0.047 A 
ATOM     22  C   UNL     1      -4.818   2.261   1.146  0.00  0.00    +0.026 A 
ATOM     23  C   UNL     1      -3.564   2.522   1.663  0.00  0.00    +0.008 A 
BRANCH  21  24
ATOM     24  N   UNL     1      -7.084   1.472   1.442  0.00  0.00    -0.306 N 
ATOM     25  C   UNL     1      -8.154   0.955   2.127  0.00  0.00    +0.112 A 
ATOM     26  C   UNL     1      -9.172   0.866   1.250  0.00  0.00    +0.130 A 
ATOM     27  N   UNL     1      -8.739   1.306   0.059  0.00  0.00    -0.244 NA
ATOM     28  C   UNL     1      -7.490   1.672   0.162  0.00  0.00    +0.204 A 
ENDBRANCH  21  24
ENDBRANCH   4  18
BRANCH   3  29
ATOM     29  C   UNL     1      -0.949   0.468   2.456  0.00  0.00    +0.339 C 
ATOM     30  O   UNL     1      -0.258  -0.532   2.512  0.00  0.00    -0.245 OA
BRANCH  29  31
ATOM     31  O   UNL     1      -1.507   0.838   1.284  0.00  0.00    -0.465 OA
ATOM     32  C   UNL     1      -1.246   0.007   0.151  0.00  0.00    +0.280 C 
ENDBRANCH  29  31
ENDBRANCH   3  29
TORSDOF 6
