REMARK  Name = ZINC49396866
REMARK  5 active torsions:
REMARK  status: ('A' for Active; 'I' for Inactive)
REMARK    1  A    between atoms: C_1  and  C_2
REMARK    2  A    between atoms: C_4  and  C_7
REMARK    3  A    between atoms: C_7  and  N_8
REMARK    4  A    between atoms: N_8  and  C_9
REMARK    5  A    between atoms: N_12  and  C_13
REMARK                            x       y       z     vdW  Elec       q    Type
REMARK                         _______ _______ _______ _____ _____    ______ ____
ROOT
ATOM      1  N   UNL     1      -2.447  -3.317   1.371  0.00  0.00    -0.283 N 
ATOM      2  C   UNL     1      -3.473  -2.450   1.958  0.00  0.00    +0.134 C 
ATOM      3  C   UNL     1      -1.915  -4.319   2.099  0.00  0.00    +0.303 C 
ATOM      4  O   UNL     1      -1.064  -5.038   1.612  0.00  0.00    -0.253 OA
ATOM      5  N   UNL     1      -2.327  -4.524   3.365  0.00  0.00    -0.296 N 
ATOM      6  H   UNL     1      -3.006  -3.951   3.753  0.00  0.00    +0.151 HD
ENDROOT
BRANCH   5   7
ATOM      7  C   UNL     1      -1.749  -5.614   4.156  0.00  0.00    +0.074 C 
ATOM      8  C   UNL     1      -2.498  -6.914   3.857  0.00  0.00    +0.022 C 
ATOM      9  C   UNL     1      -1.673  -8.104   4.353  0.00  0.00    +0.002 C 
ATOM     10  C   UNL     1      -0.208  -7.907   3.961  0.00  0.00    +0.000 C 
ATOM     11  C   UNL     1       0.634  -7.699   5.221  0.00  0.00    +0.000 C 
ATOM     12  C   UNL     1       0.418  -6.279   5.748  0.00  0.00    +0.000 C 
ATOM     13  C   UNL     1      -0.941  -6.196   6.447  0.00  0.00    +0.002 C 
ATOM     14  C   UNL     1      -1.873  -5.285   5.645  0.00  0.00    +0.022 C 
ENDBRANCH   5   7
BRANCH   1  15
ATOM     15  C   UNL     1      -1.999  -3.093  -0.006  0.00  0.00    +0.164 C 
BRANCH  15  19
ATOM     16  C   UNL     1      -0.018   1.503   0.010  0.00  0.00    +0.073 C 
ATOM     17  C   UNL     1       0.002  -0.004   0.002  0.00  0.00    +0.076 A 
ATOM     18  N   UNL     1      -1.013  -0.832   0.002  0.00  0.00    -0.248 NA
ATOM     19  C   UNL     1      -0.834  -2.137  -0.006  0.00  0.00    +0.066 A 
ATOM     20  C   UNL     1       0.449  -2.582  -0.014  0.00  0.00    +0.071 A 
ATOM     21  S   UNL     1       1.335  -1.032  -0.017  0.00  0.00    -0.080 S 
ENDBRANCH  15  19
ENDBRANCH   1  15
TORSDOF 3
