REMARK  Name = ZINC13607841
REMARK  5 active torsions:
REMARK  status: ('A' for Active; 'I' for Inactive)
REMARK    1  A    between atoms: C_16  and  C_19
REMARK    2  A    between atoms: C_19  and  C_21
REMARK    3  A    between atoms: C_19  and  O_28
REMARK    4  A    between atoms: N_31  and  C_34
REMARK    5  A    between atoms: C_34  and  C_35
REMARK                            x       y       z     vdW  Elec       q    Type
REMARK                         _______ _______ _______ _____ _____    ______ ____
ROOT
ATOM      1  C   UNL     1      -0.017   1.378   0.010  0.00  0.00    +0.002 A 
ATOM      2  C   UNL     1       1.174   2.083   0.002  0.00  0.00    +0.008 A 
ATOM      3  C   UNL     1       2.375   1.409  -0.013  0.00  0.00    +0.005 A 
ATOM      4  C   UNL     1       2.407   0.018  -0.020  0.00  0.00    +0.057 A 
ATOM      5  C   UNL     1       1.203  -0.685  -0.013  0.00  0.00    +0.062 A 
ATOM      6  C   UNL     1       0.002  -0.004   0.002  0.00  0.00    +0.022 A 
ATOM      7 CL   UNL     1       1.215  -2.421  -0.023  0.00  0.00    -0.082 Cl
ATOM      8  N   UNL     1       3.728  -0.434  -0.032  0.00  0.00    -0.282 N 
ATOM      9  C   UNL     1       4.613   0.582  -0.034  0.00  0.00    +0.243 C 
ATOM     10  O   UNL     1       5.822   0.489  -0.041  0.00  0.00    -0.273 OA
ATOM     11  C   UNL     1       3.810   1.853  -0.024  0.00  0.00    +0.136 C 
ATOM     12  C   UNL     1       4.142   2.718   1.197  0.00  0.00    +0.123 C 
ATOM     13  C   UNL     1       5.149   3.776   0.667  0.00  0.00    +0.110 C 
ATOM     14  C   UNL     1       5.329   3.436  -0.828  0.00  0.00    +0.101 C 
ATOM     15  N   UNL     1       4.109   2.687  -1.204  0.00  0.00    -0.293 NA
ATOM     16  C   UNL     1       6.420   3.454   1.421  0.00  0.00    +0.227 C 
ATOM     17  O   UNL     1       7.471   4.049   1.308  0.00  0.00    -0.275 OA
ATOM     18  N   UNL     1       6.205   2.411   2.230  0.00  0.00    -0.239 N 
ATOM     19  C   UNL     1       4.948   1.914   2.191  0.00  0.00    +0.228 C 
ATOM     20  O   UNL     1       4.530   0.978   2.839  0.00  0.00    -0.275 OA
ATOM     21  H   UNL     1       3.980  -1.371  -0.039  0.00  0.00    +0.155 HD
ATOM     22  H   UNL     1       4.267   2.115  -2.020  0.00  0.00    +0.124 HD
ENDROOT
BRANCH  14  23
ATOM     23  C   UNL     1       5.465   4.717  -1.653  0.00  0.00    +0.162 C 
BRANCH  23  24
ATOM     24  C   UNL     1       5.516   4.369  -3.118  0.00  0.00    -0.018 A 
ATOM     25  C   UNL     1       4.343   4.199  -3.829  0.00  0.00    +0.007 A 
ATOM     26  C   UNL     1       4.389   3.879  -5.173  0.00  0.00    +0.020 A 
ATOM     27  C   UNL     1       5.610   3.728  -5.806  0.00  0.00    +0.041 A 
ATOM     28  C   UNL     1       6.784   3.898  -5.094  0.00  0.00    +0.020 A 
ATOM     29  C   UNL     1       6.736   4.224  -3.751  0.00  0.00    +0.007 A 
ATOM     30 CL   UNL     1       5.669   3.326  -7.494  0.00  0.00    -0.084 Cl
ENDBRANCH  23  24
BRANCH  23  31
ATOM     31  O   UNL     1       4.342   5.565  -1.404  0.00  0.00    -0.386 OA
ATOM     32  H   UNL     1       3.490   5.167  -1.632  0.00  0.00    +0.210 HD
ENDBRANCH  23  31
ENDBRANCH  14  23
BRANCH  18  33
ATOM     33  C   UNL     1       7.247   1.853   3.097  0.00  0.00    +0.148 C 
BRANCH  33  34
ATOM     34  C   UNL     1       7.213   2.558   4.454  0.00  0.00    +0.136 C 
ATOM     35  C   UNL     1       8.331   2.006   5.374  0.00  0.00    +0.035 C 
ATOM     36  C   UNL     1       8.541   3.208   6.335  0.00  0.00    +0.031 C 
ATOM     37  C   UNL     1       8.288   4.417   5.409  0.00  0.00    +0.160 C 
ATOM     38  O   UNL     1       7.510   3.955   4.297  0.00  0.00    -0.375 OA
ENDBRANCH  33  34
ENDBRANCH  18  33
TORSDOF 5
