REMARK  Name = ZINC20725788
REMARK  9 active torsions:
REMARK  status: ('A' for Active; 'I' for Inactive)
REMARK    1  A    between atoms: C_1  and  O_2
REMARK    2  A    between atoms: O_2  and  C_3
REMARK    3  A    between atoms: C_8  and  N_9
REMARK    4  A    between atoms: N_9  and  C_10
REMARK    5  A    between atoms: C_10  and  N_12
REMARK    6  A    between atoms: N_12  and  C_13
REMARK    7  A    between atoms: C_15  and  S_26
REMARK    8  A    between atoms: C_18  and  N_19
REMARK    9  A    between atoms: S_26  and  N_29
REMARK                            x       y       z     vdW  Elec       q    Type
REMARK                         _______ _______ _______ _____ _____    ______ ____
ROOT
ATOM      1  C   UNL     1      -0.430  -3.230  -0.338  0.00  0.00    +0.056 A 
ATOM      2  C   UNL     1      -1.222  -2.182   0.108  0.00  0.00    +0.053 A 
ATOM      3  C   UNL     1      -1.208  -0.972  -0.560  0.00  0.00    +0.107 A 
ATOM      4  C   UNL     1      -0.411  -0.803  -1.677  0.00  0.00    +0.030 A 
ATOM      5  C   UNL     1       0.385  -1.840  -2.126  0.00  0.00    +0.027 A 
ATOM      6  C   UNL     1       0.378  -3.058  -1.462  0.00  0.00    +0.051 A 
ENDROOT
BRANCH   6   7
ATOM      7  N   UNL     1       1.179  -4.111  -1.918  0.00  0.00    -0.328 N 
ATOM      8  C   UNL     1       2.614  -3.752  -1.854  0.00  0.00    +0.105 C 
ATOM      9  C   UNL     1       3.493  -4.734  -2.579  0.00  0.00    +0.019 C 
ATOM     10  C   UNL     1       3.716  -4.221  -4.018  0.00  0.00    +0.002 C 
ATOM     11  C   UNL     1       2.570  -4.488  -4.881  0.00  0.00    +0.002 C 
ATOM     12  C   UNL     1       1.289  -3.789  -4.380  0.00  0.00    +0.019 C 
ATOM     13  C   UNL     1       0.721  -4.590  -3.241  0.00  0.00    +0.105 C 
ENDBRANCH   6   7
BRANCH   3  14
ATOM     14  S   UNL     1      -2.216   0.356   0.009  0.00  0.00    +0.061 S 
ATOM     15  O   UNL     1      -3.283  -0.228   0.743  0.00  0.00    -0.153 OA
ATOM     16  O   UNL     1      -2.437   1.206  -1.109  0.00  0.00    -0.153 OA
BRANCH  14  17
ATOM     17  N   UNL     1      -1.315   1.225   1.093  0.00  0.00    -0.177 NA
ATOM     18  C   UNL     1      -0.499   2.319   0.652  0.00  0.00    +0.109 C 
ATOM     19  C   UNL     1       0.944   1.960   0.218  0.00  0.00    +0.017 C 
ATOM     20  C   UNL     1       1.552   0.922   1.194  0.00  0.00    +0.001 C 
ATOM     21  C   UNL     1       1.146   1.219   2.608  0.00  0.00    +0.001 C 
ATOM     22  C   UNL     1      -0.038   0.302   2.892  0.00  0.00    +0.017 C 
ATOM     23  C   UNL     1      -1.339   0.880   2.555  0.00  0.00    +0.109 C 
ENDBRANCH  14  17
ENDBRANCH   3  14
BRANCH   1  24
ATOM     24  N   UNL     1      -0.442  -4.457   0.338  0.00  0.00    -0.295 N 
ATOM     25  H   UNL     1       0.493  -5.019   0.475  0.00  0.00    +0.154 HD
BRANCH  24  26
ATOM     26  C   UNL     1      -1.601  -4.950   0.819  0.00  0.00    +0.139 C 
ATOM     27  S   UNL     1      -3.068  -4.112   0.542  0.00  0.00    -0.018 S 
BRANCH  26  28
ATOM     28  N   UNL     1      -1.604  -6.102   1.519  0.00  0.00    -0.294 N 
ATOM     29  H   UNL     1      -0.656  -6.615   1.738  0.00  0.00    +0.154 HD
BRANCH  28  35
ATOM     30  C   UNL     1      -2.892  -7.232   3.230  0.00  0.00    +0.141 A 
ATOM     31  C   UNL     1      -4.091  -7.767   3.669  0.00  0.00    +0.047 A 
ATOM     32  C   UNL     1      -5.209  -7.718   2.857  0.00  0.00    +0.004 A 
ATOM     33  C   UNL     1      -5.134  -7.136   1.605  0.00  0.00    +0.002 A 
ATOM     34  C   UNL     1      -3.942  -6.594   1.161  0.00  0.00    +0.027 A 
ATOM     35  C   UNL     1      -2.815  -6.645   1.969  0.00  0.00    +0.075 A 
BRANCH  30  37
ATOM     36  C   UNL     1      -1.944  -7.896   5.308  0.00  0.00    +0.277 C 
ATOM     37  O   UNL     1      -1.792  -7.279   4.028  0.00  0.00    -0.493 OA
ENDBRANCH  30  37
ENDBRANCH  28  35
ENDBRANCH  26  28
ENDBRANCH  24  26
ENDBRANCH   1  24
TORSDOF 8
