REMARK  Name = ZINC65083937
REMARK  7 active torsions:
REMARK  status: ('A' for Active; 'I' for Inactive)
REMARK    1  A    between atoms: C_1  and  C_2
REMARK    2  A    between atoms: C_2  and  C_3
REMARK    3  A    between atoms: C_4  and  C_9
REMARK    4  A    between atoms: C_5  and  C_8
REMARK    5  A    between atoms: C_15  and  C_17
REMARK    6  A    between atoms: C_20  and  C_24
REMARK    7  A    between atoms: C_22  and  C_23
REMARK                            x       y       z     vdW  Elec       q    Type
REMARK                         _______ _______ _______ _____ _____    ______ ____
ROOT
ATOM      1  C   UNL     1       3.173  -0.600   0.268  0.00  0.00    +0.255 C 
ATOM      2  O   UNL     1       3.749   0.463   0.139  0.00  0.00    -0.270 OA
ATOM      3  N   UNL     1       3.456  -1.624  -0.562  0.00  0.00    -0.259 N 
ATOM      4  C   UNL     1       4.404  -1.465  -1.563  0.00  0.00    +0.188 A 
ATOM      5  N   UNL     1       5.146  -0.410  -1.875  0.00  0.00    -0.125 NA
ATOM      6  N   UNL     1       5.972  -0.434  -2.829  0.00  0.00    -0.140 NA
ATOM      7  C   UNL     1       6.148  -1.516  -3.576  0.00  0.00    +0.134 A 
ATOM      8  S   UNL     1       4.981  -2.628  -2.796  0.00  0.00    -0.030 S 
ATOM      9  H   UNL     1       2.996  -2.472  -0.459  0.00  0.00    +0.157 HD
ENDROOT
BRANCH   7  10
ATOM     10  C   UNL     1       7.054  -1.742  -4.722  0.00  0.00    +0.012 A 
ATOM     11  C   UNL     1       7.069  -2.977  -5.372  0.00  0.00    +0.011 A 
ATOM     12  C   UNL     1       7.917  -3.181  -6.441  0.00  0.00    +0.004 A 
ATOM     13  C   UNL     1       8.752  -2.164  -6.869  0.00  0.00    -0.050 A 
ATOM     14  C   UNL     1       8.743  -0.938  -6.229  0.00  0.00    +0.007 A 
ATOM     15  C   UNL     1       7.895  -0.719  -5.162  0.00  0.00    -0.040 A 
ATOM     16  C   UNL     1       7.882   0.620  -4.471  0.00  0.00    +0.044 C 
ATOM     17  C   UNL     1       9.676  -2.394  -8.037  0.00  0.00    +0.044 C 
ENDBRANCH   7  10
BRANCH   1  19
ATOM     18  C   UNL     1       0.731  -0.503   1.223  0.00  0.00    +0.096 A 
ATOM     19  C   UNL     1       2.167  -0.769   1.331  0.00  0.00    +0.102 A 
ATOM     20  C   UNL     1       2.393  -1.203   2.605  0.00  0.00    +0.147 A 
ATOM     21  O   UNL     1       1.225  -1.216   3.252  0.00  0.00    -0.359 OA
ATOM     22  N   UNL     1       0.204  -0.774   2.380  0.00  0.00    -0.082 NA
ATOM     23  C   UNL     1       3.728  -1.599   3.181  0.00  0.00    +0.090 C 
BRANCH  18  25
ATOM     24  C   UNL     1      -0.019   1.526   0.010  0.00  0.00    +0.010 C 
ATOM     25  C   UNL     1       0.002  -0.004   0.002  0.00  0.00    +0.056 C 
ENDBRANCH  18  25
ENDBRANCH   1  19
TORSDOF 3
