REMARK  Name = ZINC40105308
REMARK  13 active torsions:
REMARK  status: ('A' for Active; 'I' for Inactive)
REMARK    1  A    between atoms: C_1  and  C_2
REMARK    2  A    between atoms: C_3  and  C_34
REMARK    3  A    between atoms: C_7  and  N_19
REMARK    4  A    between atoms: C_9  and  C_11
REMARK    5  A    between atoms: C_11  and  N_12
REMARK    6  A    between atoms: C_15  and  C_18
REMARK    7  A    between atoms: N_19  and  C_20
REMARK    8  A    between atoms: C_20  and  C_21
REMARK    9  A    between atoms: C_21  and  C_22
REMARK   10  A    between atoms: C_22  and  C_23
REMARK   11  A    between atoms: C_22  and  C_29
REMARK   12  A    between atoms: C_22  and  O_33
REMARK   13  A    between atoms: N_27  and  C_28
REMARK                            x       y       z     vdW  Elec       q    Type
REMARK                         _______ _______ _______ _____ _____    ______ ____
ROOT
ATOM      1  C   UNL     1       3.247   1.736   0.078  0.00  0.00    +0.045 C 
ATOM      2  C   UNL     1       3.789   0.335   0.192  0.00  0.00    -0.028 A 
ATOM      3  C   UNL     1       4.345  -0.267  -0.870  0.00  0.00    -0.008 A 
ATOM      4  S   UNL     1       4.819  -1.867  -0.242  0.00  0.00    -0.074 S 
ATOM      5  C   UNL     1       4.259  -1.684   1.430  0.00  0.00    +0.114 A 
ATOM      6  C   UNL     1       3.722  -0.378   1.456  0.00  0.00    +0.051 A 
ATOM      7  C   UNL     1       3.193   0.039   2.708  0.00  0.00    +0.131 A 
ATOM      8  N   UNL     1       3.240  -0.792   3.737  0.00  0.00    -0.219 NA
ATOM      9  C   UNL     1       3.763  -2.001   3.642  0.00  0.00    +0.116 A 
ATOM     10  N   UNL     1       4.260  -2.448   2.505  0.00  0.00    -0.227 NA
ATOM     11  C   UNL     1       4.524   0.279  -2.263  0.00  0.00    +0.052 C 
ENDROOT
BRANCH   7  12
ATOM     12  N   UNL     1       2.637   1.298   2.850  0.00  0.00    -0.328 N 
ATOM     13  H   UNL     1       2.539   1.874   2.076  0.00  0.00    +0.147 HD
BRANCH  12  14
ATOM     14  C   UNL     1       2.197   1.760   4.168  0.00  0.00    +0.106 C 
BRANCH  14  15
ATOM     15  C   UNL     1       1.624   3.174   4.047  0.00  0.00    +0.070 C 
BRANCH  15  16
ATOM     16  C   UNL     1       1.317   3.720   5.443  0.00  0.00    +0.220 C 
BRANCH  16  17
ATOM     17  C   UNL     1       0.877   5.158   5.334  0.00  0.00    +0.150 A 
ATOM     18  N   UNL     1       0.299   5.700   4.298  0.00  0.00    -0.237 NA
ATOM     19  C   UNL     1       0.051   6.992   4.555  0.00  0.00    +0.130 A 
ATOM     20  C   UNL     1       0.492   7.262   5.798  0.00  0.00    +0.106 A 
ATOM     21  N   UNL     1       1.012   6.097   6.295  0.00  0.00    -0.335 N 
ATOM     22  C   UNL     1       1.607   5.906   7.620  0.00  0.00    +0.150 C 
ENDBRANCH  16  17
BRANCH  16  23
ATOM     23  C   UNL     1       0.199   2.892   6.080  0.00  0.00    +0.425 C 
ATOM     24  F   UNL     1       0.560   1.541   6.077  0.00  0.00    -0.167 F 
ATOM     25  F   UNL     1      -0.004   3.318   7.397  0.00  0.00    -0.167 F 
ATOM     26  F   UNL     1      -0.981   3.061   5.349  0.00  0.00    -0.167 F 
ENDBRANCH  16  23
BRANCH  16  27
ATOM     27  O   UNL     1       2.490   3.641   6.255  0.00  0.00    -0.373 OA
ATOM     28  H   UNL     1       3.241   4.144   5.910  0.00  0.00    +0.211 HD
ENDBRANCH  16  27
ENDBRANCH  15  16
ENDBRANCH  14  15
ENDBRANCH  12  14
ENDBRANCH   7  12
BRANCH   9  29
ATOM     29  C   UNL     1       3.783  -2.893   4.856  0.00  0.00    -0.001 C 
BRANCH  29  30
ATOM     30  N   UNL     1       2.550  -3.692   4.897  0.00  0.00    +0.384 N 
ATOM     31  C   UNL     1       2.516  -4.595   3.741  0.00  0.00    -0.078 C 
ATOM     32  C   UNL     1       1.197  -5.371   3.735  0.00  0.00    -0.016 C 
ATOM     33  C   UNL     1       1.085  -6.187   5.026  0.00  0.00    -0.018 C 
ATOM     34  C   UNL     1       1.196  -5.242   6.226  0.00  0.00    -0.016 C 
ATOM     35  C   UNL     1       2.515  -4.471   6.141  0.00  0.00    -0.078 C 
ATOM     36  C   UNL     1      -0.267  -6.903   5.063  0.00  0.00    +0.007 C 
ATOM     37  H   UNL     1       1.751  -3.076   4.865  0.00  0.00    -0.081 HD
ENDBRANCH  29  30
ENDBRANCH   9  29
TORSDOF 9
