REMARK  Name = ZINC66956878
REMARK  7 active torsions:
REMARK  status: ('A' for Active; 'I' for Inactive)
REMARK    1  A    between atoms: C_1  and  C_2
REMARK    2  A    between atoms: N_8  and  C_9
REMARK    3  A    between atoms: C_9  and  C_11
REMARK    4  A    between atoms: C_9  and  C_12
REMARK    5  A    between atoms: C_12  and  N_13
REMARK    6  A    between atoms: N_16  and  C_17
REMARK    7  A    between atoms: C_20  and  C_23
REMARK                            x       y       z     vdW  Elec       q    Type
REMARK                         _______ _______ _______ _____ _____    ______ ____
ROOT
ATOM      1  N   UNL     1       2.695  -2.137   2.454  0.00  0.00    -0.301 N 
ATOM      2  C   UNL     1       3.161  -2.918   3.449  0.00  0.00    +0.304 C 
ATOM      3  O   UNL     1       3.675  -2.414   4.428  0.00  0.00    -0.253 OA
ATOM      4  N   UNL     1       3.057  -4.259   3.357  0.00  0.00    -0.269 N 
ATOM      5  H   UNL     1       2.285  -2.539   1.673  0.00  0.00    +0.150 HD
ATOM      6  H   UNL     1       2.711  -4.665   2.547  0.00  0.00    +0.156 HD
ENDROOT
BRANCH   4   7
ATOM      7  C   UNL     1       3.446  -5.065   4.431  0.00  0.00    +0.035 A 
ATOM      8  C   UNL     1       3.257  -4.622   5.735  0.00  0.00    +0.024 A 
ATOM      9  C   UNL     1       3.641  -5.414   6.796  0.00  0.00    +0.013 A 
ATOM     10  C   UNL     1       4.219  -6.662   6.559  0.00  0.00    +0.019 A 
ATOM     11  C   UNL     1       4.406  -7.105   5.249  0.00  0.00    +0.013 A 
ATOM     12  C   UNL     1       4.016  -6.310   4.192  0.00  0.00    +0.024 A 
BRANCH  10  13
ATOM     13  C   UNL     1       4.631  -7.514   7.695  0.00  0.00    +0.164 A 
ATOM     14  N   UNL     1       5.463  -8.537   7.650  0.00  0.00    -0.129 NA
ATOM     15  N   UNL     1       5.592  -9.046   8.827  0.00  0.00    -0.134 NA
ATOM     16  C   UNL     1       4.863  -8.387   9.676  0.00  0.00    +0.134 A 
ATOM     17  N   UNL     1       4.232  -7.392   8.989  0.00  0.00    -0.311 N 
ATOM     18  C   UNL     1       3.315  -6.419   9.582  0.00  0.00    +0.125 C 
ATOM     19  C   UNL     1       2.861  -6.942  10.950  0.00  0.00    +0.022 C 
ATOM     20  C   UNL     1       4.083  -7.356  11.774  0.00  0.00    +0.009 C 
ATOM     21  C   UNL     1       4.702  -8.620  11.158  0.00  0.00    +0.076 C 
ENDBRANCH  10  13
ENDBRANCH   4   7
BRANCH   1  22
ATOM     22  C   UNL     1       2.809  -0.680   2.553  0.00  0.00    +0.090 C 
BRANCH  22  23
ATOM     23  C   UNL     1       2.068  -0.030   1.383  0.00  0.00    -0.054 C 
ATOM     24  C   UNL     1       2.351   1.474   1.372  0.00  0.00    -0.012 C 
BRANCH  23  31
ATOM     25  C   UNL     1       0.855  -2.149  -0.004  0.00  0.00    -0.013 C 
ATOM     26  C   UNL     1       0.334  -1.684   1.358  0.00  0.00    -0.071 C 
ATOM     27  C   UNL     1      -1.177  -1.913   1.430  0.00  0.00    -0.016 C 
ATOM     28  C   UNL     1      -1.694  -1.447   2.794  0.00  0.00    -0.003 C 
ATOM     29  C   UNL     1      -1.320   0.025   2.995  0.00  0.00    -0.019 C 
ATOM     30  C   UNL     1       0.197   0.182   2.865  0.00  0.00    -0.078 C 
ATOM     31  N   UNL     1       0.624  -0.256   1.530  0.00  0.00    +0.384 N 
ATOM     32  H   UNL     1       0.129   0.274   0.829  0.00  0.00    -0.081 HD
ENDBRANCH  23  31
ENDBRANCH  22  23
ENDBRANCH   1  22
TORSDOF 5
