REMARK  Name = ZINC05390562
REMARK  2 active torsions:
REMARK  status: ('A' for Active; 'I' for Inactive)
REMARK    1  A    between atoms: C_1  and  C_2
REMARK    2  A    between atoms: C_7  and  C_21
REMARK                            x       y       z     vdW  Elec       q    Type
REMARK                         _______ _______ _______ _____ _____    ______ ____
ROOT
ATOM      1  C   UNL     1      -0.122   5.749   0.708  0.00  0.00    +0.008 C 
ATOM      2  C   UNL     1      -0.097   4.220   0.748  0.00  0.00    -0.001 C 
ATOM      3  C   UNL     1       1.143   3.707   0.012  0.00  0.00    +0.055 C 
ATOM      4  C   UNL     1       1.139   2.200   0.003  0.00  0.00    +0.019 C 
ATOM      5  C   UNL     1      -0.018   1.503   0.010  0.00  0.00    +0.039 C 
ATOM      6  C   UNL     1       0.002  -0.004   0.002  0.00  0.00    +0.147 C 
ATOM      7  C   UNL     1       2.372   0.211  -0.409  0.00  0.00    +0.166 C 
ATOM      8  N   UNL     1       2.334   1.530  -0.017  0.00  0.00    -0.292 N 
ATOM      9  N   UNL     1       3.569  -0.344  -0.807  0.00  0.00    -0.243 N 
ATOM     10  C   UNL     1       3.620  -1.666  -1.203  0.00  0.00    +0.295 A 
ATOM     11  N   UNL     1       2.596  -2.479  -1.233  0.00  0.00    -0.195 NA
ATOM     12  C   UNL     1       3.016  -3.695  -1.677  0.00  0.00    +0.111 A 
ATOM     13  C   UNL     1       2.374  -4.912  -1.906  0.00  0.00    +0.031 A 
ATOM     14  C   UNL     1       3.098  -5.991  -2.363  0.00  0.00    +0.002 A 
ATOM     15  C   UNL     1       4.459  -5.874  -2.597  0.00  0.00    +0.004 A 
ATOM     16  C   UNL     1       5.107  -4.676  -2.374  0.00  0.00    +0.048 A 
ATOM     17  C   UNL     1       4.394  -3.581  -1.914  0.00  0.00    +0.157 A 
ATOM     18  O   UNL     1       4.730  -2.307  -1.608  0.00  0.00    -0.424 OA
ATOM     19  C   UNL     1      -1.260   2.160   0.032  0.00  0.00    +0.163 C 
ATOM     20  O   UNL     1      -2.283   1.505   0.029  0.00  0.00    -0.292 OA
ATOM     21  C   UNL     1      -1.343   3.662   0.052  0.00  0.00    +0.083 C 
ATOM     22  H   UNL     1       3.150   1.984   0.244  0.00  0.00    +0.154 HD
ATOM     23  H   UNL     1       4.376   0.194  -0.808  0.00  0.00    +0.159 HD
ATOM     24  N   UNL     1       1.310  -0.601  -0.438  0.00  0.00    -0.350 N 
ATOM     25  H   UNL     1       1.383  -1.578  -0.744  0.00  0.00    +0.163 HD
ENDROOT
BRANCH   6  26
ATOM     26  C   UNL     1      -0.307  -0.509   1.388  0.00  0.00    -0.015 A 
ATOM     27  C   UNL     1       0.684  -0.535   2.350  0.00  0.00    +0.044 A 
ATOM     28  C   UNL     1       0.400  -0.994   3.626  0.00  0.00    +0.126 A 
ATOM     29  C   UNL     1      -0.875  -1.437   3.933  0.00  0.00    +0.076 A 
ATOM     30  C   UNL     1      -1.866  -1.415   2.967  0.00  0.00    +0.126 A 
ATOM     31  C   UNL     1      -1.581  -0.950   1.694  0.00  0.00    +0.044 A 
ATOM     32  F   UNL     1      -3.110  -1.847   3.266  0.00  0.00    -0.205 F 
ATOM     33  F   UNL     1       1.369  -1.016   4.567  0.00  0.00    -0.205 F 
ENDBRANCH   6  26
TORSDOF 1
