REMARK  Name = ZINC10961083
REMARK  8 active torsions:
REMARK  status: ('A' for Active; 'I' for Inactive)
REMARK    1  A    between atoms: C_1  and  C_2
REMARK    2  A    between atoms: C_5  and  C_8
REMARK    3  A    between atoms: N_15  and  C_18
REMARK    4  A    between atoms: C_18  and  C_19
REMARK    5  A    between atoms: C_19  and  C_20
REMARK    6  A    between atoms: N_22  and  C_23
REMARK    7  A    between atoms: C_23  and  C_25
REMARK    8  A    between atoms: C_23  and  C_26
REMARK                            x       y       z     vdW  Elec       q    Type
REMARK                         _______ _______ _______ _____ _____    ______ ____
ROOT
ATOM      1  C   UNL     1      -1.309   2.116   0.020  0.00  0.00    +0.004 A 
ATOM      2  C   UNL     1      -2.280   1.810  -0.874  0.00  0.00    +0.056 A 
ATOM      3  S   UNL     1      -3.597   2.935  -0.454  0.00  0.00    -0.076 S 
ATOM      4  C   UNL     1      -2.818   3.788   0.893  0.00  0.00    +0.116 A 
ATOM      5  C   UNL     1      -1.556   3.178   0.988  0.00  0.00    +0.080 A 
ATOM      6  C   UNL     1      -0.699   3.684   2.016  0.00  0.00    +0.263 A 
ATOM      7  O   UNL     1       0.416   3.219   2.177  0.00  0.00    -0.267 OA
ATOM      8  N   UNL     1      -1.143   4.683   2.803  0.00  0.00    -0.298 N 
ATOM      9  C   UNL     1      -2.381   5.213   2.638  0.00  0.00    +0.203 A 
ATOM     10  N   UNL     1      -3.186   4.773   1.708  0.00  0.00    -0.230 NA
ENDROOT
BRANCH   1  15
ATOM     11  C   UNL     1       3.710  -0.706  -0.037  0.00  0.00    +0.044 C 
ATOM     12  C   UNL     1       2.396   0.033  -0.021  0.00  0.00    -0.050 A 
ATOM     13  C   UNL     1       1.208  -0.675  -0.013  0.00  0.00    +0.004 A 
ATOM     14  C   UNL     1       0.002  -0.004   0.002  0.00  0.00    +0.009 A 
ATOM     15  C   UNL     1      -0.017   1.390   0.010  0.00  0.00    -0.017 A 
ATOM     16  C   UNL     1       1.184   2.098   0.002  0.00  0.00    +0.009 A 
ATOM     17  C   UNL     1       2.384   1.416  -0.014  0.00  0.00    +0.004 A 
ENDBRANCH   1  15
BRANCH   8  18
ATOM     18  C   UNL     1      -0.271   5.207   3.857  0.00  0.00    +0.135 C 
BRANCH  18  19
ATOM     19  C   UNL     1       0.569   6.357   3.300  0.00  0.00    +0.117 C 
BRANCH  19  20
ATOM     20  C   UNL     1       1.465   6.897   4.385  0.00  0.00    +0.215 C 
ATOM     21  O   UNL     1       1.435   6.409   5.495  0.00  0.00    -0.276 OA
ATOM     22  N   UNL     1       2.301   7.921   4.121  0.00  0.00    -0.309 N 
ATOM     23  H   UNL     1       2.325   8.311   3.233  0.00  0.00    +0.149 HD
BRANCH  22  24
ATOM     24  C   UNL     1       3.172   8.445   5.176  0.00  0.00    +0.100 C 
ATOM     25  C   UNL     1       4.452   7.610   5.242  0.00  0.00    +0.033 C 
BRANCH  24  26
ATOM     26  C   UNL     1       3.522   9.879   4.871  0.00  0.00    -0.024 A 
ATOM     27  C   UNL     1       3.798  10.261   3.571  0.00  0.00    +0.009 A 
ATOM     28  C   UNL     1       4.119  11.575   3.287  0.00  0.00    +0.050 A 
ATOM     29  C   UNL     1       4.166  12.513   4.305  0.00  0.00    +0.166 A 
ATOM     30  C   UNL     1       3.889  12.129   5.615  0.00  0.00    +0.167 A 
ATOM     31  C   UNL     1       3.562  10.811   5.891  0.00  0.00    +0.055 A 
ATOM     32  O   UNL     1       4.000  13.223   6.423  0.00  0.00    -0.453 OA
ATOM     33  C   UNL     1       3.948  14.360   5.541  0.00  0.00    +0.466 C 
ATOM     34  O   UNL     1       4.452  13.848   4.293  0.00  0.00    -0.453 OA
ENDBRANCH  24  26
ENDBRANCH  22  24
ENDBRANCH  19  20
ENDBRANCH  18  19
ENDBRANCH   8  18
TORSDOF 6
