REMARK  Name = ZINC54616185
REMARK  14 active torsions:
REMARK  status: ('A' for Active; 'I' for Inactive)
REMARK    1  A    between atoms: C_1  and  C_2
REMARK    2  A    between atoms: C_2  and  C_3
REMARK    3  A    between atoms: C_3  and  C_4
REMARK    4  A    between atoms: C_4  and  O_5
REMARK    5  A    between atoms: O_5  and  C_6
REMARK    6  A    between atoms: C_10  and  C_12
REMARK    7  A    between atoms: C_14  and  C_26
REMARK    8  A    between atoms: C_15  and  C_25
REMARK    9  A    between atoms: C_20  and  S_22
REMARK   10  A    between atoms: S_22  and  C_23
REMARK   11  A    between atoms: C_23  and  C_24
REMARK   12  A    between atoms: N_28  and  C_29
REMARK   13  A    between atoms: C_33  and  C_36
REMARK   14  A    between atoms: C_34  and  C_35
REMARK                            x       y       z     vdW  Elec       q    Type
REMARK                         _______ _______ _______ _____ _____    ______ ____
ROOT
ATOM      1  C   UNL     1       3.094  -6.327   5.094  0.00  0.00    +0.177 C 
ATOM      2  C   UNL     1       2.091  -7.184   5.819  0.00  0.00    +0.060 C 
ATOM      3  C   UNL     1       2.142  -8.524   5.827  0.00  0.00    +0.018 C 
ATOM      4  N   UNL     1       3.131  -9.221   5.176  0.00  0.00    -0.287 N 
ATOM      5  C   UNL     1       4.230  -8.503   4.727  0.00  0.00    +0.219 A 
ATOM      6  N   UNL     1       4.231  -7.148   4.687  0.00  0.00    -0.220 N 
ATOM      7  N   UNL     1       5.479  -6.763   4.199  0.00  0.00    -0.141 NA
ATOM      8  C   UNL     1       6.153  -7.869   3.969  0.00  0.00    +0.210 A 
ATOM      9  N   UNL     1       5.386  -8.923   4.290  0.00  0.00    -0.187 NA
ATOM     10  C   UNL     1       1.081  -9.289   6.573  0.00  0.00    +0.061 C 
ATOM     11  H   UNL     1       3.063 -10.179   5.036  0.00  0.00    +0.155 HD
ENDROOT
BRANCH   1  16
ATOM     12  C   UNL     1       1.780  -3.790   2.621  0.00  0.00    +0.121 A 
ATOM     13  C   UNL     1       1.262  -4.614   1.631  0.00  0.00    +0.045 A 
ATOM     14  C   UNL     1       1.341  -5.987   1.767  0.00  0.00    +0.004 A 
ATOM     15  C   UNL     1       1.933  -6.540   2.887  0.00  0.00    +0.006 A 
ATOM     16  C   UNL     1       2.449  -5.721   3.874  0.00  0.00    -0.015 A 
ATOM     17  C   UNL     1       2.378  -4.347   3.741  0.00  0.00    +0.051 A 
BRANCH  12  18
ATOM     18  O   UNL     1       1.704  -2.440   2.490  0.00  0.00    -0.492 OA
BRANCH  18  19
ATOM     19  C   UNL     1       1.074  -1.936   1.310  0.00  0.00    +0.229 C 
BRANCH  19  20
ATOM     20  C   UNL     1       1.084  -0.407   1.340  0.00  0.00    +0.041 C 
BRANCH  20  22
ATOM     21  C   UNL     1       0.419   1.662   0.106  0.00  0.00    +0.004 C 
ATOM     22  C   UNL     1       0.409   0.132   0.077  0.00  0.00    -0.000 C 
ENDBRANCH  20  22
ENDBRANCH  19  20
ENDBRANCH  18  19
ENDBRANCH  12  18
ENDBRANCH   1  16
BRANCH   2  23
ATOM     23  C   UNL     1       1.044  -6.545   6.526  0.00  0.00    +0.248 C 
ATOM     24  O   UNL     1       1.253  -6.078   7.631  0.00  0.00    -0.270 OA
ATOM     25  N   UNL     1      -0.183  -6.455   5.976  0.00  0.00    -0.281 N 
ATOM     26  H   UNL     1      -0.366  -6.883   5.125  0.00  0.00    +0.155 HD
BRANCH  25  27
ATOM     27  C   UNL     1      -1.192  -5.744   6.633  0.00  0.00    +0.037 A 
ATOM     28  C   UNL     1      -1.256  -5.747   8.021  0.00  0.00    +0.023 A 
ATOM     29  C   UNL     1      -2.254  -5.043   8.666  0.00  0.00    +0.002 A 
ATOM     30  C   UNL     1      -3.190  -4.337   7.932  0.00  0.00    +0.004 A 
ATOM     31  C   UNL     1      -3.129  -4.332   6.551  0.00  0.00    -0.046 A 
ATOM     32  C   UNL     1      -2.130  -5.028   5.899  0.00  0.00    -0.026 A 
ATOM     33  C   UNL     1      -2.061  -5.017   4.394  0.00  0.00    +0.046 C 
ATOM     34  C   UNL     1      -4.151  -3.561   5.756  0.00  0.00    +0.044 C 
ENDBRANCH  25  27
ENDBRANCH   2  23
BRANCH   8  35
ATOM     35  S   UNL     1       7.796  -7.954   3.339  0.00  0.00    -0.085 S 
BRANCH  35  36
ATOM     36  C   UNL     1       8.142  -9.733   3.252  0.00  0.00    +0.074 C 
ATOM     37  C   UNL     1       9.557  -9.952   2.713  0.00  0.00    +0.016 C 
ENDBRANCH  35  36
ENDBRANCH   8  35
TORSDOF 9
