REMARK  Name = ZINC64588109
REMARK  9 active torsions:
REMARK  status: ('A' for Active; 'I' for Inactive)
REMARK    1  A    between atoms: C_1  and  C_2
REMARK    2  A    between atoms: C_2  and  C_3
REMARK    3  A    between atoms: C_3  and  C_5
REMARK    4  A    between atoms: C_3  and  N_6
REMARK    5  A    between atoms: C_7  and  C_9
REMARK    6  A    between atoms: N_18  and  C_21
REMARK    7  A    between atoms: C_21  and  C_22
REMARK    8  A    between atoms: C_22  and  C_24
REMARK    9  A    between atoms: N_31  and  C_34
REMARK                            x       y       z     vdW  Elec       q    Type
REMARK                         _______ _______ _______ _____ _____    ______ ____
ROOT
ATOM      1  C   UNL     1      -4.128   0.350  -2.522  0.00  0.00    +0.039 A 
ATOM      2  C   UNL     1      -3.374   0.599  -3.672  0.00  0.00    +0.014 A 
ATOM      3  C   UNL     1      -3.999   0.961  -4.845  0.00  0.00    +0.016 A 
ATOM      4  C   UNL     1      -5.387   1.080  -4.882  0.00  0.00    +0.064 A 
ATOM      5  C   UNL     1      -6.148   0.832  -3.730  0.00  0.00    +0.067 A 
ATOM      6  C   UNL     1      -5.516   0.462  -2.554  0.00  0.00    +0.040 A 
ATOM      7  N   UNL     1      -7.536   0.956  -3.787  0.00  0.00    -0.229 N 
ATOM      8  C   UNL     1      -8.158   1.320  -4.961  0.00  0.00    +0.240 A 
ATOM      9  N   UNL     1      -9.445   1.364  -4.748  0.00  0.00    -0.129 NA
ATOM     10  N   UNL     1      -9.679   1.024  -3.410  0.00  0.00    -0.203 N 
ATOM     11  C   UNL     1      -8.482   0.778  -2.841  0.00  0.00    +0.353 A 
ATOM     12  O   UNL     1      -8.290   0.452  -1.683  0.00  0.00    -0.244 OA
ATOM     13  N   UNL     1      -7.429   1.571  -6.115  0.00  0.00    -0.280 N 
ATOM     14  C   UNL     1      -6.085   1.468  -6.125  0.00  0.00    +0.263 A 
ATOM     15  O   UNL     1      -5.457   1.691  -7.142  0.00  0.00    -0.267 OA
ATOM     16  C   UNL     1      -8.131   1.955  -7.342  0.00  0.00    +0.155 C 
ENDROOT
BRANCH   1  18
ATOM     17  N   UNL     1      -2.105  -0.148  -1.230  0.00  0.00    -0.309 N 
ATOM     18  C   UNL     1      -3.448  -0.040  -1.265  0.00  0.00    +0.244 C 
ATOM     19  O   UNL     1      -4.102  -0.261  -0.264  0.00  0.00    -0.270 OA
ATOM     20  H   UNL     1      -1.584   0.029  -2.029  0.00  0.00    +0.149 HD
BRANCH  17  21
ATOM     21  C   UNL     1      -1.433  -0.534   0.013  0.00  0.00    +0.070 C 
ATOM     22  C   UNL     1      -1.413  -2.059   0.130  0.00  0.00    +0.028 C 
BRANCH  21  24
ATOM     23  C   UNL     1      -0.019   1.526   0.010  0.00  0.00    +0.005 C 
ATOM     24  C   UNL     1       0.002  -0.004   0.002  0.00  0.00    +0.018 C 
ENDBRANCH  21  24
ENDBRANCH  17  21
ENDBRANCH   1  18
BRANCH  10  25
ATOM     25  C   UNL     1     -10.985   0.950  -2.749  0.00  0.00    +0.228 C 
BRANCH  25  26
ATOM     26  C   UNL     1     -11.325   2.294  -2.157  0.00  0.00    +0.185 C 
ATOM     27  O   UNL     1     -10.553   3.221  -2.275  0.00  0.00    -0.290 OA
BRANCH  26  28
ATOM     28  C   UNL     1     -12.594   2.480  -1.436  0.00  0.00    +0.021 A 
ATOM     29  C   UNL     1     -13.485   1.411  -1.293  0.00  0.00    +0.011 A 
ATOM     30  C   UNL     1     -14.671   1.592  -0.615  0.00  0.00    +0.002 A 
ATOM     31  C   UNL     1     -14.984   2.828  -0.077  0.00  0.00    +0.020 A 
ATOM     32  C   UNL     1     -14.108   3.892  -0.214  0.00  0.00    +0.042 A 
ATOM     33  C   UNL     1     -12.913   3.724  -0.885  0.00  0.00    +0.031 A 
ATOM     34 CL   UNL     1     -14.511   5.439   0.464  0.00  0.00    -0.084 Cl
ENDBRANCH  26  28
ENDBRANCH  25  26
ENDBRANCH  10  25
TORSDOF 6
