REMARK  Name = ZINC24769143
REMARK  11 active torsions:
REMARK  status: ('A' for Active; 'I' for Inactive)
REMARK    1  A    between atoms: C_1  and  C_2
REMARK    2  A    between atoms: C_2  and  C_3
REMARK    3  A    between atoms: C_3  and  C_25
REMARK    4  A    between atoms: N_6  and  C_10
REMARK    5  A    between atoms: C_10  and  C_11
REMARK    6  A    between atoms: N_13  and  C_14
REMARK    7  A    between atoms: C_16  and  C_24
REMARK    8  A    between atoms: C_17  and  C_19
REMARK    9  A    between atoms: C_19  and  O_21
REMARK   10  A    between atoms: O_21  and  C_22
REMARK   11  A    between atoms: C_22  and  C_23
REMARK                            x       y       z     vdW  Elec       q    Type
REMARK                         _______ _______ _______ _____ _____    ______ ____
ROOT
ATOM      1  C   UNL     1       2.490   1.047  -0.016  0.00  0.00    +0.138 C 
ATOM      2  C   UNL     1       2.933   0.779  -1.441  0.00  0.00    +0.251 C 
ATOM      3  O   UNL     1       3.183   1.600  -2.297  0.00  0.00    -0.272 OA
ATOM      4  N   UNL     1       2.993  -0.562  -1.558  0.00  0.00    -0.215 N 
ATOM      5  C   UNL     1       2.652  -1.173  -0.417  0.00  0.00    +0.310 C 
ATOM      6  O   UNL     1       2.630  -2.380  -0.277  0.00  0.00    -0.252 OA
ATOM      7  N   UNL     1       2.337  -0.301   0.558  0.00  0.00    -0.281 N 
ATOM      8  H   UNL     1       2.017  -0.420   1.604  0.00  0.00    +0.152 HD
ENDROOT
BRANCH   1   9
ATOM      9  C   UNL     1       1.175   1.783   0.000  0.00  0.00    -0.015 A 
ATOM     10  C   UNL     1      -0.013   1.076   0.008  0.00  0.00    +0.007 A 
ATOM     11  C   UNL     1      -1.219   1.750   0.017  0.00  0.00    +0.020 A 
ATOM     12  C   UNL     1      -1.237   3.134   0.030  0.00  0.00    +0.041 A 
ATOM     13  C   UNL     1      -0.048   3.841   0.023  0.00  0.00    +0.020 A 
ATOM     14  C   UNL     1       1.157   3.165   0.009  0.00  0.00    +0.007 A 
ATOM     15 CL   UNL     1      -2.752   3.982   0.048  0.00  0.00    -0.084 Cl
ENDBRANCH   1   9
BRANCH   1  17
ATOM     16  C   UNL     1       4.881   1.071   0.708  0.00  0.00    +0.007 C 
ATOM     17  C   UNL     1       3.558   1.839   0.740  0.00  0.00    +0.037 C 
ENDBRANCH   1  17
BRANCH   4  18
ATOM     18  C   UNL     1       3.381  -1.265  -2.783  0.00  0.00    +0.214 C 
BRANCH  18  19
ATOM     19  C   UNL     1       4.873  -1.483  -2.786  0.00  0.00    +0.236 C 
ATOM     20  O   UNL     1       5.545  -1.089  -1.856  0.00  0.00    -0.274 OA
ATOM     21  N   UNL     1       5.460  -2.114  -3.821  0.00  0.00    -0.279 N 
ATOM     22  H   UNL     1       4.850  -2.471  -4.665  0.00  0.00    +0.155 HD
BRANCH  21  23
ATOM     23  C   UNL     1       6.834  -2.315  -3.824  0.00  0.00    +0.073 A 
ATOM     24  C   UNL     1       7.609  -2.933  -4.783  0.00  0.00    +0.035 A 
ATOM     25  C   UNL     1       8.959  -3.022  -4.582  0.00  0.00    -0.028 A 
ATOM     26  C   UNL     1       9.466  -2.477  -3.410  0.00  0.00    +0.101 A 
ATOM     27  S   UNL     1       7.995  -1.841  -2.626  0.00  0.00    -0.067 S 
ATOM     28  C   UNL     1       9.860  -3.685  -5.592  0.00  0.00    +0.045 C 
BRANCH  26  29
ATOM     29  C   UNL     1      10.807  -2.431  -2.956  0.00  0.00    +0.346 C 
ATOM     30  O   UNL     1      11.695  -2.917  -3.632  0.00  0.00    -0.244 OA
BRANCH  29  31
ATOM     31  O   UNL     1      11.100  -1.850  -1.774  0.00  0.00    -0.461 OA
BRANCH  31  32
ATOM     32  C   UNL     1      12.473  -1.839  -1.378  0.00  0.00    +0.229 C 
ATOM     33  C   UNL     1      12.608  -1.143  -0.022  0.00  0.00    +0.048 C 
ENDBRANCH  31  32
ENDBRANCH  29  31
ENDBRANCH  26  29
ENDBRANCH  21  23
ENDBRANCH  18  19
ENDBRANCH   4  18
TORSDOF 8
