REMARK  Name = ZINC02801484
REMARK  6 active torsions:
REMARK  status: ('A' for Active; 'I' for Inactive)
REMARK    1  A    between atoms: C_1  and  C_2
REMARK    2  A    between atoms: C_3  and  C_28
REMARK    3  A    between atoms: C_4  and  C_21
REMARK    4  A    between atoms: C_10  and  C_15
REMARK    5  A    between atoms: C_28  and  O_30
REMARK    6  A    between atoms: O_30  and  C_31
REMARK                            x       y       z     vdW  Elec       q    Type
REMARK                         _______ _______ _______ _____ _____    ______ ____
ROOT
ATOM      1  C   UNL     1       1.349   3.712   0.009  0.00  0.00    +0.061 C 
ATOM      2  C   UNL     1       1.258   2.208  -0.002  0.00  0.00    +0.016 C 
ATOM      3  C   UNL     1       0.053   1.612   0.032  0.00  0.00    +0.065 C 
ATOM      4  C   UNL     1      -0.076   0.117   0.029  0.00  0.00    +0.092 C 
ATOM      5  C   UNL     1       1.199  -0.535  -0.441  0.00  0.00    +0.024 C 
ATOM      6  C   UNL     1       2.362   0.151  -0.451  0.00  0.00    +0.016 C 
ATOM      7  N   UNL     1       2.400   1.458  -0.046  0.00  0.00    -0.321 N 
ATOM      8  C   UNL     1       3.644  -0.499  -0.908  0.00  0.00    +0.059 C 
ATOM      9  C   UNL     1       3.334  -1.556  -1.970  0.00  0.00    +0.032 C 
ATOM     10  C   UNL     1       2.372  -2.585  -1.365  0.00  0.00    +0.088 C 
ATOM     11  C   UNL     1       1.143  -1.873  -0.869  0.00  0.00    +0.162 C 
ATOM     12  O   UNL     1       0.083  -2.466  -0.838  0.00  0.00    -0.292 OA
ATOM     13  H   UNL     1       3.362   1.905   0.245  0.00  0.00    +0.152 HD
ENDROOT
BRANCH   4  14
ATOM     14  C   UNL     1      -0.387  -0.355   1.426  0.00  0.00    -0.035 A 
ATOM     15  C   UNL     1       0.500  -0.099   2.455  0.00  0.00    +0.006 A 
ATOM     16  C   UNL     1       0.213  -0.527   3.738  0.00  0.00    +0.020 A 
ATOM     17  C   UNL     1      -0.956  -1.222   3.989  0.00  0.00    +0.041 A 
ATOM     18  C   UNL     1      -1.841  -1.483   2.958  0.00  0.00    +0.020 A 
ATOM     19  C   UNL     1      -1.555  -1.050   1.677  0.00  0.00    +0.006 A 
ATOM     20 CL   UNL     1      -1.313  -1.766   5.598  0.00  0.00    -0.084 Cl
ENDBRANCH   4  14
BRANCH   9  21
ATOM     21  C   UNL     1       4.609  -2.241  -2.391  0.00  0.00    -0.044 A 
ATOM     22  C   UNL     1       5.382  -2.899  -1.452  0.00  0.00    +0.004 A 
ATOM     23  C   UNL     1       6.549  -3.531  -1.839  0.00  0.00    +0.000 A 
ATOM     24  C   UNL     1       6.948  -3.496  -3.162  0.00  0.00    +0.000 A 
ATOM     25  C   UNL     1       6.177  -2.834  -4.099  0.00  0.00    +0.000 A 
ATOM     26  C   UNL     1       5.008  -2.206  -3.714  0.00  0.00    +0.004 A 
ENDBRANCH   9  21
BRANCH   3  27
ATOM     27  C   UNL     1      -1.115   2.410   0.064  0.00  0.00    +0.338 C 
ATOM     28  O   UNL     1      -1.023   3.618   0.169  0.00  0.00    -0.245 OA
BRANCH  27  29
ATOM     29  O   UNL     1      -2.330   1.830  -0.022  0.00  0.00    -0.458 OA
BRANCH  29  30
ATOM     30  C   UNL     1      -3.466   2.696   0.018  0.00  0.00    +0.177 C 
ATOM     31  C   UNL     1      -3.915   2.883   1.468  0.00  0.00    +0.044 C 
ATOM     32  C   UNL     1      -5.131   3.810   1.510  0.00  0.00    +0.004 C 
ATOM     33  C   UNL     1      -6.272   3.192   0.699  0.00  0.00    +0.000 C 
ATOM     34  C   UNL     1      -5.823   3.005  -0.751  0.00  0.00    +0.004 C 
ATOM     35  C   UNL     1      -4.607   2.078  -0.793  0.00  0.00    +0.044 C 
ENDBRANCH  29  30
ENDBRANCH  27  29
ENDBRANCH   3  27
TORSDOF 5
