REMARK  Name = ZINC19758319
REMARK  7 active torsions:
REMARK  status: ('A' for Active; 'I' for Inactive)
REMARK    1  A    between atoms: C_1  and  C_2
REMARK    2  A    between atoms: C_2  and  C_3
REMARK    3  A    between atoms: C_3  and  C_5
REMARK    4  A    between atoms: C_3  and  N_6
REMARK    5  A    between atoms: C_7  and  C_9
REMARK    6  A    between atoms: C_9  and  N_10
REMARK    7  A    between atoms: C_18  and  N_20
REMARK                            x       y       z     vdW  Elec       q    Type
REMARK                         _______ _______ _______ _____ _____    ______ ____
ROOT
ATOM      1  N   UNL     1      -4.446  -3.189   0.586  0.00  0.00    -0.315 N 
ATOM      2  C   UNL     1      -5.569  -2.574   1.302  0.00  0.00    +0.146 C 
ATOM      3  C   UNL     1      -6.879  -3.094   0.696  0.00  0.00    +0.248 C 
ATOM      4  O   UNL     1      -6.937  -2.660  -0.667  0.00  0.00    -0.488 OA
ATOM      5  C   UNL     1      -5.804  -2.814  -1.406  0.00  0.00    +0.143 A 
ATOM      6  C   UNL     1      -4.576  -3.068  -0.805  0.00  0.00    +0.073 A 
ATOM      7  C   UNL     1      -3.440  -3.208  -1.593  0.00  0.00    +0.028 A 
ATOM      8  C   UNL     1      -3.526  -3.099  -2.967  0.00  0.00    +0.025 A 
ATOM      9  C   UNL     1      -4.752  -2.849  -3.568  0.00  0.00    +0.028 A 
ATOM     10  C   UNL     1      -5.889  -2.707  -2.786  0.00  0.00    +0.070 A 
ENDROOT
BRANCH   9  11
ATOM     11  N   UNL     1      -4.841  -2.740  -4.961  0.00  0.00    -0.358 N 
ATOM     12  H   UNL     1      -5.813  -2.542  -5.437  0.00  0.00    +0.142 HD
ATOM     13  H   UNL     1      -3.939  -2.853  -5.580  0.00  0.00    +0.142 HD
ENDBRANCH   9  11
BRANCH   1  14
ATOM     14  C   UNL     1      -3.164  -2.638   1.045  0.00  0.00    +0.201 C 
BRANCH  14  16
ATOM     15  N   UNL     1      -2.089  -0.416   1.201  0.00  0.00    -0.311 N 
ATOM     16  C   UNL     1      -3.119  -1.160   0.754  0.00  0.00    +0.231 C 
ATOM     17  O   UNL     1      -4.011  -0.641   0.117  0.00  0.00    -0.274 OA
ATOM     18  H   UNL     1      -1.280  -0.887   1.779  0.00  0.00    +0.149 HD
BRANCH  15  19
ATOM     19  C   UNL     1      -2.046   1.021   0.918  0.00  0.00    +0.070 C 
ATOM     20  C   UNL     1      -2.857   1.773   1.976  0.00  0.00    +0.028 C 
BRANCH  19  22
ATOM     21  C   UNL     1       0.188   0.844  -0.187  0.00  0.00    +0.005 C 
ATOM     22  C   UNL     1      -0.594   1.504   0.950  0.00  0.00    +0.018 C 
ENDBRANCH  19  22
ENDBRANCH  15  19
ENDBRANCH  14  16
ENDBRANCH   1  14
TORSDOF 5
