REMARK  Name = ZINC61720599
REMARK  6 active torsions:
REMARK  status: ('A' for Active; 'I' for Inactive)
REMARK    1  A    between atoms: C_4  and  C_7
REMARK    2  A    between atoms: N_18  and  C_19
REMARK    3  A    between atoms: C_19  and  C_20
REMARK    4  A    between atoms: C_20  and  C_21
REMARK    5  A    between atoms: N_23  and  C_24
REMARK    6  A    between atoms: C_29  and  O_30
REMARK                            x       y       z     vdW  Elec       q    Type
REMARK                         _______ _______ _______ _____ _____    ______ ____
ROOT
ATOM      1  C   UNL     1       3.711  -0.727  -0.082  0.00  0.00    +0.193 C 
ATOM      2  N   UNL     1       4.684   0.028  -0.882  0.00  0.00    -0.321 N 
ATOM      3  C   UNL     1       4.581  -0.016  -2.267  0.00  0.00    +0.041 A 
ATOM      4  C   UNL     1       4.986   1.039  -3.066  0.00  0.00    +0.024 A 
ATOM      5  C   UNL     1       4.859   0.945  -4.439  0.00  0.00    +0.002 A 
ATOM      6  C   UNL     1       4.330  -0.196  -5.021  0.00  0.00    +0.001 A 
ATOM      7  C   UNL     1       3.923  -1.257  -4.239  0.00  0.00    +0.015 A 
ATOM      8  C   UNL     1       4.046  -1.177  -2.855  0.00  0.00    +0.058 A 
ATOM      9  C   UNL     1       3.635  -2.284  -1.973  0.00  0.00    +0.250 C 
ATOM     10  O   UNL     1       3.405  -3.385  -2.435  0.00  0.00    -0.270 OA
ATOM     11  N   UNL     1       3.518  -2.060  -0.651  0.00  0.00    -0.274 N 
ATOM     12  H   UNL     1       5.382   0.546  -0.453  0.00  0.00    +0.148 HD
ENDROOT
BRANCH   1  16
ATOM     13  C   UNL     1      -0.019   1.355  -0.057  0.00  0.00    +0.000 A 
ATOM     14  C   UNL     1       0.001  -0.027  -0.050  0.00  0.00    +0.000 A 
ATOM     15  C   UNL     1       1.208  -0.701  -0.058  0.00  0.00    +0.007 A 
ATOM     16  C   UNL     1       2.395   0.008  -0.074  0.00  0.00    -0.009 A 
ATOM     17  C   UNL     1       2.375   1.390  -0.083  0.00  0.00    +0.007 A 
ATOM     18  C   UNL     1       1.168   2.064  -0.073  0.00  0.00    +0.000 A 
ENDBRANCH   1  16
BRANCH  11  19
ATOM     19  C   UNL     1       3.187  -3.179   0.235  0.00  0.00    +0.119 C 
BRANCH  19  20
ATOM     20  C   UNL     1       4.475  -3.769   0.813  0.00  0.00    +0.115 C 
BRANCH  20  21
ATOM     21  C   UNL     1       4.146  -4.994   1.627  0.00  0.00    +0.219 C 
ATOM     22  O   UNL     1       2.994  -5.359   1.734  0.00  0.00    -0.275 OA
ATOM     23  N   UNL     1       5.131  -5.684   2.235  0.00  0.00    -0.283 N 
ATOM     24  H   UNL     1       6.057  -5.431   2.097  0.00  0.00    +0.155 HD
BRANCH  23  25
ATOM     25  C   UNL     1       4.817  -6.768   3.066  0.00  0.00    +0.075 A 
ATOM     26  C   UNL     1       3.736  -7.583   2.767  0.00  0.00    +0.027 A 
ATOM     27  C   UNL     1       3.429  -8.652   3.588  0.00  0.00    +0.002 A 
ATOM     28  C   UNL     1       4.197  -8.910   4.709  0.00  0.00    +0.004 A 
ATOM     29  C   UNL     1       5.276  -8.102   5.013  0.00  0.00    +0.047 A 
ATOM     30  C   UNL     1       5.594  -7.032   4.192  0.00  0.00    +0.138 A 
BRANCH  30  31
ATOM     31  O   UNL     1       6.659  -6.240   4.486  0.00  0.00    -0.505 OA
ATOM     32  H   UNL     1       6.444  -5.488   5.055  0.00  0.00    +0.292 HD
ENDBRANCH  30  31
ENDBRANCH  23  25
ENDBRANCH  20  21
ENDBRANCH  19  20
ENDBRANCH  11  19
TORSDOF 6
