REMARK  Name = ZINC15188396
REMARK  7 active torsions:
REMARK  status: ('A' for Active; 'I' for Inactive)
REMARK    1  A    between atoms: C_1  and  N_2
REMARK    2  A    between atoms: N_2  and  C_3
REMARK    3  A    between atoms: N_2  and  C_4
REMARK    4  A    between atoms: C_7  and  C_10
REMARK    5  A    between atoms: N_11  and  N_12
REMARK    6  A    between atoms: C_13  and  C_15
REMARK    7  A    between atoms: C_23  and  C_24
REMARK                            x       y       z     vdW  Elec       q    Type
REMARK                         _______ _______ _______ _____ _____    ______ ____
ROOT
ATOM      1  N   UNL     1      -1.270  -1.112  -8.381  0.00  0.00    -0.207 N 
ATOM      2  C   UNL     1      -0.259  -1.995  -8.509  0.00  0.00    +0.236 C 
ATOM      3  O   UNL     1       0.555  -2.117  -7.618  0.00  0.00    -0.274 OA
ATOM      4  H   UNL     1      -1.921  -1.014  -9.094  0.00  0.00    +0.177 HD
ENDROOT
BRANCH   2   5
ATOM      5  C   UNL     1      -0.140  -2.829  -9.759  0.00  0.00    +0.084 C 
ATOM      6  C   UNL     1       1.313  -3.076 -10.206  0.00  0.00    +0.009 C 
ATOM      7  C   UNL     1       2.210  -1.870  -9.876  0.00  0.00    +0.005 C 
ATOM      8  C   UNL     1       1.846  -0.729 -10.837  0.00  0.00    +0.001 C 
ATOM      9  C   UNL     1       0.317  -0.599 -10.887  0.00  0.00    +0.005 C 
ATOM     10  C   UNL     1      -0.283  -2.020 -11.062  0.00  0.00    +0.009 C 
ATOM     11  C   UNL     1       0.764  -2.993 -11.645  0.00  0.00    +0.027 C 
BRANCH  11  12
ATOM     12  C   UNL     1       1.714  -2.351 -12.623  0.00  0.00    -0.044 A 
ATOM     13  C   UNL     1       3.061  -2.657 -12.580  0.00  0.00    +0.004 A 
ATOM     14  C   UNL     1       3.933  -2.068 -13.477  0.00  0.00    +0.000 A 
ATOM     15  C   UNL     1       3.457  -1.175 -14.418  0.00  0.00    +0.000 A 
ATOM     16  C   UNL     1       2.109  -0.870 -14.463  0.00  0.00    +0.000 A 
ATOM     17  C   UNL     1       1.237  -1.462 -13.568  0.00  0.00    +0.004 A 
ENDBRANCH  11  12
ENDBRANCH   2   5
BRANCH   1  19
ATOM     18  C   UNL     1      -2.354   0.512  -7.096  0.00  0.00    +0.138 C 
ATOM     19  N   UNL     1      -1.380  -0.337  -7.220  0.00  0.00    -0.188 NA
BRANCH  18  23
ATOM     20  C   UNL     1      -2.689   2.861  -3.576  0.00  0.00    +0.029 A 
ATOM     21  C   UNL     1      -3.623   3.004  -4.596  0.00  0.00    +0.024 A 
ATOM     22  C   UNL     1      -3.518   2.244  -5.740  0.00  0.00    +0.011 A 
ATOM     23  C   UNL     1      -2.470   1.328  -5.874  0.00  0.00    -0.005 A 
ATOM     24  C   UNL     1      -1.533   1.188  -4.847  0.00  0.00    +0.011 A 
ATOM     25  C   UNL     1      -1.642   1.956  -3.708  0.00  0.00    +0.024 A 
BRANCH  20  27
ATOM     26  C   UNL     1      -1.813   3.489  -1.346  0.00  0.00    +0.129 C 
ATOM     27  N   UNL     1      -2.799   3.633  -2.419  0.00  0.00    -0.336 N 
ATOM     28  C   UNL     1      -3.901   4.588  -2.278  0.00  0.00    +0.129 C 
ENDBRANCH  20  27
ENDBRANCH  18  23
ENDBRANCH   1  19
TORSDOF 5
