REMARK  Name = ZINC13117914
REMARK  10 active torsions:
REMARK  status: ('A' for Active; 'I' for Inactive)
REMARK    1  A    between atoms: C_1  and  C_2
REMARK    2  A    between atoms: C_5  and  S_21
REMARK    3  A    between atoms: C_7  and  N_8
REMARK    4  A    between atoms: C_9  and  C_11
REMARK    5  A    between atoms: C_11  and  C_13
REMARK    6  A    between atoms: C_11  and  N_54
REMARK    7  A    between atoms: C_17  and  C_20
REMARK    8  A    between atoms: S_21  and  N_24
REMARK    9  A    between atoms: N_24  and  C_25
REMARK   10  A    between atoms: N_24  and  C_26
REMARK                            x       y       z     vdW  Elec       q    Type
REMARK                         _______ _______ _______ _____ _____    ______ ____
ROOT
ATOM      1  N   UNL     1       1.162   3.485   0.009  0.00  0.00    -0.287 N 
ATOM      2  C   UNL     1      -0.009   4.146  -0.078  0.00  0.00    +0.203 C 
ATOM      3  O   UNL     1      -1.055   3.532  -0.072  0.00  0.00    -0.277 OA
ATOM      4  H   UNL     1       1.993   3.979   0.085  0.00  0.00    +0.155 HD
ENDROOT
BRANCH   1  11
ATOM      5  C   UNL     1       3.360   2.151   1.228  0.00  0.00    +0.045 C 
ATOM      6  C   UNL     1       2.232   1.395   0.574  0.00  0.00    -0.029 A 
ATOM      7  C   UNL     1       2.245   0.014   0.554  0.00  0.00    +0.007 A 
ATOM      8  C   UNL     1       1.212  -0.680  -0.046  0.00  0.00    +0.029 A 
ATOM      9  C   UNL     1       0.160   0.005  -0.627  0.00  0.00    +0.107 A 
ATOM     10  C   UNL     1       0.141   1.386  -0.611  0.00  0.00    +0.052 A 
ATOM     11  C   UNL     1       1.178   2.086  -0.009  0.00  0.00    +0.038 A 
BRANCH   9  12
ATOM     12  S   UNL     1      -1.155  -0.884  -1.391  0.00  0.00    +0.060 S 
ATOM     13  O   UNL     1      -1.174  -2.174  -0.794  0.00  0.00    -0.153 OA
ATOM     14  O   UNL     1      -2.286  -0.024  -1.381  0.00  0.00    -0.153 OA
BRANCH  12  15
ATOM     15  N   UNL     1      -0.741  -1.104  -2.979  0.00  0.00    -0.183 NA
ATOM     16  C   UNL     1       0.009  -2.296  -3.382  0.00  0.00    +0.131 C 
ATOM     17  C   UNL     1      -1.125  -0.106  -3.981  0.00  0.00    +0.131 C 
ENDBRANCH  12  15
ENDBRANCH   9  12
ENDBRANCH   1  11
BRANCH   2  18
ATOM     18  C   UNL     1      -0.019   5.650  -0.184  0.00  0.00    +0.016 C 
ATOM     19  C   UNL     1       0.654   6.253   1.050  0.00  0.00    -0.004 C 
BRANCH  18  26
ATOM     20  C   UNL     1      -2.130   5.858   0.984  0.00  0.00    -0.078 C 
ATOM     21  C   UNL     1      -3.603   6.232   0.813  0.00  0.00    -0.018 C 
ATOM     22  C   UNL     1      -3.709   7.715   0.447  0.00  0.00    -0.001 C 
ATOM     23  C   UNL     1      -2.909   7.976  -0.832  0.00  0.00    -0.031 C 
ATOM     24  C   UNL     1      -1.455   7.551  -0.613  0.00  0.00    -0.075 C 
ATOM     25  C   UNL     1      -2.960   9.467  -1.171  0.00  0.00    +0.005 C 
ATOM     26  N   UNL     1      -1.420   6.110  -0.288  0.00  0.00    +0.387 N 
ATOM     27  H   UNL     1      -1.887   5.588  -1.039  0.00  0.00    -0.081 HD
ENDBRANCH  18  26
ENDBRANCH   2  18
TORSDOF 5
