REMARK  Name = ZINC13095527
REMARK  15 active torsions:
REMARK  status: ('A' for Active; 'I' for Inactive)
REMARK    1  A    between atoms: C_1  and  C_2
REMARK    2  A    between atoms: C_2  and  C_4
REMARK    3  A    between atoms: C_2  and  O_15
REMARK    4  A    between atoms: N_6  and  C_7
REMARK    5  A    between atoms: C_7  and  C_8
REMARK    6  A    between atoms: C_8  and  C_9
REMARK    7  A    between atoms: O_15  and  C_16
REMARK    8  A    between atoms: C_16  and  C_18
REMARK    9  A    between atoms: C_23  and  S_24
REMARK   10  A    between atoms: S_24  and  C_25
REMARK   11  A    between atoms: C_25  and  C_27
REMARK   12  A    between atoms: C_25  and  C_28
REMARK   13  A    between atoms: N_30  and  C_31
REMARK   14  A    between atoms: C_31  and  C_32
REMARK   15  A    between atoms: C_32  and  C_33
REMARK                            x       y       z     vdW  Elec       q    Type
REMARK                         _______ _______ _______ _____ _____    ______ ____
ROOT
ATOM      1  C   UNL     1      -2.501  -5.654  -1.702  0.00  0.00    +0.072 A 
ATOM      2  C   UNL     1      -1.934  -6.925  -1.839  0.00  0.00    +0.016 A 
ATOM      3  C   UNL     1      -0.705  -7.192  -1.278  0.00  0.00    +0.001 A 
ATOM      4  C   UNL     1      -0.022  -6.207  -0.582  0.00  0.00    +0.001 A 
ATOM      5  C   UNL     1      -0.564  -4.947  -0.442  0.00  0.00    +0.015 A 
ATOM      6  C   UNL     1      -1.804  -4.656  -1.001  0.00  0.00    +0.023 A 
ENDROOT
BRANCH   1   7
ATOM      7  C   UNL     1      -3.817  -5.362  -2.294  0.00  0.00    +0.341 C 
ATOM      8  O   UNL     1      -4.304  -4.255  -2.177  0.00  0.00    -0.245 OA
BRANCH   7   9
ATOM      9  O   UNL     1      -4.481  -6.323  -2.966  0.00  0.00    -0.449 OA
BRANCH   9  11
ATOM     10  C   UNL     1      -5.586  -5.427  -4.943  0.00  0.00    +0.062 C 
ATOM     11  C   UNL     1      -5.774  -5.965  -3.523  0.00  0.00    +0.259 C 
BRANCH  11  12
ATOM     12  C   UNL     1      -6.660  -7.183  -3.561  0.00  0.00    +0.254 C 
ATOM     13  O   UNL     1      -6.243  -8.249  -3.158  0.00  0.00    -0.272 OA
ATOM     14  N   UNL     1      -7.915  -7.089  -4.042  0.00  0.00    -0.312 N 
ATOM     15  H   UNL     1      -8.248  -6.237  -4.364  0.00  0.00    +0.149 HD
BRANCH  14  16
ATOM     16  C   UNL     1      -8.777  -8.273  -4.078  0.00  0.00    +0.108 C 
BRANCH  16  17
ATOM     17  C   UNL     1     -10.138  -7.895  -4.665  0.00  0.00    +0.049 C 
BRANCH  17  18
ATOM     18  C   UNL     1     -11.024  -9.114  -4.703  0.00  0.00    -0.072 C 
ATOM     19  C   UNL     1     -11.837  -9.304  -3.713  0.00  0.00    -0.028 C 
ATOM     20  C   UNL     1     -12.771 -10.474  -3.605  0.00  0.00    +0.027 C 
ATOM     21  C   UNL     1     -12.936 -11.144  -4.971  0.00  0.00    +0.004 C 
ATOM     22  C   UNL     1     -11.543 -11.386  -5.564  0.00  0.00    +0.005 C 
ATOM     23  C   UNL     1     -10.915 -10.027  -5.888  0.00  0.00    +0.030 C 
ENDBRANCH  17  18
ENDBRANCH  16  17
ENDBRANCH  14  16
ENDBRANCH  11  12
ENDBRANCH   9  11
ENDBRANCH   7   9
ENDBRANCH   1   7
BRANCH   6  24
ATOM     24  S   UNL     1      -2.500  -3.047  -0.824  0.00  0.00    -0.112 S 
BRANCH  24  25
ATOM     25  C   UNL     1      -1.274  -2.293   0.274  0.00  0.00    +0.134 C 
ATOM     26  C   UNL     1      -1.383  -2.919   1.665  0.00  0.00    +0.029 C 
BRANCH  25  27
ATOM     27  C   UNL     1      -1.529  -0.811   0.369  0.00  0.00    +0.226 C 
ATOM     28  O   UNL     1      -2.641  -0.372   0.162  0.00  0.00    -0.275 OA
ATOM     29  N   UNL     1      -0.522   0.028   0.683  0.00  0.00    -0.314 N 
ATOM     30  H   UNL     1       0.367  -0.323   0.848  0.00  0.00    +0.149 HD
BRANCH  29  31
ATOM     31  C   UNL     1      -0.770   1.469   0.775  0.00  0.00    +0.108 C 
BRANCH  31  32
ATOM     32  C   UNL     1       0.530   2.187   1.143  0.00  0.00    +0.049 C 
BRANCH  32  33
ATOM     33  C   UNL     1       0.275   3.669   1.238  0.00  0.00    -0.072 C 
ATOM     34  C   UNL     1       0.018   4.168   2.405  0.00  0.00    -0.028 C 
ATOM     35  C   UNL     1      -0.266   5.620   2.655  0.00  0.00    +0.027 C 
ATOM     36  C   UNL     1       0.201   6.461   1.465  0.00  0.00    +0.004 C 
ATOM     37  C   UNL     1      -0.348   5.830   0.179  0.00  0.00    +0.005 C 
ATOM     38  C   UNL     1       0.341   4.477  -0.025  0.00  0.00    +0.030 C 
ENDBRANCH  32  33
ENDBRANCH  31  32
ENDBRANCH  29  31
ENDBRANCH  25  27
ENDBRANCH  24  25
ENDBRANCH   6  24
TORSDOF 13
