REMARK  Name = ZINC01381715
REMARK  12 active torsions:
REMARK  status: ('A' for Active; 'I' for Inactive)
REMARK    1  A    between atoms: C_1  and  C_2
REMARK    2  A    between atoms: C_6  and  C_15
REMARK    3  A    between atoms: C_13  and  C_14
REMARK    4  A    between atoms: C_15  and  C_17
REMARK    5  A    between atoms: C_15  and  N_30
REMARK    6  A    between atoms: N_21  and  C_22
REMARK    7  A    between atoms: C_22  and  C_23
REMARK    8  A    between atoms: C_23  and  C_24
REMARK    9  A    between atoms: N_30  and  C_31
REMARK   10  A    between atoms: N_30  and  C_38
REMARK   11  A    between atoms: C_31  and  C_32
REMARK   12  A    between atoms: C_38  and  C_39
REMARK                            x       y       z     vdW  Elec       q    Type
REMARK                         _______ _______ _______ _____ _____    ______ ____
ROOT
ATOM      1  C   UNL     1      -1.168  -6.270  -3.423  0.00  0.00    +0.163 C 
ENDROOT
BRANCH   1   7
ATOM      2  C   UNL     1      -3.756  -3.302   2.911  0.00  0.00    +0.044 C 
ATOM      3  C   UNL     1      -3.403  -4.502   2.070  0.00  0.00    -0.047 A 
ATOM      4  C   UNL     1      -2.899  -4.322   0.812  0.00  0.00    +0.013 A 
ATOM      5  C   UNL     1      -2.571  -5.435   0.032  0.00  0.00    -0.001 A 
ATOM      6  C   UNL     1      -2.028  -5.280  -1.319  0.00  0.00    +0.021 A 
ATOM      7  C   UNL     1      -1.728  -6.395  -2.029  0.00  0.00    +0.042 A 
ATOM      8  C   UNL     1      -1.938  -7.673  -1.468  0.00  0.00    +0.254 A 
ATOM      9  O   UNL     1      -1.661  -8.662  -2.123  0.00  0.00    -0.268 OA
ATOM     10  N   UNL     1      -2.435  -7.826  -0.228  0.00  0.00    -0.322 N 
ATOM     11  H   UNL     1      -2.566  -8.719   0.128  0.00  0.00    +0.169 HD
ATOM     12  C   UNL     1      -2.761  -6.732   0.545  0.00  0.00    +0.049 A 
ATOM     13  C   UNL     1      -3.276  -6.890   1.828  0.00  0.00    +0.030 A 
ATOM     14  C   UNL     1      -3.586  -5.779   2.582  0.00  0.00    -0.046 A 
ATOM     15  C   UNL     1      -4.138  -5.952   3.973  0.00  0.00    +0.044 C 
ENDBRANCH   1   7
BRANCH   1  16
ATOM     16  C   UNL     1       0.227  -6.838  -3.457  0.00  0.00    +0.173 A 
ATOM     17  N   UNL     1       0.584  -8.058  -3.138  0.00  0.00    -0.111 NA
ATOM     18  N   UNL     1       1.859  -8.155  -3.298  0.00  0.00    -0.023 NA
ATOM     19  N   UNL     1       2.325  -7.028  -3.710  0.00  0.00    -0.044 NA
ATOM     20  N   UNL     1       1.349  -6.191  -3.825  0.00  0.00    -0.227 N 
BRANCH  20  21
ATOM     21  C   UNL     1       1.444  -4.799  -4.271  0.00  0.00    +0.152 C 
BRANCH  21  22
ATOM     22  C   UNL     1       1.602  -3.884  -3.054  0.00  0.00    +0.058 C 
BRANCH  22  23
ATOM     23  C   UNL     1       1.700  -2.452  -3.513  0.00  0.00    -0.046 A 
ATOM     24  C   UNL     1       2.935  -1.902  -3.803  0.00  0.00    +0.004 A 
ATOM     25  C   UNL     1       3.025  -0.588  -4.223  0.00  0.00    +0.000 A 
ATOM     26  C   UNL     1       1.881   0.176  -4.354  0.00  0.00    +0.000 A 
ATOM     27  C   UNL     1       0.646  -0.374  -4.064  0.00  0.00    +0.000 A 
ATOM     28  C   UNL     1       0.555  -1.689  -3.648  0.00  0.00    +0.004 A 
ENDBRANCH  22  23
ENDBRANCH  21  22
ENDBRANCH  20  21
ENDBRANCH   1  16
BRANCH   1  29
ATOM     29  N   UNL     1      -2.021  -7.011  -4.361  0.00  0.00    -0.280 NA
BRANCH  29  30
ATOM     30  C   UNL     1      -3.236  -6.250  -4.683  0.00  0.00    +0.121 C 
BRANCH  30  31
ATOM     31  C   UNL     1      -4.209  -6.350  -3.536  0.00  0.00    -0.033 A 
ATOM     32  C   UNL     1      -4.765  -7.572  -3.206  0.00  0.00    +0.005 A 
ATOM     33  C   UNL     1      -5.658  -7.663  -2.155  0.00  0.00    +0.000 A 
ATOM     34  C   UNL     1      -5.994  -6.533  -1.433  0.00  0.00    +0.000 A 
ATOM     35  C   UNL     1      -5.438  -5.311  -1.763  0.00  0.00    +0.000 A 
ATOM     36  C   UNL     1      -4.542  -5.221  -2.812  0.00  0.00    +0.005 A 
ENDBRANCH  30  31
ENDBRANCH  29  30
BRANCH  29  37
ATOM     37  C   UNL     1      -1.282  -7.362  -5.581  0.00  0.00    +0.122 C 
BRANCH  37  38
ATOM     38  C   UNL     1      -0.713  -8.750  -5.442  0.00  0.00    -0.015 A 
ATOM     39  C   UNL     1       0.658  -8.954  -5.477  0.00  0.00    +0.008 A 
ATOM     40  C   UNL     1       1.136 -10.249  -5.345  0.00  0.00    +0.020 A 
ATOM     41  C   UNL     1       0.236 -11.286  -5.186  0.00  0.00    +0.111 A 
ATOM     42  N   UNL     1      -1.061 -11.055  -5.158  0.00  0.00    -0.263 NA
ATOM     43  C   UNL     1      -1.551  -9.836  -5.274  0.00  0.00    +0.115 A 
ENDBRANCH  37  38
ENDBRANCH  29  37
ENDBRANCH   1  29
TORSDOF 10
