REMARK  Name = ZINC49464211
REMARK  7 active torsions:
REMARK  status: ('A' for Active; 'I' for Inactive)
REMARK    1  A    between atoms: C_1  and  C_2
REMARK    2  A    between atoms: C_4  and  S_11
REMARK    3  A    between atoms: C_6  and  C_10
REMARK    4  A    between atoms: C_7  and  O_8
REMARK    5  A    between atoms: O_8  and  C_9
REMARK    6  A    between atoms: S_11  and  N_14
REMARK    7  A    between atoms: N_14  and  C_15
REMARK                            x       y       z     vdW  Elec       q    Type
REMARK                         _______ _______ _______ _____ _____    ______ ____
ROOT
ATOM      1  C   UNL     1       2.380  -4.047  -2.221  0.00  0.00    +0.049 A 
ATOM      2  C   UNL     1       2.165  -4.052  -0.847  0.00  0.00    +0.028 A 
ATOM      3  C   UNL     1       2.895  -4.896  -0.033  0.00  0.00    +0.048 A 
ATOM      4  C   UNL     1       3.842  -5.742  -0.584  0.00  0.00    +0.133 A 
ATOM      5  C   UNL     1       4.064  -5.750  -1.968  0.00  0.00    +0.080 A 
ATOM      6  C   UNL     1       3.320  -4.892  -2.784  0.00  0.00    +0.041 A 
ATOM      7  C   UNL     1       5.056  -6.656  -2.563  0.00  0.00    +0.250 C 
ATOM      8  O   UNL     1       5.964  -6.194  -3.227  0.00  0.00    -0.270 OA
ATOM      9  N   UNL     1       4.979  -7.990  -2.385  0.00  0.00    -0.294 N 
ATOM     10  C   UNL     1       6.051  -8.844  -2.898  0.00  0.00    +0.108 C 
ATOM     11  C   UNL     1       5.456 -10.033  -3.650  0.00  0.00    +0.019 C 
ATOM     12  C   UNL     1       4.446 -10.747  -2.750  0.00  0.00    +0.003 C 
ATOM     13  C   UNL     1       3.302  -9.797  -2.407  0.00  0.00    +0.023 C 
ATOM     14  C   UNL     1       3.825  -8.558  -1.692  0.00  0.00    +0.080 C 
ATOM     15  C   UNL     1       4.220  -8.925  -0.258  0.00  0.00    +0.063 C 
ATOM     16  C   UNL     1       3.915  -7.753   0.674  0.00  0.00    +0.231 C 
ATOM     17  O   UNL     1       4.572  -6.572   0.210  0.00  0.00    -0.491 OA
ENDROOT
BRANCH   1  18
ATOM     18  N   UNL     1       1.639  -3.186  -3.039  0.00  0.00    -0.216 N 
ATOM     19  H   UNL     1       2.055  -2.395  -3.414  0.00  0.00    +0.174 HD
BRANCH  18  20
ATOM     20  S   UNL     1       0.050  -3.520  -3.366  0.00  0.00    +0.072 S 
ATOM     21  O   UNL     1      -0.398  -2.518  -4.268  0.00  0.00    -0.150 OA
ATOM     22  O   UNL     1      -0.582  -3.756  -2.115  0.00  0.00    -0.150 OA
BRANCH  20  26
ATOM     23  C   UNL     1      -0.462  -8.719  -3.512  0.00  0.00    +0.047 C 
ATOM     24  C   UNL     1      -0.234  -7.428  -4.255  0.00  0.00    -0.007 A 
ATOM     25  C   UNL     1      -0.201  -6.230  -3.566  0.00  0.00    +0.035 A 
ATOM     26  C   UNL     1       0.009  -5.045  -4.247  0.00  0.00    +0.109 A 
ATOM     27  C   UNL     1       0.185  -5.055  -5.618  0.00  0.00    +0.035 A 
ATOM     28  C   UNL     1       0.153  -6.250  -6.311  0.00  0.00    -0.007 A 
ATOM     29  C   UNL     1      -0.051  -7.441  -5.630  0.00  0.00    +0.126 A 
ATOM     30  C   UNL     1       0.346  -6.260  -7.806  0.00  0.00    +0.047 C 
BRANCH  29  31
ATOM     31  O   UNL     1      -0.077  -8.618  -6.309  0.00  0.00    -0.495 OA
ATOM     32  C   UNL     1      -1.346  -9.055  -6.801  0.00  0.00    +0.277 C 
ENDBRANCH  29  31
ENDBRANCH  20  26
ENDBRANCH  18  20
ENDBRANCH   1  18
TORSDOF 4
