REMARK  Name = ZINC02245991
REMARK  8 active torsions:
REMARK  status: ('A' for Active; 'I' for Inactive)
REMARK    1  A    between atoms: C_1  and  C_2
REMARK    2  A    between atoms: C_6  and  N_8
REMARK    3  A    between atoms: C_20  and  S_21
REMARK    4  A    between atoms: S_21  and  C_22
REMARK    5  A    between atoms: C_22  and  C_23
REMARK    6  A    between atoms: C_32  and  C_35
REMARK    7  A    between atoms: C_35  and  C_36
REMARK    8  A    between atoms: C_35  and  C_37
REMARK                            x       y       z     vdW  Elec       q    Type
REMARK                         _______ _______ _______ _____ _____    ______ ____
ROOT
ATOM      1  N   UNL     1       1.138   1.903   0.001  0.00  0.00    -0.245 N 
ATOM      2  C   UNL     1       0.035   1.310  -0.484  0.00  0.00    +0.268 A 
ATOM      3  O   UNL     1       0.096   0.179  -0.931  0.00  0.00    -0.266 OA
ATOM      4  C   UNL     1      -1.254   2.039  -0.479  0.00  0.00    +0.075 A 
ATOM      5  C   UNL     1      -2.557   1.572  -0.949  0.00  0.00    -0.018 A 
ATOM      6  C   UNL     1      -3.581   2.443  -0.821  0.00  0.00    +0.021 A 
ATOM      7  S   UNL     1      -2.861   3.877  -0.080  0.00  0.00    -0.072 S 
ATOM      8  C   UNL     1      -1.232   3.324   0.055  0.00  0.00    +0.102 A 
ATOM      9  N   UNL     1      -0.076   3.893   0.541  0.00  0.00    -0.249 N 
ATOM     10  C   UNL     1       1.101   3.190   0.516  0.00  0.00    +0.245 A 
ATOM     11  N   UNL     1       2.038   3.950   1.032  0.00  0.00    -0.109 NA
ATOM     12  N   UNL     1       1.455   5.169   1.399  0.00  0.00    -0.120 NA
ATOM     13  C   UNL     1       0.181   5.118   1.097  0.00  0.00    +0.198 A 
ATOM     14  C   UNL     1      -5.000   2.204  -1.233  0.00  0.00    +0.203 C 
ATOM     15  O   UNL     1      -5.024   1.036  -2.069  0.00  0.00    -0.371 OA
ATOM     16  C   UNL     1      -4.309  -0.075  -1.522  0.00  0.00    +0.126 C 
ATOM     17  C   UNL     1      -2.801   0.197  -1.560  0.00  0.00    +0.068 C 
ENDROOT
BRANCH   1  23
ATOM     18  C   UNL     1       4.304  -1.130   2.226  0.00  0.00    +0.044 C 
ATOM     19  C   UNL     1       3.912  -0.271   1.052  0.00  0.00    -0.048 A 
ATOM     20  C   UNL     1       4.752  -0.170  -0.042  0.00  0.00    +0.003 A 
ATOM     21  C   UNL     1       4.396   0.618  -1.121  0.00  0.00    +0.002 A 
ATOM     22  C   UNL     1       3.196   1.302  -1.112  0.00  0.00    +0.026 A 
ATOM     23  C   UNL     1       2.352   1.207  -0.013  0.00  0.00    +0.053 A 
ATOM     24  C   UNL     1       2.713   0.415   1.069  0.00  0.00    +0.029 A 
ENDBRANCH   1  23
BRANCH  16  25
ATOM     25  C   UNL     1      -4.618  -1.330  -2.341  0.00  0.00    +0.012 C 
ATOM     26  C   UNL     1      -6.121  -1.615  -2.290  0.00  0.00    +0.010 C 
ATOM     27  C   UNL     1      -4.190  -1.110  -3.793  0.00  0.00    +0.010 C 
ENDBRANCH  16  25
BRANCH  13  28
ATOM     28  S   UNL     1      -0.996   6.403   1.358  0.00  0.00    -0.081 S 
BRANCH  28  29
ATOM     29  C   UNL     1      -0.028   7.738   2.114  0.00  0.00    +0.112 C 
BRANCH  29  30
ATOM     30  C   UNL     1      -0.928   8.915   2.393  0.00  0.00    -0.037 A 
ATOM     31  C   UNL     1      -1.094   9.898   1.436  0.00  0.00    +0.007 A 
ATOM     32  C   UNL     1      -1.923  10.976   1.689  0.00  0.00    +0.038 A 
ATOM     33  C   UNL     1      -2.577  11.075   2.905  0.00  0.00    +0.123 A 
ATOM     34  C   UNL     1      -2.405  10.091   3.864  0.00  0.00    +0.038 A 
ATOM     35  C   UNL     1      -1.581   9.013   3.607  0.00  0.00    +0.007 A 
ATOM     36  F   UNL     1      -3.383  12.130   3.154  0.00  0.00    -0.205 F 
ENDBRANCH  29  30
ENDBRANCH  28  29
ENDBRANCH  13  28
TORSDOF 5
