REMARK  Name = ZINC33863210
REMARK  13 active torsions:
REMARK  status: ('A' for Active; 'I' for Inactive)
REMARK    1  A    between atoms: C_1  and  C_2
REMARK    2  A    between atoms: C_2  and  S_3
REMARK    3  A    between atoms: S_3  and  C_4
REMARK    4  A    between atoms: C_4  and  C_5
REMARK    5  A    between atoms: C_5  and  O_6
REMARK    6  A    between atoms: O_6  and  C_7
REMARK    7  A    between atoms: C_7  and  C_9
REMARK    8  A    between atoms: C_10  and  C_36
REMARK    9  A    between atoms: C_14  and  C_16
REMARK   10  A    between atoms: C_26  and  C_32
REMARK   11  A    between atoms: C_28  and  C_31
REMARK   12  A    between atoms: C_32  and  O_34
REMARK   13  A    between atoms: O_34  and  C_35
REMARK                            x       y       z     vdW  Elec       q    Type
REMARK                         _______ _______ _______ _____ _____    ______ ____
ROOT
ATOM      1  C   UNL     1       2.200  -6.591  -3.317  0.00  0.00    +0.065 C 
ATOM      2  C   UNL     1       2.478  -7.271  -4.443  0.00  0.00    +0.016 C 
ATOM      3  N   UNL     1       2.274  -8.622  -4.503  0.00  0.00    -0.321 N 
ATOM      4  C   UNL     1       2.176  -9.364  -3.357  0.00  0.00    +0.016 C 
ATOM      5  C   UNL     1       1.883  -8.772  -2.180  0.00  0.00    +0.025 C 
ATOM      6  C   UNL     1       1.660  -7.284  -2.101  0.00  0.00    +0.092 C 
ATOM      7  C   UNL     1       1.776  -9.524  -0.997  0.00  0.00    +0.176 C 
ATOM      8  O   UNL     1       1.526  -8.957   0.049  0.00  0.00    -0.291 OA
ATOM      9  C   UNL     1       1.965 -11.016  -1.002  0.00  0.00    +0.171 C 
ATOM     10  C   UNL     1       1.569 -11.564  -2.377  0.00  0.00    +0.013 C 
ATOM     11  C   UNL     1       2.408 -10.853  -3.442  0.00  0.00    +0.055 C 
ATOM     12  C   UNL     1       1.837 -13.070  -2.427  0.00  0.00    +0.009 C 
ATOM     13  C   UNL     1       3.016  -6.541  -5.646  0.00  0.00    +0.061 C 
ATOM     14  H   UNL     1       2.198  -9.058  -5.366  0.00  0.00    +0.152 HD
ENDROOT
BRANCH   6  15
ATOM     15  C   UNL     1       0.181  -7.014  -1.994  0.00  0.00    -0.034 A 
ATOM     16  C   UNL     1      -0.669  -7.411  -3.009  0.00  0.00    +0.006 A 
ATOM     17  C   UNL     1      -2.025  -7.163  -2.912  0.00  0.00    +0.022 A 
ATOM     18  C   UNL     1      -2.533  -6.519  -1.798  0.00  0.00    +0.059 A 
ATOM     19  C   UNL     1      -1.682  -6.123  -0.781  0.00  0.00    +0.060 A 
ATOM     20  C   UNL     1      -0.325  -6.376  -0.877  0.00  0.00    +0.026 A 
ATOM     21 CL   UNL     1      -2.317  -5.314   0.617  0.00  0.00    -0.082 Cl
ATOM     22 CL   UNL     1      -4.236  -6.208  -1.676  0.00  0.00    -0.082 Cl
ENDBRANCH   6  15
BRANCH   1  23
ATOM     23  C   UNL     1       2.428  -5.195  -3.276  0.00  0.00    +0.338 C 
ATOM     24  O   UNL     1       2.983  -4.642  -4.207  0.00  0.00    -0.245 OA
BRANCH  23  25
ATOM     25  O   UNL     1       2.029  -4.478  -2.205  0.00  0.00    -0.460 OA
BRANCH  25  26
ATOM     26  C   UNL     1       2.291  -3.073  -2.232  0.00  0.00    +0.243 C 
BRANCH  26  27
ATOM     27  C   UNL     1       1.772  -2.433  -0.943  0.00  0.00    +0.110 C 
BRANCH  27  28
ATOM     28  S   UNL     1       2.104  -0.650  -0.976  0.00  0.00    -0.158 S 
BRANCH  28  30
ATOM     29  C   UNL     1       1.655   1.461   0.703  0.00  0.00    +0.015 C 
ATOM     30  C   UNL     1       1.437  -0.050   0.600  0.00  0.00    +0.066 C 
ENDBRANCH  28  30
ENDBRANCH  27  28
ENDBRANCH  26  27
ENDBRANCH  25  26
ENDBRANCH  23  25
ENDBRANCH   1  23
BRANCH   9  31
ATOM     31  C   UNL     1       1.095 -11.638   0.060  0.00  0.00    +0.318 C 
ATOM     32  O   UNL     1       0.250 -12.445  -0.247  0.00  0.00    -0.250 OA
BRANCH  31  33
ATOM     33  O   UNL     1       1.260 -11.296   1.348  0.00  0.00    -0.467 OA
ATOM     34  C   UNL     1       0.401 -11.925   2.301  0.00  0.00    +0.280 C 
ENDBRANCH  31  33
ENDBRANCH   9  31
TORSDOF 9
