REMARK  Name = ZINC39944668
REMARK  8 active torsions:
REMARK  status: ('A' for Active; 'I' for Inactive)
REMARK    1  A    between atoms: C_7  and  C_10
REMARK    2  A    between atoms: C_10  and  C_12
REMARK    3  A    between atoms: C_12  and  O_13
REMARK    4  A    between atoms: O_13  and  C_14
REMARK    5  A    between atoms: C_14  and  C_16
REMARK    6  A    between atoms: C_16  and  S_17
REMARK    7  A    between atoms: S_17  and  C_18
REMARK    8  A    between atoms: C_18  and  C_19
REMARK                            x       y       z     vdW  Elec       q    Type
REMARK                         _______ _______ _______ _____ _____    ______ ____
ROOT
ATOM      1  O   UNL     1       0.093  -5.467  -0.028  0.00  0.00    -0.456 OA
ENDROOT
BRANCH   1   2
ATOM      2  C   UNL     1       0.396  -6.774  -0.037  0.00  0.00    +0.317 C 
ATOM      3  O   UNL     1       1.552  -7.126  -0.050  0.00  0.00    -0.250 OA
BRANCH   2   4
ATOM      4  C   UNL     1      -0.705  -7.803  -0.032  0.00  0.00    +0.189 C 
BRANCH   4   5
ATOM      5  S   UNL     1       0.021  -9.466  -0.048  0.00  0.00    -0.145 S 
BRANCH   5   6
ATOM      6  C   UNL     1      -1.417 -10.572  -0.040  0.00  0.00    +0.104 C 
BRANCH   6   7
ATOM      7  C   UNL     1      -0.949 -12.004  -0.052  0.00  0.00    -0.036 A 
ATOM      8  C   UNL     1      -0.739 -12.653  -1.255  0.00  0.00    +0.006 A 
ATOM      9  C   UNL     1      -0.310 -13.967  -1.267  0.00  0.00    +0.022 A 
ATOM     10  C   UNL     1      -0.089 -14.633  -0.075  0.00  0.00    +0.059 A 
ATOM     11  C   UNL     1      -0.298 -13.983   1.130  0.00  0.00    +0.060 A 
ATOM     12  C   UNL     1      -0.723 -12.667   1.140  0.00  0.00    +0.026 A 
ATOM     13 CL   UNL     1      -0.022 -14.818   2.627  0.00  0.00    -0.082 Cl
ATOM     14 CL   UNL     1       0.449 -16.283  -0.089  0.00  0.00    -0.082 Cl
ENDBRANCH   6   7
ENDBRANCH   5   6
ENDBRANCH   4   5
ENDBRANCH   2   4
ENDBRANCH   1   2
BRANCH   1  15
ATOM     15  C   UNL     1       1.187  -4.547  -0.033  0.00  0.00    +0.311 C 
BRANCH  15  16
ATOM     16  C   UNL     1       0.657  -3.136  -0.021  0.00  0.00    +0.199 C 
ATOM     17  O   UNL     1      -0.541  -2.938  -0.009  0.00  0.00    -0.289 OA
BRANCH  16  24
ATOM     18  C   UNL     1      -0.016   1.348   0.009  0.00  0.00    +0.001 A 
ATOM     19  C   UNL     1       1.158   2.117   0.002  0.00  0.00    +0.002 A 
ATOM     20  C   UNL     1       2.384   1.551  -0.012  0.00  0.00    +0.026 A 
ATOM     21  C   UNL     1       2.494   0.083  -0.021  0.00  0.00    +0.043 A 
ATOM     22  N   UNL     1       3.525  -0.712  -0.035  0.00  0.00    -0.380 N 
ATOM     23  C   UNL     1       3.065  -2.104  -0.039  0.00  0.00    +0.152 C 
ATOM     24  C   UNL     1       1.553  -2.046  -0.024  0.00  0.00    +0.026 C 
ATOM     25  C   UNL     1       1.234  -0.700  -0.013  0.00  0.00    +0.006 A 
ATOM     26  C   UNL     1       0.002  -0.004   0.002  0.00  0.00    +0.010 A 
ATOM     27  H   UNL     1       4.453  -0.428  -0.043  0.00  0.00    +0.160 HD
ENDBRANCH  16  24
ENDBRANCH  15  16
ENDBRANCH   1  15
TORSDOF 8
