REMARK  Name = ZINC02727165
REMARK  10 active torsions:
REMARK  status: ('A' for Active; 'I' for Inactive)
REMARK    1  A    between atoms: C_1  and  C_2
REMARK    2  A    between atoms: C_2  and  O_3
REMARK    3  A    between atoms: O_3  and  C_4
REMARK    4  A    between atoms: C_4  and  C_5
REMARK    5  A    between atoms: C_5  and  O_6
REMARK    6  A    between atoms: O_6  and  C_7
REMARK    7  A    between atoms: C_7  and  C_9
REMARK    8  A    between atoms: C_10  and  C_36
REMARK    9  A    between atoms: C_14  and  C_16
REMARK   10  A    between atoms: C_28  and  C_31
REMARK                            x       y       z     vdW  Elec       q    Type
REMARK                         _______ _______ _______ _____ _____    ______ ____
ROOT
ATOM      1  C   UNL     1      -1.909  -4.048  -0.662  0.00  0.00    +0.065 C 
ATOM      2  C   UNL     1      -1.458  -5.305  -0.812  0.00  0.00    +0.016 C 
ATOM      3  N   UNL     1      -0.814  -5.937   0.215  0.00  0.00    -0.321 N 
ATOM      4  C   UNL     1      -0.957  -5.497   1.504  0.00  0.00    +0.016 C 
ATOM      5  C   UNL     1      -1.384  -4.240   1.754  0.00  0.00    +0.024 C 
ATOM      6  C   UNL     1      -1.713  -3.299   0.623  0.00  0.00    +0.092 C 
ATOM      7  C   UNL     1      -1.535  -3.776   3.073  0.00  0.00    +0.162 C 
ATOM      8  O   UNL     1      -1.935  -2.644   3.264  0.00  0.00    -0.292 OA
ATOM      9  C   UNL     1      -1.208  -4.653   4.250  0.00  0.00    +0.088 C 
ATOM     10  C   UNL     1      -0.126  -5.656   3.839  0.00  0.00    +0.039 C 
ATOM     11  C   UNL     1      -0.630  -6.446   2.629  0.00  0.00    +0.060 C 
ATOM     12  C   UNL     1      -1.665  -6.024  -2.120  0.00  0.00    +0.061 C 
ATOM     13  H   UNL     1      -0.173  -6.807   0.010  0.00  0.00    +0.152 HD
ENDROOT
BRANCH   6  14
ATOM     14  C   UNL     1      -0.584  -2.314   0.455  0.00  0.00    -0.032 A 
ATOM     15  C   UNL     1       0.681  -2.765   0.129  0.00  0.00    +0.008 A 
ATOM     16  C   UNL     1       1.720  -1.867  -0.026  0.00  0.00    +0.050 A 
ATOM     17  C   UNL     1       1.495  -0.510   0.145  0.00  0.00    +0.166 A 
ATOM     18  C   UNL     1       0.220  -0.056   0.473  0.00  0.00    +0.167 A 
ATOM     19  C   UNL     1      -0.816  -0.963   0.627  0.00  0.00    +0.054 A 
ATOM     20  O   UNL     1       0.257   1.304   0.585  0.00  0.00    -0.453 OA
ATOM     21  C   UNL     1       1.650   1.641   0.724  0.00  0.00    +0.466 C 
ATOM     22  O   UNL     1       2.331   0.565   0.051  0.00  0.00    -0.453 OA
ENDBRANCH   6  14
BRANCH  10  23
ATOM     23  C   UNL     1       0.151  -6.600   4.981  0.00  0.00    -0.006 A 
ATOM     24  C   UNL     1       1.315  -6.830   5.635  0.00  0.00    +0.011 A 
ATOM     25  C   UNL     1       1.334  -7.752   6.665  0.00  0.00    +0.008 A 
ATOM     26  C   UNL     1       0.188  -8.398   6.991  0.00  0.00    +0.045 A 
ATOM     27  S   UNL     1      -0.973  -7.699   5.828  0.00  0.00    -0.101 S 
ENDBRANCH  10  23
BRANCH   1  28
ATOM     28  C   UNL     1      -2.580  -3.418  -1.736  0.00  0.00    +0.338 C 
ATOM     29  O   UNL     1      -3.787  -3.271  -1.697  0.00  0.00    -0.245 OA
BRANCH  28  30
ATOM     30  O   UNL     1      -1.881  -2.982  -2.805  0.00  0.00    -0.459 OA
BRANCH  30  31
ATOM     31  C   UNL     1      -2.623  -2.355  -3.853  0.00  0.00    +0.260 C 
BRANCH  31  32
ATOM     32  C   UNL     1      -1.668  -1.930  -4.971  0.00  0.00    +0.201 C 
BRANCH  32  33
ATOM     33  O   UNL     1      -1.082  -3.090  -5.564  0.00  0.00    -0.377 OA
BRANCH  33  35
ATOM     34  C   UNL     1       0.395  -4.111  -7.181  0.00  0.00    +0.034 C 
ATOM     35  C   UNL     1      -0.168  -2.803  -6.624  0.00  0.00    +0.156 C 
ENDBRANCH  33  35
ENDBRANCH  32  33
ENDBRANCH  31  32
ENDBRANCH  30  31
ENDBRANCH  28  30
ENDBRANCH   1  28
TORSDOF 8
