REMARK  Name = ZINC12486466
REMARK  6 active torsions:
REMARK  status: ('A' for Active; 'I' for Inactive)
REMARK    1  A    between atoms: C_3  and  C_18
REMARK    2  A    between atoms: C_6  and  C_7
REMARK    3  A    between atoms: N_8  and  N_9
REMARK    4  A    between atoms: C_10  and  C_12
REMARK    5  A    between atoms: N_19  and  N_20
REMARK    6  A    between atoms: C_21  and  C_23
REMARK                            x       y       z     vdW  Elec       q    Type
REMARK                         _______ _______ _______ _____ _____    ______ ____
ROOT
ATOM      1  C   UNL     1      -6.133   2.020  -1.265  0.00  0.00    +0.010 A 
ATOM      2  C   UNL     1      -4.977   1.453  -1.718  0.00  0.00    +0.010 A 
ATOM      3  C   UNL     1      -3.742   2.013  -1.375  0.00  0.00    -0.005 A 
ATOM      4  C   UNL     1      -3.692   3.151  -0.563  0.00  0.00    +0.010 A 
ATOM      5  C   UNL     1      -4.848   3.722  -0.115  0.00  0.00    +0.010 A 
ATOM      6  C   UNL     1      -6.083   3.162  -0.458  0.00  0.00    -0.005 A 
ENDROOT
BRANCH   6   7
ATOM      7  C   UNL     1      -7.331   3.773   0.031  0.00  0.00    +0.138 C 
ATOM      8  N   UNL     1      -8.447   3.113  -0.035  0.00  0.00    -0.188 NA
BRANCH   8   9
ATOM      9  N   UNL     1      -8.433   1.712  -0.044  0.00  0.00    -0.207 N 
ATOM     10  C   UNL     1      -9.576   1.027  -0.244  0.00  0.00    +0.235 C 
ATOM     11  O   UNL     1     -10.618   1.624  -0.416  0.00  0.00    -0.274 OA
ATOM     12  H   UNL     1      -7.600   1.235   0.095  0.00  0.00    +0.177 HD
BRANCH  10  13
ATOM     13  C   UNL     1      -9.561  -0.479  -0.253  0.00  0.00    +0.077 C 
ATOM     14  C   UNL     1      -8.635  -0.973  -1.366  0.00  0.00    +0.013 C 
ATOM     15  C   UNL     1      -8.619  -2.503  -1.375  0.00  0.00    +0.001 C 
ATOM     16  C   UNL     1     -10.036  -3.026  -1.621  0.00  0.00    +0.000 C 
ATOM     17  C   UNL     1     -10.962  -2.533  -0.507  0.00  0.00    +0.001 C 
ATOM     18  C   UNL     1     -10.977  -1.003  -0.498  0.00  0.00    +0.013 C 
ENDBRANCH  10  13
ENDBRANCH   8   9
ENDBRANCH   6   7
BRANCH   3  19
ATOM     19  C   UNL     1      -2.494   1.401  -1.862  0.00  0.00    +0.138 C 
ATOM     20  N   UNL     1      -1.348   1.921  -1.544  0.00  0.00    -0.188 NA
BRANCH  20  21
ATOM     21  N   UNL     1      -0.161   1.338  -2.008  0.00  0.00    -0.207 N 
ATOM     22  C   UNL     1       1.029   1.881  -1.681  0.00  0.00    +0.235 C 
ATOM     23  O   UNL     1       1.072   2.871  -0.982  0.00  0.00    -0.274 OA
ATOM     24  H   UNL     1      -0.196   0.546  -2.567  0.00  0.00    +0.177 HD
BRANCH  22  25
ATOM     25  C   UNL     1       2.305   1.258  -2.185  0.00  0.00    +0.077 C 
ATOM     26  C   UNL     1       2.404  -0.182  -1.679  0.00  0.00    +0.013 C 
ATOM     27  C   UNL     1       3.700  -0.815  -2.190  0.00  0.00    +0.001 C 
ATOM     28  C   UNL     1       4.897  -0.010  -1.679  0.00  0.00    +0.000 C 
ATOM     29  C   UNL     1       4.797   1.430  -2.186  0.00  0.00    +0.001 C 
ATOM     30  C   UNL     1       3.502   2.062  -1.674  0.00  0.00    +0.013 C 
ENDBRANCH  22  25
ENDBRANCH  20  21
ENDBRANCH   3  19
TORSDOF 6
