REMARK  Name = ZINC01835589
REMARK  12 active torsions:
REMARK  status: ('A' for Active; 'I' for Inactive)
REMARK    1  A    between atoms: C_1  and  C_2
REMARK    2  A    between atoms: C_2  and  O_3
REMARK    3  A    between atoms: O_3  and  C_4
REMARK    4  A    between atoms: C_7  and  N_10
REMARK    5  A    between atoms: C_11  and  C_31
REMARK    6  A    between atoms: C_14  and  S_15
REMARK    7  A    between atoms: S_15  and  C_16
REMARK    8  A    between atoms: C_16  and  C_17
REMARK    9  A    between atoms: N_19  and  N_20
REMARK   10  A    between atoms: C_21  and  C_22
REMARK   11  A    between atoms: C_22  and  C_30
REMARK   12  A    between atoms: C_23  and  C_24
REMARK                            x       y       z     vdW  Elec       q    Type
REMARK                         _______ _______ _______ _____ _____    ______ ____
ROOT
ATOM      1  N   UNL     1       1.046  -5.649   1.514  0.00  0.00    -0.270 N 
ATOM      2  C   UNL     1       0.568  -6.373   2.584  0.00  0.00    +0.169 A 
ATOM      3  N   UNL     1       0.919  -7.623   2.390  0.00  0.00    -0.128 NA
ATOM      4  N   UNL     1       1.573  -7.730   1.289  0.00  0.00    -0.122 NA
ATOM      5  C   UNL     1       1.677  -6.556   0.708  0.00  0.00    +0.197 A 
ENDROOT
BRANCH   2   6
ATOM      6  C   UNL     1      -0.196  -5.843   3.733  0.00  0.00    +0.020 A 
ATOM      7  C   UNL     1      -0.826  -4.601   3.643  0.00  0.00    +0.013 A 
ATOM      8  C   UNL     1      -1.538  -4.112   4.718  0.00  0.00    +0.021 A 
ATOM      9  C   UNL     1      -1.627  -4.850   5.886  0.00  0.00    +0.041 A 
ATOM     10  C   UNL     1      -1.004  -6.083   5.982  0.00  0.00    +0.021 A 
ATOM     11  C   UNL     1      -0.294  -6.585   4.911  0.00  0.00    +0.013 A 
ATOM     12 CL   UNL     1      -2.523  -4.228   7.236  0.00  0.00    -0.084 Cl
ENDBRANCH   2   6
BRANCH   1  16
ATOM     13  C   UNL     1       0.638  -1.548   0.861  0.00  0.00    +0.121 A 
ATOM     14  C   UNL     1       0.000  -2.451   0.022  0.00  0.00    +0.047 A 
ATOM     15  C   UNL     1       0.135  -3.808   0.238  0.00  0.00    +0.030 A 
ATOM     16  C   UNL     1       0.909  -4.269   1.294  0.00  0.00    +0.051 A 
ATOM     17  C   UNL     1       1.547  -3.366   2.133  0.00  0.00    +0.030 A 
ATOM     18  C   UNL     1       1.416  -2.009   1.914  0.00  0.00    +0.047 A 
BRANCH  13  19
ATOM     19  O   UNL     1       0.505  -0.212   0.648  0.00  0.00    -0.492 OA
BRANCH  19  21
ATOM     20  C   UNL     1      -0.340   1.719  -0.534  0.00  0.00    +0.048 C 
ATOM     21  C   UNL     1      -0.310   0.191  -0.454  0.00  0.00    +0.225 C 
ENDBRANCH  19  21
ENDBRANCH  13  19
ENDBRANCH   1  16
BRANCH   5  22
ATOM     22  S   UNL     1       2.482  -6.213  -0.822  0.00  0.00    -0.076 S 
BRANCH  22  23
ATOM     23  C   UNL     1       3.098  -7.831  -1.365  0.00  0.00    +0.174 C 
BRANCH  23  24
ATOM     24  C   UNL     1       3.818  -7.678  -2.680  0.00  0.00    +0.242 C 
ATOM     25  O   UNL     1       3.905  -6.586  -3.200  0.00  0.00    -0.273 OA
ATOM     26  N   UNL     1       4.363  -8.755  -3.279  0.00  0.00    -0.206 N 
ATOM     27  H   UNL     1       4.293  -9.629  -2.863  0.00  0.00    +0.177 HD
BRANCH  26  28
ATOM     28  N   UNL     1       5.032  -8.614  -4.502  0.00  0.00    -0.188 NA
ATOM     29  C   UNL     1       5.559  -9.654  -5.080  0.00  0.00    +0.133 C 
BRANCH  29  30
ATOM     30  C   UNL     1       6.236  -9.511  -6.318  0.00  0.00    -0.030 C 
ATOM     31  C   UNL     1       6.781 -10.589  -6.917  0.00  0.00    +0.012 C 
ATOM     32  C   UNL     1       6.345  -8.154  -6.964  0.00  0.00    +0.045 C 
BRANCH  31  33
ATOM     33  C   UNL     1       7.610 -10.420  -8.122  0.00  0.00    -0.025 A 
ATOM     34  C   UNL     1       8.403  -9.279  -8.275  0.00  0.00    +0.008 A 
ATOM     35  C   UNL     1       9.177  -9.129  -9.407  0.00  0.00    +0.001 A 
ATOM     36  C   UNL     1       9.169 -10.103 -10.389  0.00  0.00    +0.000 A 
ATOM     37  C   UNL     1       8.387 -11.236 -10.245  0.00  0.00    +0.001 A 
ATOM     38  C   UNL     1       7.612 -11.403  -9.117  0.00  0.00    +0.008 A 
ENDBRANCH  31  33
ENDBRANCH  29  30
ENDBRANCH  26  28
ENDBRANCH  23  24
ENDBRANCH  22  23
ENDBRANCH   5  22
TORSDOF 10
