REMARK  Name = ZINC35449864
REMARK  12 active torsions:
REMARK  status: ('A' for Active; 'I' for Inactive)
REMARK    1  A    between atoms: C_1  and  C_2
REMARK    2  A    between atoms: C_2  and  C_3
REMARK    3  A    between atoms: C_3  and  C_5
REMARK    4  A    between atoms: C_3  and  S_6
REMARK    5  A    between atoms: S_6  and  C_7
REMARK    6  A    between atoms: C_14  and  C_24
REMARK    7  A    between atoms: C_26  and  O_34
REMARK    8  A    between atoms: C_27  and  O_32
REMARK    9  A    between atoms: C_28  and  O_30
REMARK   10  A    between atoms: O_30  and  C_31
REMARK   11  A    between atoms: O_32  and  C_33
REMARK   12  A    between atoms: O_34  and  C_35
REMARK                            x       y       z     vdW  Elec       q    Type
REMARK                         _______ _______ _______ _____ _____    ______ ____
ROOT
ATOM      1  C   UNL     1      -3.926  -0.602  -1.300  0.00  0.00    +0.171 A 
ATOM      2  N   UNL     1      -4.262  -1.197  -0.174  0.00  0.00    -0.208 NA
ATOM      3  C   UNL     1      -5.511  -1.625   0.035  0.00  0.00    +0.135 A 
ATOM      4  C   UNL     1      -6.473  -1.446  -0.945  0.00  0.00    +0.069 A 
ATOM      5  C   UNL     1      -6.111  -0.812  -2.139  0.00  0.00    +0.258 A 
ATOM      6  O   UNL     1      -6.934  -0.636  -3.023  0.00  0.00    -0.267 OA
ATOM      7  N   UNL     1      -4.837  -0.395  -2.292  0.00  0.00    -0.302 N 
ATOM      8  C   UNL     1      -7.878  -1.927  -0.737  0.00  0.00    +0.093 C 
ATOM      9  C   UNL     1      -8.162  -2.178   0.723  0.00  0.00    +0.024 C 
ATOM     10  C   UNL     1      -7.159  -2.329   1.614  0.00  0.00    +0.017 C 
ATOM     11  N   UNL     1      -5.851  -2.242   1.222  0.00  0.00    -0.302 N 
ATOM     12  C   UNL     1      -7.450  -2.603   3.070  0.00  0.00    +0.051 C 
ATOM     13  C   UNL     1      -8.769  -1.936   3.465  0.00  0.00    +0.014 C 
ATOM     14  C   UNL     1      -9.879  -2.487   2.564  0.00  0.00    +0.080 C 
ATOM     15  C   UNL     1      -9.507  -2.249   1.127  0.00  0.00    +0.162 C 
ATOM     16  O   UNL     1     -10.385  -2.116   0.299  0.00  0.00    -0.292 OA
ATOM     17  H   UNL     1      -5.156  -2.618   1.784  0.00  0.00    +0.153 HD
ATOM     18  H   UNL     1      -4.568   0.051  -3.111  0.00  0.00    +0.171 HD
ENDROOT
BRANCH   8  19
ATOM     19  C   UNL     1      -8.081  -3.207  -1.505  0.00  0.00    -0.028 A 
ATOM     20  C   UNL     1      -7.303  -4.313  -1.219  0.00  0.00    +0.054 A 
ATOM     21  C   UNL     1      -7.486  -5.493  -1.924  0.00  0.00    +0.165 A 
ATOM     22  C   UNL     1      -8.454  -5.563  -2.919  0.00  0.00    +0.204 A 
ATOM     23  C   UNL     1      -9.235  -4.449  -3.203  0.00  0.00    +0.165 A 
ATOM     24  C   UNL     1      -9.049  -3.274  -2.490  0.00  0.00    +0.054 A 
BRANCH  23  25
ATOM     25  O   UNL     1     -10.183  -4.512  -4.176  0.00  0.00    -0.491 OA
ATOM     26  C   UNL     1     -10.948  -3.329  -4.414  0.00  0.00    +0.277 C 
ENDBRANCH  23  25
BRANCH  22  27
ATOM     27  O   UNL     1      -8.636  -6.719  -3.614  0.00  0.00    -0.488 OA
ATOM     28  C   UNL     1      -9.580  -7.652  -3.084  0.00  0.00    +0.277 C 
ENDBRANCH  22  27
BRANCH  21  29
ATOM     29  O   UNL     1      -6.719  -6.580  -1.643  0.00  0.00    -0.491 OA
ATOM     30  C   UNL     1      -5.744  -6.436  -0.609  0.00  0.00    +0.277 C 
ENDBRANCH  21  29
ENDBRANCH   8  19
BRANCH   1  31
ATOM     31  S   UNL     1      -2.265  -0.057  -1.527  0.00  0.00    -0.085 S 
BRANCH  31  32
ATOM     32  C   UNL     1      -1.433  -0.534   0.013  0.00  0.00    +0.051 C 
ATOM     33  C   UNL     1      -1.413  -2.059   0.130  0.00  0.00    +0.019 C 
BRANCH  32  35
ATOM     34  C   UNL     1      -0.019   1.526   0.010  0.00  0.00    +0.005 C 
ATOM     35  C   UNL     1       0.002  -0.004   0.002  0.00  0.00    +0.011 C 
ENDBRANCH  32  35
ENDBRANCH  31  32
ENDBRANCH   1  31
TORSDOF 7
