REMARK  Name = ZINC08749492
REMARK  12 active torsions:
REMARK  status: ('A' for Active; 'I' for Inactive)
REMARK    1  A    between atoms: C_1  and  C_2
REMARK    2  A    between atoms: C_3  and  C_12
REMARK    3  A    between atoms: C_14  and  C_19
REMARK    4  A    between atoms: C_16  and  C_17
REMARK    5  A    between atoms: C_16  and  C_18
REMARK    6  A    between atoms: C_19  and  C_20
REMARK    7  A    between atoms: N_22  and  C_23
REMARK    8  A    between atoms: N_22  and  C_29
REMARK    9  A    between atoms: C_23  and  C_24
REMARK   10  A    between atoms: C_29  and  C_35
REMARK   11  A    between atoms: C_34  and  N_95
REMARK   12  A    between atoms: N_37  and  C_38
REMARK                            x       y       z     vdW  Elec       q    Type
REMARK                         _______ _______ _______ _____ _____    ______ ____
ROOT
ATOM      1  C   UNL     1      -0.415   1.507   4.275  0.00  0.00    +0.217 C 
ATOM      2  O   UNL     1       0.416   2.366   4.480  0.00  0.00    -0.276 OA
ATOM      3  N   UNL     1      -0.871   0.753   5.295  0.00  0.00    -0.280 N 
ENDROOT
BRANCH   3   4
ATOM      4  C   UNL     1      -0.446   1.042   6.667  0.00  0.00    +0.110 C 
ATOM      5  C   UNL     1      -1.385   0.340   7.652  0.00  0.00    +0.017 C 
ATOM      6  C   UNL     1      -2.803   0.892   7.478  0.00  0.00    -0.077 C 
ATOM      7  C   UNL     1      -1.941   3.040   6.759  0.00  0.00    -0.077 C 
ATOM      8  C   UNL     1      -0.498   2.553   6.911  0.00  0.00    +0.017 C 
ATOM      9  C   UNL     1      -4.165   2.880   7.701  0.00  0.00    -0.096 C 
ATOM     10  N   UNL     1      -2.789   2.345   7.751  0.00  0.00    +0.378 N 
ATOM     11  H   UNL     1      -2.403   2.505   8.688  0.00  0.00    -0.082 HD
BRANCH   4  12
ATOM     12  C   UNL     1       0.962   0.547   6.872  0.00  0.00    +0.237 C 
ATOM     13  O   UNL     1       1.702   1.125   7.640  0.00  0.00    -0.273 OA
ATOM     14  N   UNL     1       1.399  -0.538   6.204  0.00  0.00    -0.308 N 
ATOM     15  H   UNL     1       0.835  -0.956   5.535  0.00  0.00    +0.149 HD
BRANCH  14  16
ATOM     16  C   UNL     1       2.728  -1.087   6.487  0.00  0.00    +0.035 C 
ATOM     17  C   UNL     1       3.791  -0.025   6.200  0.00  0.00    +0.029 C 
ATOM     18  C   UNL     1       5.178  -0.598   6.497  0.00  0.00    -0.008 C 
ATOM     19  C   UNL     1       5.425  -1.820   5.609  0.00  0.00    +0.007 C 
ATOM     20  C   UNL     1       4.362  -2.882   5.896  0.00  0.00    -0.008 C 
ATOM     21  C   UNL     1       2.975  -2.309   5.599  0.00  0.00    +0.029 C 
ATOM     22  C   UNL     1       4.439  -3.297   7.366  0.00  0.00    +0.007 C 
ATOM     23  C   UNL     1       4.192  -2.075   8.254  0.00  0.00    -0.008 C 
ATOM     24  C   UNL     1       5.255  -1.013   7.967  0.00  0.00    +0.007 C 
ATOM     25  C   UNL     1       2.805  -1.502   7.958  0.00  0.00    +0.029 C 
ENDBRANCH  14  16
ENDBRANCH   4  12
ENDBRANCH   3   4
BRANCH   1  26
ATOM     26  C   UNL     1      -0.944   1.288   2.881  0.00  0.00    +0.100 C 
BRANCH  26  28
ATOM     27  C   UNL     1      -1.066   2.894   0.820  0.00  0.00    +0.031 C 
ATOM     28  C   UNL     1      -0.225   2.227   1.910  0.00  0.00    +0.012 C 
ATOM     29  C   UNL     1      -0.092   1.771   0.455  0.00  0.00    -0.024 C 
ATOM     30  C   UNL     1       1.185   2.159  -0.293  0.00  0.00    +0.012 C 
ATOM     31  C   UNL     1      -0.689   0.412   0.083  0.00  0.00    +0.012 C 
BRANCH  27  34
ATOM     32  C   UNL     1      -3.121   3.505   3.064  0.00  0.00    +0.063 C 
ATOM     33  C   UNL     1      -3.434   2.837   1.750  0.00  0.00    +0.017 A 
ATOM     34  C   UNL     1      -2.538   2.577   0.785  0.00  0.00    -0.016 A 
ATOM     35  C   UNL     1      -3.263   1.920  -0.306  0.00  0.00    +0.003 A 
ATOM     36  C   UNL     1      -2.890   1.415  -1.553  0.00  0.00    +0.010 A 
ATOM     37  C   UNL     1      -3.830   0.844  -2.363  0.00  0.00    +0.001 A 
ATOM     38  C   UNL     1      -5.155   0.763  -1.956  0.00  0.00    +0.002 A 
ATOM     39  C   UNL     1      -5.545   1.255  -0.730  0.00  0.00    +0.026 A 
ATOM     40  C   UNL     1      -4.604   1.840   0.111  0.00  0.00    +0.047 A 
ATOM     41  N   UNL     1      -4.675   2.409   1.363  0.00  0.00    -0.358 N 
ATOM     42  H   UNL     1      -5.483   2.490   1.893  0.00  0.00    +0.166 HD
ENDBRANCH  27  34
ENDBRANCH  26  28
ENDBRANCH   1  26
BRANCH   3  43
ATOM     43  C   UNL     1      -1.792  -0.356   5.031  0.00  0.00    +0.183 C 
BRANCH  43  44
ATOM     44  C   UNL     1      -1.002  -1.598   4.709  0.00  0.00    +0.122 A 
ATOM     45  C   UNL     1      -0.570  -2.509   5.600  0.00  0.00    +0.046 A 
ATOM     46  C   UNL     1       0.120  -3.502   4.869  0.00  0.00    +0.041 A 
ATOM     47  C   UNL     1       0.075  -3.136   3.575  0.00  0.00    +0.195 A 
ATOM     48  O   UNL     1      -0.606  -1.982   3.485  0.00  0.00    -0.466 OA
ENDBRANCH  43  44
ENDBRANCH   3  43
TORSDOF 8
