REMARK  Name = ZINC12814085
REMARK  4 active torsions:
REMARK  status: ('A' for Active; 'I' for Inactive)
REMARK    1  A    between atoms: C_1  and  C_2
REMARK    2  A    between atoms: C_5  and  C_8
REMARK    3  A    between atoms: C_10  and  C_13
REMARK    4  A    between atoms: N_15  and  N_16
REMARK                            x       y       z     vdW  Elec       q    Type
REMARK                         _______ _______ _______ _____ _____    ______ ____
ROOT
ATOM      1  C   UNL     1      -2.793   0.321   1.145  0.00  0.00    +0.281 C 
ATOM      2  O   UNL     1      -2.129   0.415   2.160  0.00  0.00    -0.267 OA
ATOM      3  N   UNL     1      -2.396   0.946   0.019  0.00  0.00    -0.214 N 
ATOM      4  H   UNL     1      -2.925   0.871  -0.790  0.00  0.00    +0.176 HD
ENDROOT
BRANCH   3   5
ATOM      5  N   UNL     1      -1.217   1.704   0.017  0.00  0.00    -0.212 N 
ATOM      6  C   UNL     1      -0.013   1.076   0.008  0.00  0.00    +0.223 A 
ATOM      7  N   UNL     1       1.122   1.707   0.001  0.00  0.00    -0.235 NA
ATOM      8  C   UNL     1       1.182   3.062   0.007  0.00  0.00    +0.078 A 
ATOM      9  C   UNL     1       2.402   3.742  -0.001  0.00  0.00    +0.030 A 
ATOM     10  C   UNL     1       2.416   5.118   0.006  0.00  0.00    +0.022 A 
ATOM     11  C   UNL     1       1.230   5.843   0.021  0.00  0.00    +0.042 A 
ATOM     12  C   UNL     1       0.013   5.194   0.029  0.00  0.00    +0.035 A 
ATOM     13  C   UNL     1      -0.022   3.801   0.022  0.00  0.00    +0.068 A 
ATOM     14  C   UNL     1      -1.290   3.055   0.030  0.00  0.00    +0.279 A 
ATOM     15  O   UNL     1      -2.362   3.631   0.042  0.00  0.00    -0.265 OA
ATOM     16 CL   UNL     1       1.281   7.578   0.030  0.00  0.00    -0.084 Cl
ENDBRANCH   3   5
BRANCH   1  19
ATOM     17  C   UNL     1      -5.870  -1.302   0.059  0.00  0.00    +0.109 A 
ATOM     18  N   UNL     1      -4.761  -0.585   0.046  0.00  0.00    -0.234 NA
ATOM     19  C   UNL     1      -4.032  -0.476   1.147  0.00  0.00    +0.135 A 
ATOM     20  C   UNL     1      -4.443  -1.121   2.287  0.00  0.00    +0.080 A 
ATOM     21  S   UNL     1      -5.909  -1.880   1.748  0.00  0.00    -0.075 S 
BRANCH  17  26
ATOM     22  C   UNL     1      -9.600  -2.301  -4.209  0.00  0.00    +0.044 C 
ATOM     23  C   UNL     1      -8.623  -2.039  -3.091  0.00  0.00    -0.050 A 
ATOM     24  C   UNL     1      -8.843  -2.590  -1.841  0.00  0.00    +0.004 A 
ATOM     25  C   UNL     1      -7.952  -2.355  -0.814  0.00  0.00    +0.011 A 
ATOM     26  C   UNL     1      -6.829  -1.559  -1.038  0.00  0.00    +0.007 A 
ATOM     27  C   UNL     1      -6.616  -1.001  -2.299  0.00  0.00    +0.011 A 
ATOM     28  C   UNL     1      -7.511  -1.249  -3.319  0.00  0.00    +0.004 A 
ENDBRANCH  17  26
ENDBRANCH   1  19
TORSDOF 3
