REMARK  Name = ZINC36275495
REMARK  8 active torsions:
REMARK  status: ('A' for Active; 'I' for Inactive)
REMARK    1  A    between atoms: C_1  and  C_2
REMARK    2  A    between atoms: C_8  and  C_19
REMARK    3  A    between atoms: C_12  and  C_13
REMARK    4  A    between atoms: C_13  and  O_15
REMARK    5  A    between atoms: O_15  and  C_16
REMARK    6  A    between atoms: C_16  and  C_17
REMARK    7  A    between atoms: C_16  and  C_18
REMARK    8  A    between atoms: C_19  and  C_21
REMARK                            x       y       z     vdW  Elec       q    Type
REMARK                         _______ _______ _______ _____ _____    ______ ____
ROOT
ATOM      1  C   UNL     1      -0.018   1.503   0.010  0.00  0.00    +0.046 C 
ATOM      2  C   UNL     1       0.002  -0.004   0.002  0.00  0.00    -0.015 A 
ATOM      3  C   UNL     1       0.005  -0.697  -1.210  0.00  0.00    +0.076 A 
ATOM      4  C   UNL     1      -0.009  -0.166  -2.592  0.00  0.00    +0.260 A 
ATOM      5  O   UNL     1      -0.025   1.034  -2.800  0.00  0.00    -0.267 OA
ATOM      6  N   UNL     1      -0.002  -1.044  -3.614  0.00  0.00    -0.309 N 
ATOM      7  H   UNL     1      -0.010  -0.712  -4.525  0.00  0.00    +0.170 HD
ATOM      8  C   UNL     1       0.018  -2.382  -3.394  0.00  0.00    +0.129 A 
ATOM      9  N   UNL     1       0.030  -2.883  -2.189  0.00  0.00    -0.225 NA
ATOM     10  C   UNL     1       0.025  -2.108  -1.113  0.00  0.00    +0.116 A 
ATOM     11  S   UNL     1       0.037  -2.396   0.639  0.00  0.00    -0.062 S 
ATOM     12  C   UNL     1       0.023  -0.695   1.179  0.00  0.00    +0.102 A 
ENDROOT
BRANCH   8  13
ATOM     13  C   UNL     1       0.024  -3.317  -4.576  0.00  0.00    +0.143 C 
ATOM     14  C   UNL     1      -1.409  -3.751  -4.890  0.00  0.00    +0.033 C 
ATOM     15 CL   UNL     1       1.021  -4.768  -4.188  0.00  0.00    -0.114 Cl
ENDBRANCH   8  13
BRANCH  12  16
ATOM     16  C   UNL     1       0.030  -0.170   2.547  0.00  0.00    +0.346 C 
ATOM     17  O   UNL     1       0.015   1.031   2.737  0.00  0.00    -0.244 OA
BRANCH  16  18
ATOM     18  O   UNL     1       0.051  -1.019   3.595  0.00  0.00    -0.458 OA
BRANCH  18  19
ATOM     19  C   UNL     1       0.057  -0.438   4.900  0.00  0.00    +0.171 C 
ATOM     20  C   UNL     1      -1.384  -0.250   5.380  0.00  0.00    +0.052 C 
ATOM     21  C   UNL     1       0.800  -1.362   5.867  0.00  0.00    +0.052 C 
ENDBRANCH  18  19
ENDBRANCH  16  18
ENDBRANCH  12  16
TORSDOF 4
