REMARK  Name = ZINC20189087
REMARK  7 active torsions:
REMARK  status: ('A' for Active; 'I' for Inactive)
REMARK    1  A    between atoms: C_1  and  C_2
REMARK    2  A    between atoms: C_3  and  C_27
REMARK    3  A    between atoms: C_4  and  N_26
REMARK    4  A    between atoms: C_11  and  C_19
REMARK    5  A    between atoms: C_12  and  C_16
REMARK    6  A    between atoms: C_13  and  C_15
REMARK    7  A    between atoms: C_16  and  C_18
REMARK                            x       y       z     vdW  Elec       q    Type
REMARK                         _______ _______ _______ _____ _____    ______ ____
ROOT
ATOM      1  C   UNL     1      -8.474   4.396   4.020  0.00  0.00    +0.046 C 
ATOM      2  C   UNL     1      -7.055   4.018   4.358  0.00  0.00    -0.014 A 
ATOM      3  C   UNL     1      -6.549   4.198   5.652  0.00  0.00    +0.095 A 
ATOM      4  C   UNL     1      -5.214   3.824   5.900  0.00  0.00    +0.135 A 
ATOM      5  N   UNL     1      -4.454   3.320   4.956  0.00  0.00    -0.230 NA
ATOM      6  C   UNL     1      -4.891   3.125   3.695  0.00  0.00    +0.090 A 
ATOM      7  C   UNL     1      -6.217   3.485   3.404  0.00  0.00    +0.044 A 
ATOM      8  S   UNL     1      -6.422   3.092   1.686  0.00  0.00    -0.067 S 
ATOM      9  C   UNL     1      -4.797   2.463   1.341  0.00  0.00    +0.112 A 
ATOM     10  C   UNL     1      -4.117   2.568   2.568  0.00  0.00    +0.042 A 
ATOM     11  C   UNL     1      -2.767   2.127   2.585  0.00  0.00    +0.007 A 
ATOM     12  C   UNL     1      -2.208   1.624   1.395  0.00  0.00    +0.047 A 
ATOM     13  C   UNL     1      -2.984   1.574   0.230  0.00  0.00    +0.051 A 
ATOM     14  N   UNL     1      -4.234   1.984   0.247  0.00  0.00    -0.244 NA
ATOM     15  C   UNL     1      -2.388   1.041  -1.047  0.00  0.00    +0.066 C 
ENDROOT
BRANCH  11  16
ATOM     16  C   UNL     1      -1.966   2.196   3.826  0.00  0.00    +0.002 A 
ATOM     17  C   UNL     1      -1.220   3.340   4.117  0.00  0.00    +0.010 A 
ATOM     18  C   UNL     1      -0.476   3.398   5.276  0.00  0.00    +0.001 A 
ATOM     19  C   UNL     1      -0.467   2.326   6.152  0.00  0.00    +0.001 A 
ATOM     20  C   UNL     1      -1.203   1.189   5.871  0.00  0.00    +0.020 A 
ATOM     21  C   UNL     1      -1.957   1.119   4.716  0.00  0.00    +0.049 A 
ATOM     22 CL   UNL     1      -2.886  -0.305   4.368  0.00  0.00    -0.083 Cl
ENDBRANCH  11  16
BRANCH  12  23
ATOM     23  C   UNL     1      -0.818   1.160   1.373  0.00  0.00    +0.162 C 
ATOM     24  O   UNL     1      -0.562  -0.003   1.608  0.00  0.00    -0.292 OA
ATOM     25  C   UNL     1       0.294   2.127   1.060  0.00  0.00    +0.091 C 
ENDBRANCH  12  23
BRANCH   4  26
ATOM     26  N   UNL     1      -4.689   3.993   7.172  0.00  0.00    -0.342 N 
ATOM     27  H   UNL     1      -3.648   3.705   7.381  0.00  0.00    +0.144 HD
ATOM     28  H   UNL     1      -5.314   4.415   7.973  0.00  0.00    +0.144 HD
ENDBRANCH   4  26
BRANCH   3  29
ATOM     29  C   UNL     1      -7.365   4.748   6.693  0.00  0.00    +0.103 C 
ATOM     30  N   UNL     1      -8.013   5.184   7.518  0.00  0.00    -0.191 NA
ENDBRANCH   3  29
TORSDOF 4
