REMARK  Name = ZINC20155222
REMARK  13 active torsions:
REMARK  status: ('A' for Active; 'I' for Inactive)
REMARK    1  A    between atoms: C_1  and  C_2
REMARK    2  A    between atoms: C_2  and  C_3
REMARK    3  A    between atoms: C_3  and  C_4
REMARK    4  A    between atoms: C_3  and  N_6
REMARK    5  A    between atoms: C_4  and  C_5
REMARK    6  A    between atoms: N_9  and  C_12
REMARK    7  A    between atoms: C_12  and  C_13
REMARK    8  A    between atoms: C_18  and  N_35
REMARK    9  A    between atoms: N_23  and  C_24
REMARK   10  A    between atoms: C_27  and  C_30
REMARK   11  A    between atoms: C_30  and  O_32
REMARK   12  A    between atoms: O_32  and  C_33
REMARK   13  A    between atoms: C_33  and  C_34
REMARK                            x       y       z     vdW  Elec       q    Type
REMARK                         _______ _______ _______ _____ _____    ______ ____
ROOT
ATOM      1  C   UNL     1      -6.121   6.117  -1.216  0.00  0.00    +0.132 A 
ATOM      2  N   UNL     1      -6.920   6.713  -0.385  0.00  0.00    -0.232 NA
ATOM      3  C   UNL     1      -8.167   6.242  -0.134  0.00  0.00    +0.078 A 
ATOM      4  C   UNL     1      -9.027   6.884   0.759  0.00  0.00    +0.031 A 
ATOM      5  C   UNL     1     -10.284   6.371   0.984  0.00  0.00    +0.035 A 
ATOM      6  C   UNL     1     -10.710   5.221   0.332  0.00  0.00    +0.127 A 
ATOM      7  C   UNL     1      -9.881   4.570  -0.554  0.00  0.00    +0.048 A 
ATOM      8  C   UNL     1      -8.604   5.073  -0.795  0.00  0.00    +0.067 A 
ATOM      9  C   UNL     1      -7.677   4.423  -1.734  0.00  0.00    +0.266 A 
ATOM     10  O   UNL     1      -7.994   3.415  -2.339  0.00  0.00    -0.267 OA
ATOM     11  N   UNL     1      -6.457   4.986  -1.896  0.00  0.00    -0.263 N 
ENDROOT
BRANCH  11  12
ATOM     12  C   UNL     1      -5.538   4.407  -2.773  0.00  0.00    +0.051 A 
ATOM     13  C   UNL     1      -5.244   5.029  -3.981  0.00  0.00    +0.027 A 
ATOM     14  C   UNL     1      -4.337   4.461  -4.848  0.00  0.00    +0.017 A 
ATOM     15  C   UNL     1      -3.713   3.256  -4.512  0.00  0.00    +0.059 A 
ATOM     16  C   UNL     1      -4.015   2.630  -3.300  0.00  0.00    +0.017 A 
ATOM     17  C   UNL     1      -4.919   3.208  -2.436  0.00  0.00    +0.027 A 
BRANCH  15  18
ATOM     18  C   UNL     1      -2.741   2.644  -5.438  0.00  0.00    +0.339 C 
ATOM     19  O   UNL     1      -2.483   3.187  -6.494  0.00  0.00    -0.245 OA
BRANCH  18  20
ATOM     20  O   UNL     1      -2.136   1.486  -5.111  0.00  0.00    -0.461 OA
BRANCH  20  21
ATOM     21  C   UNL     1      -1.187   0.944  -6.067  0.00  0.00    +0.229 C 
ATOM     22  C   UNL     1      -0.607  -0.364  -5.525  0.00  0.00    +0.048 C 
ENDBRANCH  20  21
ENDBRANCH  18  20
ENDBRANCH  15  18
ENDBRANCH  11  12
BRANCH   6  23
ATOM     23  N   UNL     1     -12.068   4.691   0.592  0.00  0.00    +0.056 N 
ATOM     24  O   UNL     1     -12.447   3.683   0.023  0.00  0.00    -0.126 OA
ATOM     25  O   UNL     1     -12.806   5.263   1.374  0.00  0.00    -0.126 OA
ENDBRANCH   6  23
BRANCH   1  26
ATOM     26  C   UNL     1      -4.752   6.705  -1.439  0.00  0.00    +0.159 C 
BRANCH  26  30
ATOM     27  N   UNL     1      -4.076  10.757  -0.453  0.00  0.00    +0.383 N 
ATOM     28  C   UNL     1      -3.170   9.749   0.115  0.00  0.00    -0.063 C 
ATOM     29  C   UNL     1      -3.255   8.465  -0.713  0.00  0.00    +0.066 C 
ATOM     30  N   UNL     1      -4.642   7.979  -0.717  0.00  0.00    -0.299 NA
ATOM     31  C   UNL     1      -5.548   8.986  -1.285  0.00  0.00    +0.066 C 
ATOM     32  C   UNL     1      -5.463  10.271  -0.457  0.00  0.00    -0.063 C 
ATOM     33  H   UNL     1      -3.775  10.934  -1.496  0.00  0.00    -0.081 HD
BRANCH  27  34
ATOM     34  C   UNL     1      -3.966  12.031   0.270  0.00  0.00    -0.069 C 
BRANCH  34  36
ATOM     35  C   UNL     1      -5.179  11.156   2.272  0.00  0.00    +0.002 C 
ATOM     36  C   UNL     1      -3.864  11.758   1.772  0.00  0.00    -0.019 C 
ENDBRANCH  34  36
BRANCH  34  37
ATOM     37  C   UNL     1      -2.716  12.777  -0.199  0.00  0.00    -0.019 C 
ATOM     38  C   UNL     1      -2.833  13.078  -1.695  0.00  0.00    +0.002 C 
ENDBRANCH  34  37
ENDBRANCH  27  34
ENDBRANCH  26  30
ENDBRANCH   1  26
TORSDOF 10
