REMARK  Name = ZINC67460450
REMARK  5 active torsions:
REMARK  status: ('A' for Active; 'I' for Inactive)
REMARK    1  A    between atoms: C_3  and  C_6
REMARK    2  A    between atoms: C_8  and  C_11
REMARK    3  A    between atoms: C_11  and  N_12
REMARK    4  A    between atoms: C_15  and  N_18
REMARK    5  A    between atoms: C_19  and  C_21
REMARK                            x       y       z     vdW  Elec       q    Type
REMARK                         _______ _______ _______ _____ _____    ______ ____
ROOT
ATOM      1  N   UNL     1       7.732   0.852  -1.465  0.00  0.00    +0.385 N 
ATOM      2  C   UNL     1       7.825   2.166  -2.111  0.00  0.00    -0.076 C 
ATOM      3  C   UNL     1       8.202   1.989  -3.584  0.00  0.00    +0.004 C 
ATOM      4  C   UNL     1       9.555   1.276  -3.676  0.00  0.00    +0.070 C 
ATOM      5  C   UNL     1       9.468  -0.061  -2.935  0.00  0.00    +0.004 C 
ATOM      6  C   UNL     1       9.044   0.193  -1.486  0.00  0.00    -0.076 C 
ATOM      7  H   UNL     1       7.063   0.282  -1.960  0.00  0.00    -0.081 HD
ENDROOT
BRANCH   4   8
ATOM      8  N   UNL     1       9.886   1.035  -5.083  0.00  0.00    -0.309 N 
ATOM      9  C   UNL     1      11.173   0.900  -5.458  0.00  0.00    +0.245 C 
ATOM     10  O   UNL     1      12.060   0.979  -4.629  0.00  0.00    -0.270 OA
ATOM     11  H   UNL     1       9.179   0.973  -5.744  0.00  0.00    +0.149 HD
BRANCH   9  12
ATOM     12  C   UNL     1      11.506   0.658  -6.872  0.00  0.00    +0.044 A 
ATOM     13  C   UNL     1      12.872   0.503  -7.310  0.00  0.00    +0.020 A 
ATOM     14  C   UNL     1      13.043   0.285  -8.629  0.00  0.00    +0.046 A 
ATOM     15  S   UNL     1      11.378   0.292  -9.258  0.00  0.00    -0.104 S 
ATOM     16  C   UNL     1      10.529   0.564  -7.836  0.00  0.00    +0.058 A 
ENDBRANCH   9  12
ENDBRANCH   4   8
BRANCH   1  17
ATOM     17  C   UNL     1       7.295   1.023  -0.073  0.00  0.00    +0.002 C 
BRANCH  17  20
ATOM     18  C   UNL     1       3.728   1.669  -0.025  0.00  0.00    +0.265 A 
ATOM     19  N   UNL     1       4.774   0.868  -0.045  0.00  0.00    -0.193 NA
ATOM     20  C   UNL     1       5.897   1.587  -0.051  0.00  0.00    +0.156 A 
ATOM     21  N   UNL     1       5.595   2.854  -0.036  0.00  0.00    -0.063 NA
ATOM     22  O   UNL     1       4.178   2.938  -0.024  0.00  0.00    -0.332 OA
BRANCH  18  25
ATOM     23  C   UNL     1      -0.016   1.350   0.009  0.00  0.00    +0.008 A 
ATOM     24  C   UNL     1       1.178   2.035   0.002  0.00  0.00    +0.021 A 
ATOM     25  C   UNL     1       2.320   1.252  -0.013  0.00  0.00    +0.077 A 
ATOM     26  S   UNL     1       1.636  -0.394  -0.016  0.00  0.00    -0.092 S 
ATOM     27  C   UNL     1       0.002  -0.004   0.002  0.00  0.00    +0.046 A 
ENDBRANCH  18  25
ENDBRANCH  17  20
ENDBRANCH   1  17
TORSDOF 5
