REMARK  Name = ZINC06918474
REMARK  3 active torsions:
REMARK  status: ('A' for Active; 'I' for Inactive)
REMARK    1  A    between atoms: C_1  and  C_2
REMARK    2  A    between atoms: C_2  and  C_3
REMARK    3  A    between atoms: C_2  and  C_4
REMARK                            x       y       z     vdW  Elec       q    Type
REMARK                         _______ _______ _______ _____ _____    ______ ____
ROOT
ATOM      1  C   UNL     1      -1.433  -0.534   0.013  0.00  0.00    +0.162 C 
ATOM      2  N   UNL     1      -1.417  -1.994  -0.003  0.00  0.00    -0.326 N 
ATOM      3  C   UNL     1      -1.018  -2.743  -1.107  0.00  0.00    +0.055 A 
ATOM      4  C   UNL     1      -0.597  -4.058  -0.910  0.00  0.00    +0.025 A 
ATOM      5  C   UNL     1      -0.212  -4.831  -1.986  0.00  0.00    +0.002 A 
ATOM      6  C   UNL     1      -0.242  -4.309  -3.266  0.00  0.00    +0.002 A 
ATOM      7  C   UNL     1      -0.652  -3.004  -3.468  0.00  0.00    +0.030 A 
ATOM      8  C   UNL     1      -1.030  -2.225  -2.395  0.00  0.00    +0.126 A 
ATOM      9  S   UNL     1      -1.517  -0.546  -2.653  0.00  0.00    +0.062 S 
ATOM     10  O   UNL     1      -2.591  -0.563  -3.583  0.00  0.00    -0.153 OA
ATOM     11  O   UNL     1      -0.328   0.203  -2.866  0.00  0.00    -0.153 OA
ATOM     12  N   UNL     1      -2.148  -0.052  -1.187  0.00  0.00    -0.170 NA
ATOM     13  H   UNL     1      -1.698  -2.466   0.797  0.00  0.00    +0.148 HD
ATOM     14  H   UNL     1      -2.935   0.511  -1.125  0.00  0.00    +0.150 HD
ENDROOT
BRANCH   1  16
ATOM     15  C   UNL     1      -0.019   1.526   0.010  0.00  0.00    +0.010 C 
ATOM     16  C   UNL     1       0.002  -0.004   0.002  0.00  0.00    +0.019 C 
ATOM     17  C   UNL     1       0.742  -0.511   1.242  0.00  0.00    +0.010 C 
ENDBRANCH   1  16
TORSDOF 1
