REMARK  Name = ZINC07201126
REMARK  9 active torsions:
REMARK  status: ('A' for Active; 'I' for Inactive)
REMARK    1  A    between atoms: C_1  and  C_2
REMARK    2  A    between atoms: C_5  and  C_8
REMARK    3  A    between atoms: C_8  and  C_31
REMARK    4  A    between atoms: N_11  and  C_15
REMARK    5  A    between atoms: C_15  and  C_16
REMARK    6  A    between atoms: C_16  and  C_18
REMARK    7  A    between atoms: C_16  and  O_30
REMARK    8  A    between atoms: C_18  and  O_19
REMARK    9  A    between atoms: O_19  and  C_20
REMARK                            x       y       z     vdW  Elec       q    Type
REMARK                         _______ _______ _______ _____ _____    ______ ____
ROOT
ATOM      1  C   UNL     1       0.002  -0.004   0.002  0.00  0.00    +0.135 C 
ATOM      2  C   UNL     1      -0.018   1.512   0.010  0.00  0.00    +0.251 C 
ATOM      3  O   UNL     1      -0.995   2.231   0.019  0.00  0.00    -0.272 OA
ATOM      4  N   UNL     1       1.274   1.894   0.000  0.00  0.00    -0.221 N 
ATOM      5  C   UNL     1       2.099   0.841  -0.013  0.00  0.00    +0.310 C 
ATOM      6  O   UNL     1       3.311   0.933  -0.025  0.00  0.00    -0.252 OA
ATOM      7  N   UNL     1       1.438  -0.331  -0.013  0.00  0.00    -0.281 N 
ATOM      8  C   UNL     1      -0.686  -0.545  -1.253  0.00  0.00    +0.047 C 
ATOM      9  H   UNL     1       1.831  -1.218  -0.022  0.00  0.00    +0.152 HD
ENDROOT
BRANCH   1  14
ATOM     10  C   UNL     1      -2.508  -2.098   4.768  0.00  0.00    +0.044 C 
ATOM     11  C   UNL     1      -1.853  -1.552   3.525  0.00  0.00    -0.050 A 
ATOM     12  C   UNL     1      -0.840  -2.262   2.908  0.00  0.00    +0.004 A 
ATOM     13  C   UNL     1      -0.240  -1.761   1.768  0.00  0.00    +0.006 A 
ATOM     14  C   UNL     1      -0.652  -0.550   1.245  0.00  0.00    -0.015 A 
ATOM     15  C   UNL     1      -1.662   0.163   1.865  0.00  0.00    +0.006 A 
ATOM     16  C   UNL     1      -2.265  -0.340   3.002  0.00  0.00    +0.004 A 
ENDBRANCH   1  14
BRANCH   4  17
ATOM     17  C   UNL     1       1.720   3.289   0.002  0.00  0.00    +0.152 C 
BRANCH  17  18
ATOM     18  C   UNL     1       1.888   3.768   1.446  0.00  0.00    +0.170 C 
BRANCH  18  19
ATOM     19  O   UNL     1       2.942   3.034   2.071  0.00  0.00    -0.387 OA
ATOM     20  H   UNL     1       3.801   3.130   1.637  0.00  0.00    +0.210 HD
ENDBRANCH  18  19
BRANCH  18  21
ATOM     21  C   UNL     1       2.232   5.259   1.451  0.00  0.00    +0.262 C 
BRANCH  21  22
ATOM     22  O   UNL     1       2.276   5.733   2.798  0.00  0.00    -0.489 OA
BRANCH  22  23
ATOM     23  C   UNL     1       2.570   7.046   2.981  0.00  0.00    +0.128 A 
ATOM     24  C   UNL     1       2.810   7.854   1.905  0.00  0.00    +0.046 A 
ATOM     25  C   UNL     1       3.113   9.201   2.075  0.00  0.00    +0.004 A 
ATOM     26  C   UNL     1       3.179   9.755   3.317  0.00  0.00    +0.009 A 
ATOM     27  C   UNL     1       2.939   8.958   4.450  0.00  0.00    -0.014 A 
ATOM     28  C   UNL     1       2.625   7.587   4.282  0.00  0.00    +0.024 A 
ATOM     29  C   UNL     1       2.389   6.790   5.413  0.00  0.00    +0.012 A 
ATOM     30  C   UNL     1       2.457   7.346   6.654  0.00  0.00    +0.001 A 
ATOM     31  C   UNL     1       2.761   8.695   6.821  0.00  0.00    +0.001 A 
ATOM     32  C   UNL     1       3.000   9.497   5.747  0.00  0.00    +0.008 A 
ENDBRANCH  22  23
ENDBRANCH  21  22
ENDBRANCH  18  21
ENDBRANCH  17  18
ENDBRANCH   4  17
TORSDOF 7
