REMARK  Name = ZINC06031149
REMARK  14 active torsions:
REMARK  status: ('A' for Active; 'I' for Inactive)
REMARK    1  A    between atoms: C_1  and  C_2
REMARK    2  A    between atoms: C_6  and  C_19
REMARK    3  A    between atoms: C_6  and  C_20
REMARK    4  A    between atoms: C_8  and  C_10
REMARK    5  A    between atoms: C_10  and  N_11
REMARK    6  A    between atoms: C_12  and  O_14
REMARK    7  A    between atoms: O_14  and  N_15
REMARK    8  A    between atoms: C_16  and  C_17
REMARK    9  A    between atoms: C_16  and  C_18
REMARK   10  A    between atoms: C_20  and  N_21
REMARK   11  A    between atoms: C_22  and  O_24
REMARK   12  A    between atoms: O_24  and  N_25
REMARK   13  A    between atoms: C_26  and  C_27
REMARK   14  A    between atoms: C_26  and  C_28
REMARK                            x       y       z     vdW  Elec       q    Type
REMARK                         _______ _______ _______ _____ _____    ______ ____
ROOT
ATOM      1  C   UNL     1       5.832   3.232   6.528  0.00  0.00    +0.008 C 
ATOM      2  C   UNL     1       6.019   1.801   6.020  0.00  0.00    -0.009 C 
ATOM      3  C   UNL     1       7.512   1.511   5.850  0.00  0.00    +0.004 C 
ATOM      4  C   UNL     1       8.110   2.493   4.840  0.00  0.00    +0.008 C 
ATOM      5  C   UNL     1       7.402   2.333   3.493  0.00  0.00    -0.016 C 
ATOM      6  C   UNL     1       5.910   2.622   3.663  0.00  0.00    +0.013 C 
ATOM      7  C   UNL     1       5.312   1.641   4.673  0.00  0.00    +0.010 C 
ATOM      8  C   UNL     1       7.590   0.902   2.986  0.00  0.00    +0.013 C 
ENDROOT
BRANCH   7   9
ATOM      9  C   UNL     1       3.819   1.930   4.843  0.00  0.00    +0.111 C 
BRANCH   9  10
ATOM     10  N   UNL     1       3.123   1.662   3.583  0.00  0.00    -0.279 N 
ATOM     11  C   UNL     1       1.791   1.848   3.495  0.00  0.00    +0.426 C 
ATOM     12  O   UNL     1       1.167   2.239   4.463  0.00  0.00    -0.224 OA
ATOM     13  H   UNL     1       3.620   1.350   2.811  0.00  0.00    +0.152 HD
BRANCH  11  14
ATOM     14  O   UNL     1       1.151   1.601   2.337  0.00  0.00    -0.299 OA
BRANCH  14  15
ATOM     15  N   UNL     1      -0.053   1.788   2.319  0.00  0.00    -0.083 NA
ATOM     16  C   UNL     1      -0.718   1.572   1.248  0.00  0.00    +0.052 C 
ATOM     17  C   UNL     1      -0.013   1.086   0.008  0.00  0.00    +0.064 C 
ATOM     18  C   UNL     1      -2.207   1.803   1.226  0.00  0.00    +0.064 C 
ENDBRANCH  14  15
ENDBRANCH  11  14
ENDBRANCH   9  10
ENDBRANCH   7   9
BRANCH   5  19
ATOM     19  C   UNL     1       8.000   3.314   2.483  0.00  0.00    +0.114 C 
BRANCH  19  20
ATOM     20  N   UNL     1       9.430   3.037   2.321  0.00  0.00    -0.279 N 
ATOM     21  C   UNL     1      10.168   3.782   1.474  0.00  0.00    +0.426 C 
ATOM     22  O   UNL     1       9.649   4.684   0.847  0.00  0.00    -0.224 OA
ATOM     23  H   UNL     1       9.844   2.318   2.822  0.00  0.00    +0.152 HD
BRANCH  21  24
ATOM     24  O   UNL     1      11.482   3.527   1.325  0.00  0.00    -0.299 OA
BRANCH  24  25
ATOM     25  N   UNL     1      12.097   4.234   0.546  0.00  0.00    -0.083 NA
ATOM     26  C   UNL     1      13.348   4.042   0.360  0.00  0.00    +0.052 C 
ATOM     27  C   UNL     1      14.061   2.942   1.104  0.00  0.00    +0.064 C 
ATOM     28  C   UNL     1      14.109   4.916  -0.603  0.00  0.00    +0.064 C 
ENDBRANCH  24  25
ENDBRANCH  21  24
ENDBRANCH  19  20
ENDBRANCH   5  19
TORSDOF 8
