REMARK  Name = ZINC29974589
REMARK  11 active torsions:
REMARK  status: ('A' for Active; 'I' for Inactive)
REMARK    1  A    between atoms: C_1  and  C_2
REMARK    2  A    between atoms: C_2  and  N_3
REMARK    3  A    between atoms: C_6  and  N_9
REMARK    4  A    between atoms: C_10  and  C_12
REMARK    5  A    between atoms: C_12  and  N_13
REMARK    6  A    between atoms: C_16  and  C_20
REMARK    7  A    between atoms: C_16  and  C_21
REMARK    8  A    between atoms: C_24  and  C_27
REMARK    9  A    between atoms: C_27  and  C_28
REMARK   10  A    between atoms: C_27  and  C_29
REMARK   11  A    between atoms: C_27  and  C_30
REMARK                            x       y       z     vdW  Elec       q    Type
REMARK                         _______ _______ _______ _____ _____    ______ ____
ROOT
ATOM      1  N   UNL     1       2.407   1.043  -0.015  0.00  0.00    -0.215 N 
ATOM      2  C   UNL     1       3.003   0.557   1.091  0.00  0.00    +0.251 C 
ATOM      3  O   UNL     1       2.719   0.803   2.244  0.00  0.00    -0.272 OA
ATOM      4  C   UNL     1       4.101  -0.363   0.595  0.00  0.00    +0.135 C 
ATOM      5  N   UNL     1       3.990  -0.274  -0.871  0.00  0.00    -0.281 N 
ATOM      6  C   UNL     1       2.974   0.569  -1.130  0.00  0.00    +0.310 C 
ATOM      7  O   UNL     1       2.612   0.867  -2.252  0.00  0.00    -0.252 OA
ATOM      8  C   UNL     1       5.470   0.134   1.062  0.00  0.00    +0.047 C 
ATOM      9  H   UNL     1       4.678  -0.848  -1.510  0.00  0.00    +0.152 HD
ENDROOT
BRANCH   4  10
ATOM     10  C   UNL     1       3.864  -1.776   1.060  0.00  0.00    -0.015 A 
ATOM     11  C   UNL     1       3.292  -2.011   2.297  0.00  0.00    +0.006 A 
ATOM     12  C   UNL     1       3.072  -3.307   2.722  0.00  0.00    +0.004 A 
ATOM     13  C   UNL     1       3.431  -4.370   1.915  0.00  0.00    -0.042 A 
ATOM     14  C   UNL     1       4.007  -4.136   0.680  0.00  0.00    +0.004 A 
ATOM     15  C   UNL     1       4.224  -2.839   0.253  0.00  0.00    +0.006 A 
BRANCH  13  16
ATOM     16  C   UNL     1       3.195  -5.784   2.380  0.00  0.00    -0.013 C 
ATOM     17  C   UNL     1       4.530  -6.528   2.448  0.00  0.00    +0.015 C 
ATOM     18  C   UNL     1       2.551  -5.763   3.768  0.00  0.00    +0.015 C 
ATOM     19  C   UNL     1       2.264  -6.496   1.397  0.00  0.00    +0.015 C 
ENDBRANCH  13  16
ENDBRANCH   4  10
BRANCH   1  20
ATOM     20  C   UNL     1       1.280   1.980   0.001  0.00  0.00    +0.213 C 
BRANCH  20  22
ATOM     21  N   UNL     1      -1.191   1.867   0.018  0.00  0.00    -0.311 N 
ATOM     22  C   UNL     1      -0.014   1.209   0.009  0.00  0.00    +0.231 C 
ATOM     23  O   UNL     1       0.002  -0.004   0.002  0.00  0.00    -0.274 OA
ATOM     24  H   UNL     1      -1.206   2.966   0.024  0.00  0.00    +0.149 HD
BRANCH  21  28
ATOM     25  N   UNL     1      -5.204   0.893  -0.816  0.00  0.00    +0.380 N 
ATOM     26  C   UNL     1      -4.880   1.212   0.580  0.00  0.00    -0.077 C 
ATOM     27  C   UNL     1      -3.556   1.977   0.637  0.00  0.00    +0.003 C 
ATOM     28  C   UNL     1      -2.449   1.117   0.020  0.00  0.00    +0.069 C 
ATOM     29  C   UNL     1      -2.833   0.757  -1.418  0.00  0.00    +0.003 C 
ATOM     30  C   UNL     1      -4.179   0.029  -1.415  0.00  0.00    -0.077 C 
ATOM     31  H   UNL     1      -5.219   1.838  -1.380  0.00  0.00    -0.082 HD
BRANCH  25  33
ATOM     32  C   UNL     1      -6.941   0.193  -2.394  0.00  0.00    -0.017 C 
ATOM     33  C   UNL     1      -6.536   0.282  -0.921  0.00  0.00    -0.082 C 
ENDBRANCH  25  33
ENDBRANCH  21  28
ENDBRANCH  20  22
ENDBRANCH   1  20
TORSDOF 6
