REMARK  Name = ZINC65696020
REMARK  5 active torsions:
REMARK  status: ('A' for Active; 'I' for Inactive)
REMARK    1  A    between atoms: C_1  and  C_2
REMARK    2  A    between atoms: C_3  and  C_23
REMARK    3  A    between atoms: C_9  and  C_12
REMARK    4  A    between atoms: C_12  and  N_13
REMARK    5  A    between atoms: C_20  and  C_22
REMARK                            x       y       z     vdW  Elec       q    Type
REMARK                         _______ _______ _______ _____ _____    ______ ____
ROOT
ATOM      1  C   UNL     1      -0.021   1.508   0.012  0.00  0.00    +0.046 C 
ATOM      2  C   UNL     1       0.000   0.001   0.003  0.00  0.00    -0.022 A 
ATOM      3  C   UNL     1       0.007  -0.791  -1.081  0.00  0.00    +0.017 A 
ATOM      4  N   UNL     1       0.028  -2.105  -0.699  0.00  0.00    -0.358 N 
ATOM      5  H   UNL     1       0.036  -2.861  -1.306  0.00  0.00    +0.166 HD
ATOM      6  C   UNL     1       0.035  -2.192   0.675  0.00  0.00    +0.047 A 
ATOM      7  C   UNL     1       0.024  -0.877   1.175  0.00  0.00    +0.003 A 
ATOM      8  C   UNL     1       0.034  -0.656   2.553  0.00  0.00    +0.015 A 
ATOM      9  C   UNL     1       0.057  -1.719   3.411  0.00  0.00    -0.030 A 
ATOM     10  C   UNL     1       0.072  -3.018   2.923  0.00  0.00    +0.007 A 
ATOM     11  C   UNL     1       0.053  -3.260   1.566  0.00  0.00    +0.026 A 
ATOM     12  C   UNL     1      -0.006  -0.305  -2.508  0.00  0.00    +0.063 C 
ENDROOT
BRANCH   9  13
ATOM     13  C   UNL     1       0.068  -1.480   4.899  0.00  0.00    +0.141 C 
BRANCH  13  14
ATOM     14  N   UNL     1      -1.310  -1.422   5.394  0.00  0.00    -0.295 N 
ATOM     15  C   UNL     1      -1.547  -1.215   6.704  0.00  0.00    +0.302 C 
ATOM     16  O   UNL     1      -0.620  -1.168   7.489  0.00  0.00    -0.253 OA
ATOM     17  N   UNL     1      -2.812  -1.060   7.144  0.00  0.00    -0.285 N 
ATOM     18  C   UNL     1      -3.949  -1.229   6.229  0.00  0.00    +0.109 C 
ATOM     19  C   UNL     1      -4.828   0.023   6.298  0.00  0.00    +0.019 C 
ATOM     20  C   UNL     1      -5.226   0.283   7.753  0.00  0.00    +0.006 C 
ATOM     21  C   UNL     1      -3.969   0.528   8.591  0.00  0.00    +0.003 C 
ATOM     22  C   UNL     1      -3.080  -0.724   8.549  0.00  0.00    +0.112 C 
ATOM     23  C   UNL     1      -4.369   0.820  10.038  0.00  0.00    +0.009 C 
ATOM     24  H   UNL     1      -2.052  -1.533   4.778  0.00  0.00    +0.151 HD
ENDBRANCH  13  14
ENDBRANCH   9  13
TORSDOF 2
