REMARK  Name = ZINC45677220
REMARK  4 active torsions:
REMARK  status: ('A' for Active; 'I' for Inactive)
REMARK    1  A    between atoms: C_1  and  C_2
REMARK    2  A    between atoms: C_5  and  C_7
REMARK    3  A    between atoms: C_7  and  N_8
REMARK    4  A    between atoms: C_19  and  C_21
REMARK                            x       y       z     vdW  Elec       q    Type
REMARK                         _______ _______ _______ _____ _____    ______ ____
ROOT
ATOM      1  N   UNL     1       1.995  -6.572  -0.649  0.00  0.00    -0.295 N 
ATOM      2  C   UNL     1       1.680  -5.747  -1.667  0.00  0.00    +0.303 C 
ATOM      3  O   UNL     1       1.173  -4.666  -1.439  0.00  0.00    -0.253 OA
ATOM      4  N   UNL     1       1.928  -6.120  -2.939  0.00  0.00    -0.278 N 
ATOM      5  C   UNL     1       1.695  -5.185  -4.049  0.00  0.00    +0.115 C 
ATOM      6  C   UNL     1       3.047  -4.869  -4.705  0.00  0.00    +0.062 C 
ATOM      7  C   UNL     1       3.823  -6.139  -4.839  0.00  0.00    -0.004 A 
ATOM      8  C   UNL     1       3.603  -7.324  -4.207  0.00  0.00    -0.017 A 
ATOM      9  C   UNL     1       4.484  -8.363  -4.502  0.00  0.00    +0.013 A 
ATOM     10  C   UNL     1       5.492  -8.167  -5.382  0.00  0.00    +0.046 A 
ATOM     11  S   UNL     1       5.243  -6.461  -5.852  0.00  0.00    -0.101 S 
ATOM     12  C   UNL     1       2.440  -7.465  -3.234  0.00  0.00    +0.105 C 
ATOM     13  C   UNL     1       1.336  -8.311  -3.872  0.00  0.00    +0.033 C 
ATOM     14  H   UNL     1       2.330  -7.463  -0.834  0.00  0.00    +0.151 HD
ENDROOT
BRANCH   1  15
ATOM     15  C   UNL     1       1.830  -6.123   0.735  0.00  0.00    +0.148 C 
BRANCH  15  20
ATOM     16  C   UNL     1       2.458 -10.551   4.212  0.00  0.00    +0.051 C 
ATOM     17  C   UNL     1       2.548  -9.333   3.330  0.00  0.00    -0.013 A 
ATOM     18  C   UNL     1       3.625  -8.558   3.051  0.00  0.00    +0.011 A 
ATOM     19  C   UNL     1       3.471  -7.478   2.202  0.00  0.00    +0.013 A 
ATOM     20  C   UNL     1       2.249  -7.225   1.674  0.00  0.00    +0.007 A 
ATOM     21  S   UNL     1       1.265  -8.541   2.373  0.00  0.00    -0.097 S 
ENDBRANCH  15  20
ENDBRANCH   1  15
TORSDOF 2
