REMARK  Name = ZINC36628557
REMARK  8 active torsions:
REMARK  status: ('A' for Active; 'I' for Inactive)
REMARK    1  A    between atoms: C_1  and  C_2
REMARK    2  A    between atoms: C_2  and  C_3
REMARK    3  A    between atoms: C_3  and  N_4
REMARK    4  A    between atoms: C_10  and  N_16
REMARK    5  A    between atoms: C_11  and  C_12
REMARK    6  A    between atoms: C_12  and  O_14
REMARK    7  A    between atoms: O_14  and  C_15
REMARK    8  A    between atoms: C_17  and  C_19
REMARK                            x       y       z     vdW  Elec       q    Type
REMARK                         _______ _______ _______ _____ _____    ______ ____
ROOT
ATOM      1  N   UNL     1       0.738  -1.966  -1.265  0.00  0.00    +0.383 N 
ATOM      2  C   UNL     1       1.532  -2.438  -2.407  0.00  0.00    -0.074 C 
ATOM      3  C   UNL     1       1.827  -3.935  -2.263  0.00  0.00    +0.018 C 
ATOM      4  C   UNL     1       0.507  -4.650  -2.013  0.00  0.00    -0.025 A 
ATOM      5  C   UNL     1      -0.580  -3.951  -1.616  0.00  0.00    -0.021 A 
ATOM      6  S   UNL     1      -1.856  -5.162  -1.455  0.00  0.00    -0.079 S 
ATOM      7  C   UNL     1      -1.000  -6.541  -1.889  0.00  0.00    +0.086 A 
ATOM      8  C   UNL     1       0.279  -6.074  -2.162  0.00  0.00    +0.091 A 
ATOM      9  C   UNL     1      -0.641  -2.475  -1.376  0.00  0.00    -0.035 C 
ATOM     10  H   UNL     1       1.152  -2.301  -0.408  0.00  0.00    -0.081 HD
ENDROOT
BRANCH   7  11
ATOM     11  N   UNL     1      -1.463  -7.845  -1.957  0.00  0.00    -0.279 N 
ATOM     12  C   UNL     1      -2.747  -8.121  -1.653  0.00  0.00    +0.224 C 
ATOM     13  O   UNL     1      -3.497  -7.228  -1.321  0.00  0.00    -0.275 OA
ATOM     14  H   UNL     1      -0.864  -8.560  -2.223  0.00  0.00    +0.155 HD
BRANCH  12  15
ATOM     15  C   UNL     1      -3.251  -9.539  -1.728  0.00  0.00    +0.048 C 
ATOM     16  C   UNL     1      -2.447 -10.417  -0.766  0.00  0.00    +0.019 C 
ATOM     17  C   UNL     1      -2.959 -11.857  -0.842  0.00  0.00    -0.009 C 
ATOM     18  C   UNL     1      -4.438 -11.894  -0.451  0.00  0.00    +0.007 C 
ATOM     19  C   UNL     1      -5.242 -11.016  -1.412  0.00  0.00    -0.009 C 
ATOM     20  C   UNL     1      -4.730  -9.576  -1.337  0.00  0.00    +0.019 C 
ATOM     21  C   UNL     1      -5.078 -11.541  -2.840  0.00  0.00    +0.007 C 
ATOM     22  C   UNL     1      -3.599 -11.505  -3.231  0.00  0.00    -0.009 C 
ATOM     23  C   UNL     1      -2.796 -12.382  -2.270  0.00  0.00    +0.007 C 
ATOM     24  C   UNL     1      -3.088 -10.065  -3.156  0.00  0.00    +0.019 C 
ENDBRANCH  12  15
ENDBRANCH   7  11
BRANCH   8  25
ATOM     25  C   UNL     1       1.349  -6.980  -2.584  0.00  0.00    +0.342 C 
ATOM     26  O   UNL     1       2.064  -7.505  -1.752  0.00  0.00    -0.245 OA
BRANCH  25  27
ATOM     27  O   UNL     1       1.542  -7.232  -3.895  0.00  0.00    -0.464 OA
ATOM     28  C   UNL     1       2.605  -8.125  -4.234  0.00  0.00    +0.280 C 
ENDBRANCH  25  27
ENDBRANCH   8  25
BRANCH   1  29
ATOM     29  C   UNL     1       0.718  -0.497  -1.257  0.00  0.00    -0.079 C 
BRANCH  29  31
ATOM     30  C   UNL     1      -0.019   1.526   0.010  0.00  0.00    +0.002 C 
ATOM     31  C   UNL     1       0.002  -0.004   0.002  0.00  0.00    -0.022 C 
ENDBRANCH  29  31
ENDBRANCH   1  29
TORSDOF 6
