REMARK  Name = ZINC13032348
REMARK  15 active torsions:
REMARK  status: ('A' for Active; 'I' for Inactive)
REMARK    1  A    between atoms: C_1  and  C_2
REMARK    2  A    between atoms: C_2  and  C_3
REMARK    3  A    between atoms: C_3  and  C_4
REMARK    4  A    between atoms: C_3  and  C_5
REMARK    5  A    between atoms: C_3  and  N_6
REMARK    6  A    between atoms: C_7  and  C_9
REMARK    7  A    between atoms: C_9  and  C_11
REMARK    8  A    between atoms: C_9  and  N_18
REMARK    9  A    between atoms: C_14  and  O_17
REMARK   10  A    between atoms: N_18  and  C_19
REMARK   11  A    between atoms: C_21  and  C_27
REMARK   12  A    between atoms: C_24  and  O_25
REMARK   13  A    between atoms: O_25  and  C_26
REMARK   14  A    between atoms: C_28  and  C_30
REMARK   15  A    between atoms: C_30  and  N_31
REMARK                            x       y       z     vdW  Elec       q    Type
REMARK                         _______ _______ _______ _____ _____    ______ ____
ROOT
ATOM      1  N   UNL     1      -5.432   3.517  -1.591  0.00  0.00    -0.250 N 
ATOM      2  C   UNL     1      -4.231   4.098  -1.398  0.00  0.00    +0.242 C 
ATOM      3  O   UNL     1      -3.558   4.430  -2.351  0.00  0.00    -0.273 OA
ENDROOT
BRANCH   1   4
ATOM      4  C   UNL     1      -6.209   3.133  -0.490  0.00  0.00    +0.079 A 
ATOM      5  C   UNL     1      -7.091   4.035   0.088  0.00  0.00    +0.030 A 
ATOM      6  C   UNL     1      -7.861   3.652   1.170  0.00  0.00    -0.048 A 
ATOM      7  C   UNL     1      -7.746   2.375   1.687  0.00  0.00    +0.007 A 
ATOM      8  C   UNL     1      -6.865   1.472   1.120  0.00  0.00    +0.048 A 
ATOM      9  C   UNL     1      -6.095   1.847   0.031  0.00  0.00    +0.141 A 
ATOM     10  C   UNL     1      -8.822   4.632   1.792  0.00  0.00    +0.044 C 
BRANCH   9  11
ATOM     11  O   UNL     1      -5.228   0.960  -0.528  0.00  0.00    -0.493 OA
ATOM     12  C   UNL     1      -5.163  -0.342   0.059  0.00  0.00    +0.277 C 
ENDBRANCH   9  11
ENDBRANCH   1   4
BRANCH   1  13
ATOM     13  C   UNL     1      -5.925   3.288  -2.951  0.00  0.00    +0.197 C 
BRANCH  13  14
ATOM     14  C   UNL     1      -6.309   1.839  -3.109  0.00  0.00    -0.018 A 
ATOM     15  C   UNL     1      -5.588   1.024  -3.962  0.00  0.00    +0.009 A 
ATOM     16  C   UNL     1      -5.934  -0.306  -4.104  0.00  0.00    +0.046 A 
ATOM     17  C   UNL     1      -7.013  -0.820  -3.399  0.00  0.00    +0.117 A 
ATOM     18  C   UNL     1      -7.738   0.002  -2.548  0.00  0.00    +0.046 A 
ATOM     19  C   UNL     1      -7.384   1.329  -2.405  0.00  0.00    +0.009 A 
BRANCH  17  20
ATOM     20  O   UNL     1      -7.359  -2.127  -3.542  0.00  0.00    -0.507 OA
ATOM     21  H   UNL     1      -7.998  -2.289  -4.250  0.00  0.00    +0.292 HD
ENDBRANCH  17  20
ENDBRANCH  13  14
BRANCH  13  23
ATOM     22  N   UNL     1      -7.756   4.114  -4.395  0.00  0.00    -0.308 N 
ATOM     23  C   UNL     1      -7.131   4.157  -3.202  0.00  0.00    +0.239 C 
ATOM     24  O   UNL     1      -7.538   4.895  -2.330  0.00  0.00    -0.273 OA
ATOM     25  H   UNL     1      -7.431   3.523  -5.092  0.00  0.00    +0.149 HD
BRANCH  22  26
ATOM     26  C   UNL     1      -8.928   4.958  -4.638  0.00  0.00    +0.029 C 
ATOM     27  C   UNL     1     -10.027   4.609  -3.632  0.00  0.00    +0.031 C 
ATOM     28  C   UNL     1      -8.539   6.429  -4.478  0.00  0.00    +0.031 C 
BRANCH  26  30
ATOM     29  C   UNL     1     -10.667   5.601  -6.314  0.00  0.00    +0.006 C 
ATOM     30  C   UNL     1      -9.443   4.719  -6.059  0.00  0.00    +0.022 C 
ENDBRANCH  26  30
ENDBRANCH  22  26
ENDBRANCH  13  23
ENDBRANCH   1  13
BRANCH   2  31
ATOM     31  C   UNL     1      -3.724   4.334   0.001  0.00  0.00    +0.242 C 
BRANCH  31  32
ATOM     32  N   UNL     1      -2.407   4.972  -0.058  0.00  0.00    -0.235 N 
ATOM     33  C   UNL     1      -1.187   4.340  -0.099  0.00  0.00    +0.090 A 
ATOM     34  C   UNL     1      -0.789   3.007  -0.104  0.00  0.00    +0.029 A 
ATOM     35  C   UNL     1       0.540   2.695  -0.147  0.00  0.00    +0.002 A 
ATOM     36  C   UNL     1       1.500   3.697  -0.197  0.00  0.00    +0.002 A 
ATOM     37  C   UNL     1       1.136   5.012  -0.197  0.00  0.00    +0.032 A 
ATOM     38  C   UNL     1      -0.221   5.359  -0.148  0.00  0.00    +0.113 A 
ATOM     39  N   UNL     1      -0.871   6.540  -0.136  0.00  0.00    -0.129 NA
ATOM     40  N   UNL     1      -2.142   6.349  -0.084  0.00  0.00    -0.064 NA
ENDBRANCH  31  32
ENDBRANCH   2  31
TORSDOF 10
