REMARK  Name = ZINC63161403
REMARK  8 active torsions:
REMARK  status: ('A' for Active; 'I' for Inactive)
REMARK    1  A    between atoms: C_1  and  N_2
REMARK    2  A    between atoms: N_2  and  C_3
REMARK    3  A    between atoms: N_2  and  C_4
REMARK    4  A    between atoms: C_4  and  C_5
REMARK    5  A    between atoms: C_4  and  C_22
REMARK    6  A    between atoms: C_5  and  N_6
REMARK    7  A    between atoms: N_9  and  C_10
REMARK    8  A    between atoms: C_12  and  C_18
REMARK                            x       y       z     vdW  Elec       q    Type
REMARK                         _______ _______ _______ _____ _____    ______ ____
ROOT
ATOM      1  N   UNL     1      -0.929  -1.719  -0.447  0.00  0.00    -0.300 N 
ATOM      2  C   UNL     1      -1.364  -2.974  -0.221  0.00  0.00    +0.304 C 
ATOM      3  O   UNL     1      -0.569  -3.854   0.047  0.00  0.00    -0.253 OA
ATOM      4  N   UNL     1      -2.680  -3.254  -0.292  0.00  0.00    -0.265 N 
ATOM      5  H   UNL     1      -1.563  -1.017  -0.661  0.00  0.00    +0.150 HD
ATOM      6  H   UNL     1      -3.307  -2.570  -0.575  0.00  0.00    +0.157 HD
ENDROOT
BRANCH   4   7
ATOM      7  C   UNL     1      -3.144  -4.535   0.041  0.00  0.00    +0.100 A 
ATOM      8  C   UNL     1      -4.057  -4.701   1.046  0.00  0.00    +0.042 A 
ATOM      9  C   UNL     1      -4.504  -5.992   1.359  0.00  0.00    +0.073 A 
ATOM     10  C   UNL     1      -4.033  -7.057   0.671  0.00  0.00    +0.098 A 
ATOM     11  N   UNL     1      -3.125  -6.894  -0.328  0.00  0.00    -0.327 N 
ATOM     12  H   UNL     1      -2.799  -7.670  -0.811  0.00  0.00    +0.168 HD
ATOM     13  C   UNL     1      -2.678  -5.668  -0.660  0.00  0.00    +0.270 A 
ATOM     14  O   UNL     1      -1.867  -5.537  -1.563  0.00  0.00    -0.266 OA
BRANCH   9  15
ATOM     15  C   UNL     1      -5.509  -6.194   2.464  0.00  0.00    +0.419 C 
ATOM     16  F   UNL     1      -5.798  -7.558   2.588  0.00  0.00    -0.166 F 
ATOM     17  F   UNL     1      -4.980  -5.718   3.668  0.00  0.00    -0.166 F 
ATOM     18  F   UNL     1      -6.682  -5.495   2.160  0.00  0.00    -0.166 F 
ENDBRANCH   9  15
ENDBRANCH   4   7
BRANCH   1  19
ATOM     19  C   UNL     1       0.502  -1.414  -0.369  0.00  0.00    +0.095 C 
BRANCH  19  20
ATOM     20  C   UNL     1       0.737   0.039  -0.786  0.00  0.00    -0.021 C 
BRANCH  20  21
ATOM     21  C   UNL     1       0.363   0.213  -2.235  0.00  0.00    -0.059 A 
ATOM     22  C   UNL     1       1.241  -0.183  -3.227  0.00  0.00    +0.005 A 
ATOM     23  C   UNL     1       0.899  -0.024  -4.557  0.00  0.00    +0.038 A 
ATOM     24  C   UNL     1      -0.323   0.532  -4.895  0.00  0.00    +0.123 A 
ATOM     25  C   UNL     1      -1.201   0.928  -3.901  0.00  0.00    +0.038 A 
ATOM     26  C   UNL     1      -0.859   0.764  -2.572  0.00  0.00    +0.005 A 
ATOM     27  F   UNL     1      -0.658   0.688  -6.195  0.00  0.00    -0.205 F 
ENDBRANCH  20  21
BRANCH  20  29
ATOM     28  C   UNL     1       2.389   1.760  -1.042  0.00  0.00    -0.096 C 
ATOM     29  N   UNL     1       2.155   0.378  -0.602  0.00  0.00    +0.382 N 
ATOM     30  C   UNL     1       2.508   0.250   0.818  0.00  0.00    -0.096 C 
ATOM     31  H   UNL     1       2.724  -0.251  -1.148  0.00  0.00    -0.082 HD
ENDBRANCH  20  29
ENDBRANCH  19  20
ENDBRANCH   1  19
TORSDOF 6
