REMARK  Name = ZINC33086434
REMARK  11 active torsions:
REMARK  status: ('A' for Active; 'I' for Inactive)
REMARK    1  A    between atoms: C_1  and  C_2
REMARK    2  A    between atoms: C_5  and  C_33
REMARK    3  A    between atoms: C_6  and  C_8
REMARK    4  A    between atoms: C_8  and  N_9
REMARK    5  A    between atoms: C_12  and  C_15
REMARK    6  A    between atoms: C_15  and  N_16
REMARK    7  A    between atoms: N_16  and  S_17
REMARK    8  A    between atoms: S_17  and  C_20
REMARK    9  A    between atoms: C_22  and  C_27
REMARK   10  A    between atoms: C_25  and  C_26
REMARK   11  A    between atoms: C_29  and  C_32
REMARK                            x       y       z     vdW  Elec       q    Type
REMARK                         _______ _______ _______ _____ _____    ______ ____
ROOT
ATOM      1  N   UNL     1      -1.142   0.803  -3.058  0.00  0.00    -0.190 NA
ATOM      2  H   UNL     1      -2.113   0.538  -3.503  0.00  0.00    +0.148 HD
ENDROOT
BRANCH   1   3
ATOM      3  S   UNL     1       0.074  -0.321  -3.042  0.00  0.00    +0.059 S 
ATOM      4  O   UNL     1       1.281   0.383  -3.301  0.00  0.00    -0.153 OA
ATOM      5  O   UNL     1      -0.364  -1.405  -3.849  0.00  0.00    -0.153 OA
BRANCH   3   6
ATOM      6  C   UNL     1       0.193  -0.935  -1.395  0.00  0.00    +0.109 A 
ATOM      7  C   UNL     1       1.347  -0.732  -0.665  0.00  0.00    +0.040 A 
ATOM      8  C   UNL     1       1.442  -1.223   0.635  0.00  0.00    +0.024 A 
ATOM      9  C   UNL     1       0.368  -1.913   1.194  0.00  0.00    +0.012 A 
ATOM     10  C   UNL     1      -0.784  -2.106   0.457  0.00  0.00    +0.006 A 
ATOM     11  C   UNL     1      -0.872  -1.616  -0.833  0.00  0.00    -0.024 A 
ATOM     12  C   UNL     1      -2.132  -1.830  -1.633  0.00  0.00    +0.046 C 
BRANCH   8  13
ATOM     13  C   UNL     1       2.682  -1.012   1.422  0.00  0.00    +0.202 A 
ATOM     14  N   UNL     1       2.911  -1.432   2.687  0.00  0.00    -0.192 NA
ATOM     15  C   UNL     1       4.123  -1.030   2.977  0.00  0.00    +0.225 A 
ATOM     16  O   UNL     1       4.593  -0.389   1.903  0.00  0.00    -0.338 OA
ATOM     17  N   UNL     1       3.760  -0.391   1.021  0.00  0.00    -0.056 NA
ATOM     18  C   UNL     1       4.852  -1.250   4.278  0.00  0.00    +0.112 C 
ENDBRANCH   8  13
ENDBRANCH   3   6
ENDBRANCH   1   3
BRANCH   1  19
ATOM     19  C   UNL     1      -1.000   2.048  -2.299  0.00  0.00    +0.109 C 
BRANCH  19  23
ATOM     20  N   UNL     1      -2.754   5.660  -3.763  0.00  0.00    +0.382 N 
ATOM     21  C   UNL     1      -3.034   5.316  -2.363  0.00  0.00    -0.078 C 
ATOM     22  C   UNL     1      -2.002   4.298  -1.871  0.00  0.00    -0.014 C 
ATOM     23  C   UNL     1      -2.070   3.045  -2.748  0.00  0.00    +0.001 C 
ATOM     24  C   UNL     1      -1.823   3.439  -4.207  0.00  0.00    -0.014 C 
ATOM     25  C   UNL     1      -2.860   4.481  -4.631  0.00  0.00    -0.078 C 
ATOM     26  H   UNL     1      -1.718   6.025  -3.817  0.00  0.00    -0.081 HD
BRANCH  20  27
ATOM     27  C   UNL     1      -3.639   6.737  -4.227  0.00  0.00    -0.043 C 
BRANCH  27  33
ATOM     28  C   UNL     1      -3.802   7.337  -9.192  0.00  0.00    +0.044 C 
ATOM     29  C   UNL     1      -3.154   7.628  -7.863  0.00  0.00    -0.050 A 
ATOM     30  C   UNL     1      -2.045   8.451  -7.800  0.00  0.00    +0.003 A 
ATOM     31  C   UNL     1      -1.451   8.718  -6.581  0.00  0.00    +0.004 A 
ATOM     32  C   UNL     1      -1.970   8.168  -5.424  0.00  0.00    -0.049 A 
ATOM     33  C   UNL     1      -3.076   7.341  -5.487  0.00  0.00    -0.061 A 
ATOM     34  C   UNL     1      -3.670   7.074  -6.707  0.00  0.00    +0.005 A 
ATOM     35  C   UNL     1      -1.327   8.465  -4.094  0.00  0.00    +0.044 C 
ENDBRANCH  27  33
ENDBRANCH  20  27
ENDBRANCH  19  23
ENDBRANCH   1  19
TORSDOF 7
