REMARK  Name = ZINC10108690
REMARK  11 active torsions:
REMARK  status: ('A' for Active; 'I' for Inactive)
REMARK    1  A    between atoms: C_1  and  C_2
REMARK    2  A    between atoms: C_2  and  O_3
REMARK    3  A    between atoms: O_3  and  C_4
REMARK    4  A    between atoms: C_9  and  N_10
REMARK    5  A    between atoms: C_11  and  C_35
REMARK    6  A    between atoms: N_20  and  C_25
REMARK    7  A    between atoms: N_23  and  C_24
REMARK    8  A    between atoms: C_25  and  C_26
REMARK    9  A    between atoms: C_26  and  C_27
REMARK   10  A    between atoms: C_27  and  N_69
REMARK   11  A    between atoms: C_32  and  C_34
REMARK                            x       y       z     vdW  Elec       q    Type
REMARK                         _______ _______ _______ _____ _____    ______ ____
ROOT
ATOM      1  N   UNL     1       1.846  -1.670  -0.373  0.00  0.00    -0.279 N 
ATOM      2  C   UNL     1       3.178  -1.297  -0.351  0.00  0.00    +0.041 A 
ATOM      3  C   UNL     1       3.236   0.031  -0.300  0.00  0.00    +0.116 A 
ATOM      4  N   UNL     1       1.943   0.524  -0.290  0.00  0.00    -0.277 N 
ATOM      5  C   UNL     1       1.090  -0.526  -0.334  0.00  0.00    +0.223 A 
ATOM      6  N   UNL     1      -0.157  -0.077  -0.325  0.00  0.00    -0.193 NA
ATOM      7  C   UNL     1      -0.160   1.252  -0.274  0.00  0.00    +0.170 A 
ATOM      8  C   UNL     1       1.169   1.674  -0.251  0.00  0.00    +0.157 A 
ATOM      9  C   UNL     1       1.449   3.049  -0.197  0.00  0.00    +0.283 A 
ATOM     10  O   UNL     1       2.603   3.442  -0.176  0.00  0.00    -0.265 OA
ATOM     11  N   UNL     1       0.429   3.931  -0.169  0.00  0.00    -0.259 N 
ATOM     12  C   UNL     1      -0.849   3.515  -0.192  0.00  0.00    +0.333 A 
ATOM     13  O   UNL     1      -1.742   4.340  -0.165  0.00  0.00    -0.246 OA
ATOM     14  N   UNL     1      -1.165   2.208  -0.249  0.00  0.00    -0.279 N 
ATOM     15  C   UNL     1      -2.570   1.794  -0.280  0.00  0.00    +0.155 C 
ATOM     16  C   UNL     1       4.358  -2.233  -0.379  0.00  0.00    +0.065 C 
ENDROOT
BRANCH   1  22
ATOM     17  C   UNL     1       1.111  -3.684   0.753  0.00  0.00    +0.144 A 
ATOM     18  C   UNL     1       0.623  -4.979   0.695  0.00  0.00    +0.048 A 
ATOM     19  C   UNL     1       0.390  -5.576  -0.530  0.00  0.00    +0.004 A 
ATOM     20  C   UNL     1       0.639  -4.882  -1.700  0.00  0.00    +0.002 A 
ATOM     21  C   UNL     1       1.121  -3.588  -1.651  0.00  0.00    +0.030 A 
ATOM     22  C   UNL     1       1.357  -2.982  -0.425  0.00  0.00    +0.091 A 
BRANCH  17  23
ATOM     23  O   UNL     1       1.345  -3.097   1.957  0.00  0.00    -0.490 OA
BRANCH  23  25
ATOM     24  C   UNL     1       1.393  -3.055   4.373  0.00  0.00    +0.048 C 
ATOM     25  C   UNL     1       1.070  -3.876   3.123  0.00  0.00    +0.226 C 
ENDBRANCH  23  25
ENDBRANCH  17  23
ENDBRANCH   1  22
BRANCH  11  26
ATOM     26  C   UNL     1       0.719   5.366  -0.113  0.00  0.00    +0.128 C 
BRANCH  26  27
ATOM     27  C   UNL     1       0.827   5.920  -1.535  0.00  0.00    +0.003 C 
BRANCH  27  28
ATOM     28  C   UNL     1       1.130   7.419  -1.477  0.00  0.00    -0.077 C 
BRANCH  28  35
ATOM     29  C   UNL     1       2.451   7.465  -3.505  0.00  0.00    -0.078 C 
ATOM     30  C   UNL     1       2.454   7.919  -4.966  0.00  0.00    -0.019 C 
ATOM     31  C   UNL     1       2.396   9.448  -5.021  0.00  0.00    -0.003 C 
ATOM     32  C   UNL     1       1.144   9.930  -4.282  0.00  0.00    -0.016 C 
ATOM     33  C   UNL     1       1.180   9.418  -2.841  0.00  0.00    -0.072 C 
ATOM     34  C   UNL     1      -0.079   9.881  -2.104  0.00  0.00    -0.013 C 
ATOM     35  N   UNL     1       1.210   7.940  -2.857  0.00  0.00    +0.381 N 
ATOM     36  H   UNL     1       0.403   7.596  -3.391  0.00  0.00    -0.081 HD
ENDBRANCH  28  35
ENDBRANCH  27  28
ENDBRANCH  26  27
ENDBRANCH  11  26
TORSDOF 7
