REMARK  Name = ZINC10315603
REMARK  10 active torsions:
REMARK  status: ('A' for Active; 'I' for Inactive)
REMARK    1  A    between atoms: C_1  and  C_2
REMARK    2  A    between atoms: C_2  and  O_3
REMARK    3  A    between atoms: O_3  and  C_4
REMARK    4  A    between atoms: C_7  and  C_11
REMARK    5  A    between atoms: C_11  and  N_43
REMARK    6  A    between atoms: C_12  and  C_13
REMARK    7  A    between atoms: C_12  and  N_43
REMARK    8  A    between atoms: C_13  and  N_14
REMARK    9  A    between atoms: N_14  and  C_15
REMARK   10  A    between atoms: C_18  and  N_21
REMARK                            x       y       z     vdW  Elec       q    Type
REMARK                         _______ _______ _______ _____ _____    ______ ____
ROOT
ATOM      1  N   UNL     1       3.556  -5.006  -0.058  0.00  0.00    +0.383 N 
ATOM      2  H   UNL     1       4.079  -4.739  -0.900  0.00  0.00    -0.085 HD
ATOM      3  H   UNL     1       4.095  -4.747   0.777  0.00  0.00    -0.085 HD
ENDROOT
BRANCH   1   4
ATOM      4  C   UNL     1       3.341  -6.466  -0.063  0.00  0.00    -0.047 C 
BRANCH   4   8
ATOM      5  C   UNL     1       7.130  -8.443  -0.110  0.00  0.00    +0.148 A 
ATOM      6  C   UNL     1       6.526  -8.127   1.099  0.00  0.00    +0.061 A 
ATOM      7  C   UNL     1       5.300  -7.488   1.111  0.00  0.00    +0.020 A 
ATOM      8  C   UNL     1       4.677  -7.162  -0.080  0.00  0.00    -0.062 A 
ATOM      9  C   UNL     1       5.274  -7.481  -1.285  0.00  0.00    +0.020 A 
ATOM     10  C   UNL     1       6.502  -8.116  -1.304  0.00  0.00    +0.061 A 
ATOM     11 BR   UNL     1       7.322  -8.543  -2.953  0.00  0.00    -0.046 Br
ATOM     12 BR   UNL     1       7.378  -8.571   2.727  0.00  0.00    -0.046 Br
BRANCH   5  13
ATOM     13  O   UNL     1       8.335  -9.072  -0.125  0.00  0.00    -0.490 OA
BRANCH  13  15
ATOM     14  C   UNL     1       9.759 -11.024  -0.148  0.00  0.00    +0.048 C 
ATOM     15  C   UNL     1       8.322 -10.501  -0.132  0.00  0.00    +0.226 C 
ENDBRANCH  13  15
ENDBRANCH   5  13
ENDBRANCH   4   8
ENDBRANCH   1   4
BRANCH   1  16
ATOM     16  C   UNL     1       2.263  -4.298  -0.042  0.00  0.00    -0.063 C 
BRANCH  16  17
ATOM     17  C   UNL     1       2.518  -2.789  -0.037  0.00  0.00    +0.082 C 
BRANCH  17  18
ATOM     18  N   UNL     1       1.238  -2.077  -0.021  0.00  0.00    -0.346 N 
ATOM     19  H   UNL     1       0.406  -2.576  -0.015  0.00  0.00    +0.146 HD
BRANCH  18  20
ATOM     20  C   UNL     1       1.215  -0.681  -0.013  0.00  0.00    +0.027 A 
ATOM     21  C   UNL     1       0.002  -0.004   0.002  0.00  0.00    +0.025 A 
ATOM     22  C   UNL     1      -0.017   1.377   0.010  0.00  0.00    +0.034 A 
ATOM     23  C   UNL     1       1.171   2.086   0.002  0.00  0.00    +0.126 A 
ATOM     24  C   UNL     1       2.380   1.416  -0.013  0.00  0.00    +0.034 A 
ATOM     25  C   UNL     1       2.406   0.035  -0.021  0.00  0.00    +0.025 A 
BRANCH  23  26
ATOM     26  N   UNL     1       1.147   3.566   0.010  0.00  0.00    +0.056 N 
ATOM     27  O   UNL     1       0.082   4.158   0.023  0.00  0.00    -0.126 OA
ATOM     28  O   UNL     1       2.191   4.192   0.003  0.00  0.00    -0.126 OA
ENDBRANCH  23  26
ENDBRANCH  18  20
ENDBRANCH  17  18
ENDBRANCH  16  17
ENDBRANCH   1  16
TORSDOF 9
