REMARK  Name = ZINC05919288
REMARK  12 active torsions:
REMARK  status: ('A' for Active; 'I' for Inactive)
REMARK    1  A    between atoms: C_1  and  C_2
REMARK    2  A    between atoms: C_2  and  C_3
REMARK    3  A    between atoms: C_3  and  C_4
REMARK    4  A    between atoms: C_4  and  C_6
REMARK    5  A    between atoms: C_4  and  N_67
REMARK    6  A    between atoms: N_10  and  C_11
REMARK    7  A    between atoms: C_11  and  C_12
REMARK    8  A    between atoms: C_17  and  C_18
REMARK    9  A    between atoms: C_17  and  N_67
REMARK   10  A    between atoms: C_24  and  C_30
REMARK   11  A    between atoms: C_31  and  C_32
REMARK   12  A    between atoms: C_31  and  N_67
REMARK                            x       y       z     vdW  Elec       q    Type
REMARK                         _______ _______ _______ _____ _____    ______ ____
ROOT
ATOM      1  N   UNL     1      -0.987   0.834   2.067  0.00  0.00    +0.391 N 
ATOM      2  H   UNL     1      -1.229   1.680   1.538  0.00  0.00    -0.080 HD
ENDROOT
BRANCH   1   3
ATOM      3  C   UNL     1       0.057   1.168   3.058  0.00  0.00    +0.003 C 
BRANCH   3   4
ATOM      4  C   UNL     1       1.417   0.987   2.436  0.00  0.00    +0.139 A 
ATOM      5  N   UNL     1       1.847   1.528   1.322  0.00  0.00    -0.115 NA
ATOM      6  N   UNL     1       3.058   1.133   1.129  0.00  0.00    -0.023 NA
ATOM      7  N   UNL     1       3.409   0.347   2.086  0.00  0.00    -0.044 NA
ATOM      8  N   UNL     1       2.425   0.232   2.912  0.00  0.00    -0.223 N 
BRANCH   8   9
ATOM      9  C   UNL     1       2.406  -0.571   4.137  0.00  0.00    +0.221 C 
BRANCH   9  10
ATOM     10  C   UNL     1       2.229  -2.025   3.783  0.00  0.00    +0.126 A 
ATOM     11  C   UNL     1       3.217  -2.928   3.648  0.00  0.00    +0.046 A 
ATOM     12  C   UNL     1       2.606  -4.157   3.312  0.00  0.00    +0.041 A 
ATOM     13  C   UNL     1       1.281  -3.933   3.262  0.00  0.00    +0.195 A 
ATOM     14  O   UNL     1       1.058  -2.641   3.554  0.00  0.00    -0.466 OA
ENDBRANCH   9  10
ENDBRANCH   8   9
ENDBRANCH   3   4
BRANCH   3  15
ATOM     15  C   UNL     1      -0.121   2.629   3.478  0.00  0.00    -0.008 C 
BRANCH  15  17
ATOM     16  C   UNL     1      -1.585   4.219   4.730  0.00  0.00    +0.004 C 
ATOM     17  C   UNL     1      -1.474   2.799   4.171  0.00  0.00    -0.005 C 
ENDBRANCH  15  17
ENDBRANCH   3  15
ENDBRANCH   1   3
BRANCH   1  18
ATOM     18  C   UNL     1      -2.196   0.336   2.755  0.00  0.00    -0.036 C 
BRANCH  18  19
ATOM     19  C   UNL     1      -1.868  -0.874   3.591  0.00  0.00    +0.001 A 
ATOM     20  C   UNL     1      -1.548  -0.724   4.900  0.00  0.00    +0.017 A 
ATOM     21  C   UNL     1      -1.234  -1.920   5.685  0.00  0.00    -0.001 A 
ATOM     22  C   UNL     1      -0.897  -1.829   7.039  0.00  0.00    +0.010 A 
ATOM     23  C   UNL     1      -0.610  -2.963   7.744  0.00  0.00    +0.001 A 
ATOM     24  C   UNL     1      -0.650  -4.207   7.127  0.00  0.00    +0.005 A 
ATOM     25  C   UNL     1      -0.980  -4.321   5.794  0.00  0.00    -0.026 A 
ATOM     26  C   UNL     1      -1.276  -3.179   5.056  0.00  0.00    +0.052 A 
ATOM     27  N   UNL     1      -1.610  -3.263   3.721  0.00  0.00    -0.322 N 
ATOM     28  H   UNL     1      -1.638  -4.132   3.290  0.00  0.00    +0.169 HD
ATOM     29  C   UNL     1      -1.901  -2.160   3.010  0.00  0.00    +0.251 A 
ATOM     30  O   UNL     1      -2.197  -2.273   1.833  0.00  0.00    -0.268 OA
ATOM     31  C   UNL     1      -1.021  -5.677   5.138  0.00  0.00    +0.046 C 
ENDBRANCH  18  19
ENDBRANCH   1  18
BRANCH   1  32
ATOM     32  C   UNL     1      -0.482  -0.191   1.128  0.00  0.00    -0.045 C 
BRANCH  32  33
ATOM     33  C   UNL     1      -1.461  -0.312  -0.042  0.00  0.00    +0.102 C 
ATOM     34  C   UNL     1      -0.964  -1.370  -1.052  0.00  0.00    +0.032 C 
ATOM     35  C   UNL     1      -1.344  -0.782  -2.429  0.00  0.00    +0.030 C 
ATOM     36  C   UNL     1      -2.026   0.562  -2.088  0.00  0.00    +0.160 C 
ATOM     37  O   UNL     1      -1.504   0.922  -0.791  0.00  0.00    -0.378 OA
ENDBRANCH  32  33
ENDBRANCH   1  32
TORSDOF 10
