REMARK  Name = ZINC38140740
REMARK  9 active torsions:
REMARK  status: ('A' for Active; 'I' for Inactive)
REMARK    1  A    between atoms: C_1  and  C_2
REMARK    2  A    between atoms: C_7  and  C_9
REMARK    3  A    between atoms: C_7  and  C_10
REMARK    4  A    between atoms: N_13  and  C_17
REMARK    5  A    between atoms: C_17  and  C_18
REMARK    6  A    between atoms: N_20  and  C_21
REMARK    7  A    between atoms: C_21  and  C_22
REMARK    8  A    between atoms: C_22  and  C_24
REMARK    9  A    between atoms: C_22  and  N_29
REMARK                            x       y       z     vdW  Elec       q    Type
REMARK                         _______ _______ _______ _____ _____    ______ ____
ROOT
ATOM      1  C   UNL     1      -4.005  -3.495  -2.134  0.00  0.00    +0.231 C 
ATOM      2  O   UNL     1      -3.587  -2.456  -2.601  0.00  0.00    -0.274 OA
ATOM      3  N   UNL     1      -5.060  -4.112  -2.700  0.00  0.00    -0.315 N 
ATOM      4  H   UNL     1      -5.394  -4.943  -2.327  0.00  0.00    +0.149 HD
ENDROOT
BRANCH   1   5
ATOM      5  C   UNL     1      -3.343  -4.095  -0.921  0.00  0.00    +0.213 C 
BRANCH   5  17
ATOM      6  C   UNL     1       0.477   1.842  -0.281  0.00  0.00    +0.007 C 
ATOM      7  C   UNL     1       0.474   0.375   0.154  0.00  0.00    -0.011 C 
ATOM      8  C   UNL     1      -0.947  -0.185   0.052  0.00  0.00    +0.038 C 
ATOM      9  C   UNL     1      -0.956  -1.641   0.505  0.00  0.00    +0.113 C 
ATOM     10  C   UNL     1      -0.454  -1.762   1.940  0.00  0.00    +0.041 C 
ATOM     11  C   UNL     1       0.966  -1.197   2.035  0.00  0.00    -0.032 C 
ATOM     12  C   UNL     1       0.959   0.270   1.601  0.00  0.00    +0.009 C 
ATOM     13  C   UNL     1       1.461  -1.300   3.479  0.00  0.00    +0.011 C 
ATOM     14  C   UNL     1       1.895  -1.996   1.118  0.00  0.00    +0.011 C 
ATOM     15  C   UNL     1      -2.344  -2.225   0.380  0.00  0.00    +0.247 C 
ATOM     16  O   UNL     1      -3.349  -1.857   0.950  0.00  0.00    -0.273 OA
ATOM     17  N   UNL     1      -2.229  -3.241  -0.499  0.00  0.00    -0.215 N 
ATOM     18  C   UNL     1      -0.972  -3.374  -0.939  0.00  0.00    +0.310 C 
ATOM     19  O   UNL     1      -0.620  -4.219  -1.738  0.00  0.00    -0.252 OA
ATOM     20  N   UNL     1      -0.140  -2.464  -0.397  0.00  0.00    -0.285 N 
ATOM     21  H   UNL     1       0.811  -2.372  -0.567  0.00  0.00    +0.151 HD
ENDBRANCH   5  17
ENDBRANCH   1   5
BRANCH   3  22
ATOM     22  C   UNL     1      -5.704  -3.529  -3.880  0.00  0.00    +0.096 C 
BRANCH  22  23
ATOM     23  C   UNL     1      -6.937  -4.355  -4.250  0.00  0.00    +0.016 C 
BRANCH  23  24
ATOM     24  N   UNL     1      -6.544  -5.756  -4.455  0.00  0.00    +0.387 N 
ATOM     25  C   UNL     1      -5.489  -5.822  -5.473  0.00  0.00    -0.078 C 
ATOM     26  C   UNL     1      -5.019  -7.270  -5.632  0.00  0.00    -0.019 C 
ATOM     27  C   UNL     1      -6.202  -8.141  -6.064  0.00  0.00    -0.004 C 
ATOM     28  C   UNL     1      -7.326  -8.005  -5.032  0.00  0.00    -0.019 C 
ATOM     29  C   UNL     1      -7.710  -6.530  -4.895  0.00  0.00    -0.078 C 
ATOM     30  H   UNL     1      -6.196  -6.137  -3.587  0.00  0.00    -0.081 HD
ENDBRANCH  23  24
BRANCH  23  31
ATOM     31  C   UNL     1      -7.543  -3.813  -5.518  0.00  0.00    +0.093 A 
ATOM     32  C   UNL     1      -8.688  -3.112  -5.606  0.00  0.00    +0.043 A 
ATOM     33  C   UNL     1      -8.878  -2.807  -6.973  0.00  0.00    +0.041 A 
ATOM     34  C   UNL     1      -7.838  -3.340  -7.640  0.00  0.00    +0.195 A 
ATOM     35  O   UNL     1      -7.030  -3.943  -6.753  0.00  0.00    -0.469 OA
ENDBRANCH  23  31
ENDBRANCH  22  23
ENDBRANCH   3  22
TORSDOF 6
