REMARK  Name = ZINC27129826
REMARK  8 active torsions:
REMARK  status: ('A' for Active; 'I' for Inactive)
REMARK    1  A    between atoms: C_3  and  O_26
REMARK    2  A    between atoms: C_6  and  C_7
REMARK    3  A    between atoms: C_16  and  C_24
REMARK    4  A    between atoms: C_17  and  N_23
REMARK    5  A    between atoms: C_18  and  C_19
REMARK    6  A    between atoms: C_18  and  C_21
REMARK    7  A    between atoms: O_26  and  C_27
REMARK    8  A    between atoms: C_27  and  C_28
REMARK                            x       y       z     vdW  Elec       q    Type
REMARK                         _______ _______ _______ _____ _____    ______ ____
ROOT
ATOM      1  C   UNL     1       0.002  -0.004   0.002  0.00  0.00    +0.067 C 
ATOM      2  C   UNL     1      -0.834  -0.521  -1.171  0.00  0.00    +0.044 C 
ATOM      3  C   UNL     1      -0.191  -0.206  -2.503  0.00  0.00    +0.090 C 
ATOM      4  N   UNL     1      -0.785   0.975  -3.134  0.00  0.00    -0.312 NA
ATOM      5  C   UNL     1      -2.224   0.757  -3.368  0.00  0.00    +0.108 C 
ATOM      6  C   UNL     1      -2.886   0.584  -2.023  0.00  0.00    -0.007 C 
ATOM      7  C   UNL     1      -2.221   0.038  -1.038  0.00  0.00    -0.026 C 
ATOM      8  C   UNL     1      -2.845  -0.011   0.308  0.00  0.00    +0.074 C 
ATOM      9  C   UNL     1      -2.068  -0.267   1.391  0.00  0.00    +0.054 C 
ATOM     10  C   UNL     1      -0.592  -0.531   1.308  0.00  0.00    +0.188 C 
ATOM     11  H   UNL     1      -0.656   1.847  -2.475  0.00  0.00    +0.122 HD
ENDROOT
BRANCH   1  17
ATOM     12  C   UNL     1      -1.029   2.176   0.672  0.00  0.00    +0.007 A 
ATOM     13  C   UNL     1      -1.047   3.557   0.686  0.00  0.00    +0.046 A 
ATOM     14  C   UNL     1      -0.056   4.269   0.026  0.00  0.00    +0.121 A 
ATOM     15  C   UNL     1       0.954   3.591  -0.642  0.00  0.00    +0.046 A 
ATOM     16  C   UNL     1       0.970   2.210  -0.648  0.00  0.00    +0.007 A 
ATOM     17  C   UNL     1      -0.018   1.503   0.010  0.00  0.00    -0.041 A 
BRANCH  14  18
ATOM     18  O   UNL     1      -0.074   5.628   0.033  0.00  0.00    -0.483 OA
BRANCH  18  19
ATOM     19  C   UNL     1      -1.144   6.258   0.741  0.00  0.00    +0.324 C 
BRANCH  19  20
ATOM     20  C   UNL     1      -0.999   7.755   0.640  0.00  0.00    +0.248 C 
ATOM     21  O   UNL     1      -0.072   8.234   0.023  0.00  0.00    -0.272 OA
ATOM     22  N   UNL     1      -1.901   8.560   1.236  0.00  0.00    -0.327 N 
ATOM     23  H   UNL     1      -1.796   9.653   1.162  0.00  0.00    +0.145 HD
ATOM     24  H   UNL     1      -2.742   8.125   1.795  0.00  0.00    +0.145 HD
ENDBRANCH  19  20
ENDBRANCH  18  19
ENDBRANCH  14  18
ENDBRANCH   1  17
BRANCH   9  25
ATOM     25  N   UNL     1      -2.660  -0.285   2.623  0.00  0.00    -0.358 N 
ATOM     26  H   UNL     1      -2.057  -0.489   3.519  0.00  0.00    +0.142 HD
ATOM     27  H   UNL     1      -3.739  -0.095   2.717  0.00  0.00    +0.142 HD
ENDBRANCH   9  25
BRANCH  10  28
ATOM     28  C   UNL     1      -0.359  -1.982   1.390  0.00  0.00    +0.091 C 
ATOM     29  N   UNL     1      -0.180  -3.102   1.454  0.00  0.00    -0.194 NA
ENDBRANCH  10  28
BRANCH  10  30
ATOM     30  C   UNL     1       0.080   0.126   2.441  0.00  0.00    +0.091 C 
ATOM     31  N   UNL     1       0.599   0.632   3.315  0.00  0.00    -0.194 NA
ENDBRANCH  10  30
BRANCH   8  32
ATOM     32  C   UNL     1      -4.252   0.209   0.462  0.00  0.00    +0.101 C 
ATOM     33  N   UNL     1      -5.367   0.384   0.584  0.00  0.00    -0.191 NA
ENDBRANCH   8  32
TORSDOF 8
