REMARK  Name = ZINC39667266
REMARK  10 active torsions:
REMARK  status: ('A' for Active; 'I' for Inactive)
REMARK    1  A    between atoms: C_1  and  O_2
REMARK    2  A    between atoms: O_2  and  C_3
REMARK    3  A    between atoms: C_6  and  C_11
REMARK    4  A    between atoms: C_7  and  O_9
REMARK    5  A    between atoms: O_9  and  C_10
REMARK    6  A    between atoms: C_15  and  C_24
REMARK    7  A    between atoms: N_26  and  C_27
REMARK    8  A    between atoms: C_27  and  C_28
REMARK    9  A    between atoms: C_31  and  S_34
REMARK   10  A    between atoms: S_34  and  C_35
REMARK                            x       y       z     vdW  Elec       q    Type
REMARK                         _______ _______ _______ _____ _____    ______ ____
ROOT
ATOM      1  C   UNL     1       2.486  -2.342  -4.198  0.00  0.00    +0.250 C 
ATOM      2  O   UNL     1       2.532  -3.558  -4.218  0.00  0.00    -0.270 OA
ATOM      3  N   UNL     1       2.910  -1.634  -5.264  0.00  0.00    -0.296 N 
ATOM      4  C   UNL     1       3.031  -0.162  -5.386  0.00  0.00    +0.121 C 
ATOM      5  C   UNL     1       4.340   0.057  -6.177  0.00  0.00    +0.100 C 
ATOM      6  C   UNL     1       4.550  -1.251  -6.959  0.00  0.00    -0.004 C 
ATOM      7  C   UNL     1       3.367  -2.152  -6.575  0.00  0.00    +0.115 C 
ATOM      8  C   UNL     1       4.543  -0.977  -8.459  0.00  0.00    -0.010 C 
ATOM      9  C   UNL     1       4.811  -2.283  -9.213  0.00  0.00    -0.082 C 
ATOM     10  N   UNL     1       6.110  -2.829  -8.802  0.00  0.00    +0.379 N 
ATOM     11  C   UNL     1       6.078  -3.176  -7.376  0.00  0.00    -0.082 C 
ATOM     12  C   UNL     1       5.863  -1.908  -6.545  0.00  0.00    -0.010 C 
ATOM     13  H   UNL     1       6.312  -3.656  -9.344  0.00  0.00    -0.086 HD
ATOM     14  H   UNL     1       6.829  -2.140  -8.963  0.00  0.00    -0.086 HD
ENDROOT
BRANCH   1  18
ATOM     15  C   UNL     1       0.985  -0.330  -0.771  0.00  0.00    +0.124 A 
ATOM     16  C   UNL     1       0.764   0.196  -2.041  0.00  0.00    +0.046 A 
ATOM     17  C   UNL     1       1.249  -0.453  -3.153  0.00  0.00    +0.020 A 
ATOM     18  C   UNL     1       1.966  -1.645  -3.010  0.00  0.00    +0.079 A 
ATOM     19  C   UNL     1       2.187  -2.174  -1.729  0.00  0.00    +0.136 A 
ATOM     20  C   UNL     1       1.699  -1.509  -0.617  0.00  0.00    +0.092 A 
BRANCH  15  22
ATOM     21  C   UNL     1      -0.224   1.525   0.091  0.00  0.00    +0.277 C 
ATOM     22  O   UNL     1       0.503   0.316   0.321  0.00  0.00    -0.495 OA
ENDBRANCH  15  22
BRANCH  19  23
ATOM     23  O   UNL     1       2.881  -3.330  -1.581  0.00  0.00    -0.494 OA
ATOM     24  C   UNL     1       3.068  -3.808  -0.248  0.00  0.00    +0.277 C 
ENDBRANCH  19  23
ENDBRANCH   1  18
BRANCH   5  25
ATOM     25  C   UNL     1       4.191   1.219  -7.125  0.00  0.00    +0.218 C 
ATOM     26  O   UNL     1       3.108   1.474  -7.607  0.00  0.00    -0.275 OA
ATOM     27  N   UNL     1       5.262   1.975  -7.438  0.00  0.00    -0.311 N 
ATOM     28  H   UNL     1       6.129   1.771  -7.053  0.00  0.00    +0.149 HD
BRANCH  27  29
ATOM     29  C   UNL     1       5.118   3.105  -8.360  0.00  0.00    +0.139 C 
BRANCH  29  30
ATOM     30  C   UNL     1       6.453   3.780  -8.540  0.00  0.00    -0.030 A 
ATOM     31  C   UNL     1       6.826   4.808  -7.695  0.00  0.00    +0.006 A 
ATOM     32  C   UNL     1       8.048   5.429  -7.857  0.00  0.00    +0.015 A 
ATOM     33  C   UNL     1       8.905   5.019  -8.872  0.00  0.00    +0.008 A 
ATOM     34  C   UNL     1       8.527   3.985  -9.720  0.00  0.00    +0.015 A 
ATOM     35  C   UNL     1       7.305   3.365  -9.548  0.00  0.00    +0.006 A 
BRANCH  33  36
ATOM     36  S   UNL     1      10.465   5.809  -9.084  0.00  0.00    -0.129 S 
ATOM     37  C   UNL     1      11.204   4.948 -10.500  0.00  0.00    +0.090 C 
ENDBRANCH  33  36
ENDBRANCH  29  30
ENDBRANCH  27  29
ENDBRANCH   5  25
TORSDOF 7
