REMARK  Name = ZINC64664465
REMARK  6 active torsions:
REMARK  status: ('A' for Active; 'I' for Inactive)
REMARK    1  A    between atoms: C_1  and  C_2
REMARK    2  A    between atoms: C_5  and  C_8
REMARK    3  A    between atoms: C_11  and  C_13
REMARK    4  A    between atoms: C_14  and  N_26
REMARK    5  A    between atoms: N_15  and  C_18
REMARK    6  A    between atoms: C_23  and  C_24
REMARK                            x       y       z     vdW  Elec       q    Type
REMARK                         _______ _______ _______ _____ _____    ______ ____
ROOT
ATOM      1  C   UNL     1       0.074  -7.086  -2.403  0.00  0.00    +0.159 A 
ATOM      2  C   UNL     1       0.025  -8.468  -2.334  0.00  0.00    +0.150 A 
ATOM      3  N   UNL     1       0.199  -8.921  -3.609  0.00  0.00    -0.198 N 
ATOM      4  N   UNL     1       0.349  -7.788  -4.421  0.00  0.00    -0.058 NA
ATOM      5  N   UNL     1       0.265  -6.736  -3.686  0.00  0.00    -0.125 NA
ENDROOT
BRANCH   3   6
ATOM      6  C   UNL     1       0.223 -10.260  -4.025  0.00  0.00    +0.073 A 
ATOM      7  C   UNL     1       0.997 -11.187  -3.341  0.00  0.00    +0.028 A 
ATOM      8  C   UNL     1       1.020 -12.505  -3.754  0.00  0.00    +0.004 A 
ATOM      9  C   UNL     1       0.272 -12.902  -4.847  0.00  0.00    +0.020 A 
ATOM     10  C   UNL     1      -0.501 -11.981  -5.531  0.00  0.00    +0.046 A 
ATOM     11  C   UNL     1      -0.532 -10.661  -5.119  0.00  0.00    -0.007 A 
ATOM     12  C   UNL     1      -1.379  -9.659  -5.860  0.00  0.00    +0.047 C 
ATOM     13 CL   UNL     1      -1.438 -12.483  -6.904  0.00  0.00    -0.083 Cl
ENDBRANCH   3   6
BRANCH   1  17
ATOM     14  C   UNL     1      -0.181  -4.153  -0.130  0.00  0.00    +0.079 A 
ATOM     15  C   UNL     1      -0.365  -4.830   1.046  0.00  0.00    +0.075 A 
ATOM     16  S   UNL     1      -0.322  -6.521   0.467  0.00  0.00    -0.073 S 
ATOM     17  C   UNL     1      -0.067  -6.157  -1.265  0.00  0.00    +0.132 A 
ATOM     18  N   UNL     1      -0.042  -4.833  -1.255  0.00  0.00    -0.237 NA
BRANCH  14  23
ATOM     19  C   UNL     1      -0.042   1.604  -0.177  0.00  0.00    +0.044 C 
ATOM     20  C   UNL     1      -0.078   0.097  -0.165  0.00  0.00    -0.050 A 
ATOM     21  C   UNL     1       0.069  -0.605  -1.347  0.00  0.00    +0.004 A 
ATOM     22  C   UNL     1       0.037  -1.985  -1.342  0.00  0.00    +0.010 A 
ATOM     23  C   UNL     1      -0.145  -2.670  -0.142  0.00  0.00    +0.001 A 
ATOM     24  C   UNL     1      -0.293  -1.957   1.046  0.00  0.00    +0.010 A 
ATOM     25  C   UNL     1      -0.254  -0.578   1.030  0.00  0.00    +0.004 A 
ENDBRANCH  14  23
ENDBRANCH   1  17
BRANCH   2  26
ATOM     26  N   UNL     1      -0.162  -9.237  -1.196  0.00  0.00    -0.341 N 
ATOM     27  H   UNL     1      -0.181  -8.815  -0.323  0.00  0.00    +0.144 HD
ATOM     28  H   UNL     1      -0.275 -10.197  -1.273  0.00  0.00    +0.144 HD
ENDBRANCH   2  26
TORSDOF 4
