REMARK  Name = ZINC65219022
REMARK  4 active torsions:
REMARK  status: ('A' for Active; 'I' for Inactive)
REMARK    1  A    between atoms: C_6  and  C_7
REMARK    2  A    between atoms: C_9  and  C_12
REMARK    3  A    between atoms: C_13  and  N_17
REMARK    4  A    between atoms: C_18  and  C_20
REMARK                            x       y       z     vdW  Elec       q    Type
REMARK                         _______ _______ _______ _____ _____    ______ ____
ROOT
ATOM      1  C   UNL     1      -3.172  -3.817  -0.041  0.00  0.00    +0.098 A 
ATOM      2  C   UNL     1      -4.493  -4.254   0.022  0.00  0.00    +0.053 A 
ATOM      3  C   UNL     1      -4.662  -5.625   0.078  0.00  0.00    +0.031 A 
ATOM      4  C   UNL     1      -3.571  -6.423   0.068  0.00  0.00    +0.048 A 
ATOM      5  S   UNL     1      -2.276  -5.357  -0.024  0.00  0.00    -0.090 S 
ENDROOT
BRANCH   1   8
ATOM      6  C   UNL     1      -1.277  -0.769  -0.223  0.00  0.00    +0.202 A 
ATOM      7  N   UNL     1      -1.385  -2.104  -0.172  0.00  0.00    -0.187 NA
ATOM      8  C   UNL     1      -2.656  -2.450  -0.108  0.00  0.00    +0.267 A 
ATOM      9  O   UNL     1      -3.396  -1.324  -0.118  0.00  0.00    -0.332 OA
ATOM     10  N   UNL     1      -2.478  -0.243  -0.188  0.00  0.00    -0.056 NA
BRANCH   6  16
ATOM     11  C   UNL     1      -0.025   1.384  -0.342  0.00  0.00    +0.014 A 
ATOM     12  C   UNL     1       1.160   2.087  -0.413  0.00  0.00    +0.039 A 
ATOM     13  C   UNL     1       2.369   1.410  -0.444  0.00  0.00    +0.123 A 
ATOM     14  C   UNL     1       2.393   0.026  -0.403  0.00  0.00    +0.039 A 
ATOM     15  C   UNL     1       1.213  -0.685  -0.331  0.00  0.00    +0.014 A 
ATOM     16  C   UNL     1      -0.005  -0.009  -0.300  0.00  0.00    +0.023 A 
ATOM     17  F   UNL     1       3.527   2.103  -0.514  0.00  0.00    -0.205 F 
ENDBRANCH   6  16
ENDBRANCH   1   8
BRANCH   2  18
ATOM     18  N   UNL     1      -5.573  -3.368   0.029  0.00  0.00    -0.278 N 
ATOM     19  C   UNL     1      -6.832  -3.839  -0.069  0.00  0.00    +0.284 C 
ATOM     20  O   UNL     1      -7.034  -5.039  -0.068  0.00  0.00    -0.266 OA
ATOM     21  H   UNL     1      -5.416  -2.413   0.103  0.00  0.00    +0.155 HD
BRANCH  19  22
ATOM     22  C   UNL     1      -7.957  -2.906  -0.175  0.00  0.00    +0.191 A 
ATOM     23  C   UNL     1      -9.276  -3.248  -0.274  0.00  0.00    +0.056 A 
ATOM     24  C   UNL     1      -9.998  -2.048  -0.354  0.00  0.00    +0.058 A 
ATOM     25  C   UNL     1      -9.100  -1.038  -0.300  0.00  0.00    +0.171 A 
ATOM     26  O   UNL     1      -7.872  -1.559  -0.187  0.00  0.00    -0.444 OA
ATOM     27 BR   UNL     1      -9.512   0.807  -0.368  0.00  0.00    -0.008 Br
ENDBRANCH  19  22
ENDBRANCH   2  18
TORSDOF 4
