REMARK  Name = ZINC64590641
REMARK  8 active torsions:
REMARK  status: ('A' for Active; 'I' for Inactive)
REMARK    1  A    between atoms: C_1  and  C_2
REMARK    2  A    between atoms: C_5  and  N_9
REMARK    3  A    between atoms: C_7  and  C_8
REMARK    4  A    between atoms: C_10  and  C_12
REMARK    5  A    between atoms: C_12  and  S_13
REMARK    6  A    between atoms: S_13  and  C_14
REMARK    7  A    between atoms: N_26  and  C_27
REMARK    8  A    between atoms: C_27  and  C_28
REMARK                            x       y       z     vdW  Elec       q    Type
REMARK                         _______ _______ _______ _____ _____    ______ ____
ROOT
ATOM      1  C   UNL     1      -0.356  -8.692  -2.728  0.00  0.00    +0.198 A 
ATOM      2  N   UNL     1      -0.348  -9.361  -1.600  0.00  0.00    -0.120 NA
ATOM      3  N   UNL     1      -0.446 -10.725  -1.904  0.00  0.00    -0.109 NA
ATOM      4  C   UNL     1      -0.511 -10.846  -3.212  0.00  0.00    +0.241 A 
ATOM      5  N   UNL     1      -0.462  -9.593  -3.750  0.00  0.00    -0.255 N 
ATOM      6  C   UNL     1      -0.518  -9.406  -5.143  0.00  0.00    +0.071 A 
ATOM      7  C   UNL     1      -0.480  -8.226  -5.882  0.00  0.00    +0.035 A 
ATOM      8  C   UNL     1      -0.548  -8.278  -7.230  0.00  0.00    +0.048 A 
ATOM      9  S   UNL     1      -0.668  -9.918  -7.579  0.00  0.00    -0.090 S 
ATOM     10  C   UNL     1      -0.628 -10.555  -5.926  0.00  0.00    +0.101 A 
ATOM     11  C   UNL     1      -0.681 -11.835  -5.358  0.00  0.00    +0.270 A 
ATOM     12  O   UNL     1      -0.777 -12.819  -6.071  0.00  0.00    -0.266 OA
ATOM     13  N   UNL     1      -0.616 -11.971  -4.016  0.00  0.00    -0.269 N 
ENDROOT
BRANCH   1  14
ATOM     14  S   UNL     1      -0.255  -6.941  -2.895  0.00  0.00    -0.076 S 
BRANCH  14  15
ATOM     15  C   UNL     1      -0.134  -6.343  -1.187  0.00  0.00    +0.173 C 
BRANCH  15  17
ATOM     16  N   UNL     1       0.059  -4.170  -0.021  0.00  0.00    -0.285 N 
ATOM     17  C   UNL     1      -0.040  -4.839  -1.187  0.00  0.00    +0.227 C 
ATOM     18  O   UNL     1      -0.054  -4.230  -2.236  0.00  0.00    -0.275 OA
ATOM     19  H   UNL     1       0.147  -4.658   0.812  0.00  0.00    +0.155 HD
BRANCH  16  24
ATOM     20  C   UNL     1      -0.041   1.502   0.014  0.00  0.00    +0.044 C 
ATOM     21  C   UNL     1      -0.015  -0.004   0.004  0.00  0.00    -0.047 A 
ATOM     22  C   UNL     1      -0.752  -0.702  -0.935  0.00  0.00    +0.005 A 
ATOM     23  C   UNL     1      -0.730  -2.082  -0.946  0.00  0.00    +0.023 A 
ATOM     24  C   UNL     1       0.034  -2.771  -0.013  0.00  0.00    +0.034 A 
ATOM     25  C   UNL     1       0.773  -2.068   0.929  0.00  0.00    +0.027 A 
ATOM     26  C   UNL     1       0.751  -0.686   0.932  0.00  0.00    -0.046 A 
ATOM     27  C   UNL     1       1.557   0.078   1.950  0.00  0.00    +0.044 C 
ENDBRANCH  16  24
ENDBRANCH  15  17
ENDBRANCH  14  15
ENDBRANCH   1  14
BRANCH  13  28
ATOM     28  C   UNL     1      -0.672 -13.304  -3.410  0.00  0.00    +0.202 C 
BRANCH  28  29
ATOM     29  C   UNL     1      -2.108 -13.673  -3.140  0.00  0.00    +0.125 A 
ATOM     30  C   UNL     1      -2.927 -14.319  -3.989  0.00  0.00    +0.046 A 
ATOM     31  C   UNL     1      -4.172 -14.456  -3.333  0.00  0.00    +0.041 A 
ATOM     32  C   UNL     1      -4.039 -13.886  -2.122  0.00  0.00    +0.195 A 
ATOM     33  O   UNL     1      -2.785 -13.418  -2.008  0.00  0.00    -0.466 OA
ENDBRANCH  28  29
ENDBRANCH  13  28
TORSDOF 6
