REMARK  Name = ZINC22697331
REMARK  11 active torsions:
REMARK  status: ('A' for Active; 'I' for Inactive)
REMARK    1  A    between atoms: C_1  and  C_2
REMARK    2  A    between atoms: C_2  and  N_3
REMARK    3  A    between atoms: C_4  and  C_36
REMARK    4  A    between atoms: C_7  and  C_10
REMARK    5  A    between atoms: C_10  and  C_12
REMARK    6  A    between atoms: C_10  and  N_22
REMARK    7  A    between atoms: C_15  and  O_20
REMARK    8  A    between atoms: C_16  and  O_18
REMARK    9  A    between atoms: O_18  and  C_19
REMARK   10  A    between atoms: O_20  and  C_21
REMARK   11  A    between atoms: N_25  and  C_28
REMARK                            x       y       z     vdW  Elec       q    Type
REMARK                         _______ _______ _______ _____ _____    ______ ____
ROOT
ATOM      1  C   UNL     1      -2.840   5.835  -0.123  0.00  0.00    +0.003 C 
ENDROOT
BRANCH   1   6
ATOM      2  N   UNL     1       0.093   4.034   1.386  0.00  0.00    -0.313 N 
ATOM      3  C   UNL     1       0.952   5.054   1.646  0.00  0.00    +0.023 A 
ATOM      4  C   UNL     1       0.626   6.329   1.343  0.00  0.00    +0.072 A 
ATOM      5  C   UNL     1      -0.624   6.612   0.758  0.00  0.00    +0.188 A 
ATOM      6  C   UNL     1      -1.495   5.570   0.501  0.00  0.00    +0.054 A 
ATOM      7  C   UNL     1      -1.110   4.264   0.828  0.00  0.00    +0.257 A 
ATOM      8  O   UNL     1      -1.868   3.332   0.607  0.00  0.00    -0.267 OA
ATOM      9  O   UNL     1      -0.967   7.886   0.452  0.00  0.00    -0.287 OA
ATOM     10  C   UNL     1       2.288   4.758   2.277  0.00  0.00    +0.064 C 
BRANCH   2  12
ATOM     11  C   UNL     1       0.082   2.360   3.169  0.00  0.00    +0.027 C 
ATOM     12  C   UNL     1       0.480   2.661   1.723  0.00  0.00    +0.122 C 
ENDBRANCH   2  12
ENDBRANCH   1   6
BRANCH   1  13
ATOM     13  N   UNL     1      -3.892   5.228   0.703  0.00  0.00    +0.389 N 
ATOM     14  C   UNL     1      -5.225   5.527   0.162  0.00  0.00    -0.058 C 
ATOM     15  C   UNL     1      -6.286   4.813   1.003  0.00  0.00    +0.086 C 
ATOM     16  N   UNL     1      -6.177   5.252   2.401  0.00  0.00    -0.331 N 
ATOM     17  C   UNL     1      -4.844   4.953   2.942  0.00  0.00    +0.086 C 
ATOM     18  C   UNL     1      -3.783   5.668   2.101  0.00  0.00    -0.058 C 
ATOM     19  H   UNL     1      -3.752   4.137   0.678  0.00  0.00    -0.080 HD
BRANCH  16  20
ATOM     20  C   UNL     1      -7.178   4.674   3.187  0.00  0.00    +0.065 A 
ATOM     21  C   UNL     1      -7.296   5.018   4.527  0.00  0.00    +0.026 A 
ATOM     22  C   UNL     1      -8.289   4.448   5.301  0.00  0.00    +0.002 A 
ATOM     23  C   UNL     1      -9.160   3.529   4.745  0.00  0.00    +0.003 A 
ATOM     24  C   UNL     1      -9.043   3.179   3.412  0.00  0.00    +0.040 A 
ATOM     25  C   UNL     1      -8.055   3.749   2.631  0.00  0.00    +0.144 A 
ATOM     26  F   UNL     1      -7.941   3.407   1.329  0.00  0.00    -0.204 F 
ENDBRANCH  16  20
ENDBRANCH   1  13
BRANCH   1  27
ATOM     27  C   UNL     1      -2.880   5.237  -1.506  0.00  0.00    -0.053 A 
ATOM     28  C   UNL     1      -3.232   3.911  -1.674  0.00  0.00    +0.006 A 
ATOM     29  C   UNL     1      -3.275   3.359  -2.941  0.00  0.00    +0.049 A 
ATOM     30  C   UNL     1      -2.953   4.133  -4.045  0.00  0.00    +0.161 A 
ATOM     31  C   UNL     1      -2.593   5.466  -3.875  0.00  0.00    +0.162 A 
ATOM     32  C   UNL     1      -2.558   6.014  -2.603  0.00  0.00    +0.051 A 
BRANCH  31  33
ATOM     33  O   UNL     1      -2.277   6.229  -4.955  0.00  0.00    -0.491 OA
ATOM     34  C   UNL     1      -1.918   7.590  -4.706  0.00  0.00    +0.277 C 
ENDBRANCH  31  33
BRANCH  30  35
ATOM     35  O   UNL     1      -2.989   3.590  -5.291  0.00  0.00    -0.491 OA
ATOM     36  C   UNL     1      -3.367   2.215  -5.389  0.00  0.00    +0.277 C 
ENDBRANCH  30  35
ENDBRANCH   1  27
TORSDOF 7
