REMARK  Name = ZINC24376040
REMARK  7 active torsions:
REMARK  status: ('A' for Active; 'I' for Inactive)
REMARK    1  A    between atoms: C_1  and  C_2
REMARK    2  A    between atoms: C_2  and  C_4
REMARK    3  A    between atoms: C_2  and  N_15
REMARK    4  A    between atoms: N_9  and  C_10
REMARK    5  A    between atoms: C_10  and  C_11
REMARK    6  A    between atoms: N_18  and  S_21
REMARK    7  A    between atoms: S_21  and  C_24
REMARK                            x       y       z     vdW  Elec       q    Type
REMARK                         _______ _______ _______ _____ _____    ______ ____
ROOT
ATOM      1  N   UNL     1       4.286  -0.545  -4.406  0.00  0.00    +0.389 N 
ATOM      2  C   UNL     1       4.316   0.720  -3.659  0.00  0.00    -0.060 C 
ATOM      3  C   UNL     1       5.082   0.517  -2.348  0.00  0.00    +0.091 C 
ATOM      4  N   UNL     1       4.483  -0.617  -1.627  0.00  0.00    -0.180 NA
ATOM      5  C   UNL     1       4.300  -1.883  -2.352  0.00  0.00    +0.091 C 
ATOM      6  C   UNL     1       3.559  -1.584  -3.665  0.00  0.00    -0.060 C 
ATOM      7  H   UNL     1       5.325  -0.886  -4.528  0.00  0.00    -0.081 HD
ENDROOT
BRANCH   4   8
ATOM      8  S   UNL     1       4.034  -0.473  -0.040  0.00  0.00    +0.067 S 
ATOM      9  O   UNL     1       4.814   0.580   0.509  0.00  0.00    -0.152 OA
ATOM     10  O   UNL     1       4.036  -1.786   0.503  0.00  0.00    -0.152 OA
BRANCH   8  11
ATOM     11  C   UNL     1       2.360   0.077  -0.020  0.00  0.00    +0.144 A 
ATOM     12  C   UNL     1       1.221  -0.657  -0.013  0.00  0.00    +0.038 A 
ATOM     13  C   UNL     1       0.002  -0.004   0.002  0.00  0.00    +0.030 A 
ATOM     14  C   UNL     1      -0.016   1.352   0.009  0.00  0.00    +0.080 A 
ATOM     15  S   UNL     1       1.725   1.745  -0.005  0.00  0.00    -0.057 S 
ATOM     16 CL   UNL     1      -1.379   2.427   0.022  0.00  0.00    -0.076 Cl
ENDBRANCH   8  11
ENDBRANCH   4   8
BRANCH   1  18
ATOM     17  C   UNL     1       2.243   0.055  -5.615  0.00  0.00    -0.004 C 
ATOM     18  C   UNL     1       3.712  -0.352  -5.744  0.00  0.00    +0.017 C 
BRANCH  18  19
ATOM     19  C   UNL     1       3.810  -1.639  -6.523  0.00  0.00    +0.207 C 
ATOM     20  O   UNL     1       4.309  -2.619  -6.013  0.00  0.00    -0.277 OA
ATOM     21  N   UNL     1       3.343  -1.700  -7.785  0.00  0.00    -0.242 N 
ATOM     22  C   UNL     1       3.431  -2.851  -8.482  0.00  0.00    +0.306 C 
ATOM     23  O   UNL     1       3.931  -3.833  -7.971  0.00  0.00    -0.252 OA
ATOM     24  N   UNL     1       2.963  -2.912  -9.744  0.00  0.00    -0.291 N 
ATOM     25  H   UNL     1       2.890  -0.811  -8.248  0.00  0.00    +0.159 HD
ATOM     26  H   UNL     1       2.511  -2.022 -10.207  0.00  0.00    +0.151 HD
BRANCH  24  27
ATOM     27  C   UNL     1       3.059  -4.162 -10.501  0.00  0.00    +0.219 C 
BRANCH  27  28
ATOM     28  C   UNL     1       2.461  -3.962 -11.895  0.00  0.00    +0.405 C 
ATOM     29  F   UNL     1       3.166  -2.957 -12.565  0.00  0.00    -0.169 F 
ATOM     30  F   UNL     1       2.552  -5.157 -12.617  0.00  0.00    -0.169 F 
ATOM     31  F   UNL     1       1.117  -3.590 -11.777  0.00  0.00    -0.169 F 
ENDBRANCH  27  28
ENDBRANCH  24  27
ENDBRANCH  18  19
ENDBRANCH   1  18
TORSDOF 6
