REMARK  Name = ZINC13065527
REMARK  12 active torsions:
REMARK  status: ('A' for Active; 'I' for Inactive)
REMARK    1  A    between atoms: C_1  and  C_2
REMARK    2  A    between atoms: C_4  and  C_38
REMARK    3  A    between atoms: C_9  and  C_14
REMARK    4  A    between atoms: C_14  and  N_67
REMARK    5  A    between atoms: C_15  and  C_16
REMARK    6  A    between atoms: C_15  and  N_67
REMARK    7  A    between atoms: C_19  and  O_22
REMARK    8  A    between atoms: O_22  and  C_23
REMARK    9  A    between atoms: C_24  and  C_25
REMARK   10  A    between atoms: C_24  and  N_67
REMARK   11  A    between atoms: N_29  and  C_30
REMARK   12  A    between atoms: C_30  and  C_31
REMARK                            x       y       z     vdW  Elec       q    Type
REMARK                         _______ _______ _______ _____ _____    ______ ____
ROOT
ATOM      1  N   UNL     1      -1.397   7.915  -1.349  0.00  0.00    +0.390 N 
ATOM      2  H   UNL     1      -2.162   7.312  -1.674  0.00  0.00    -0.080 HD
ENDROOT
BRANCH   1   3
ATOM      3  C   UNL     1      -1.224   7.728   0.107  0.00  0.00    -0.036 C 
BRANCH   3  12
ATOM      4  C   UNL     1       2.015   1.325   2.143  0.00  0.00    +0.044 C 
ATOM      5  C   UNL     1       0.796   2.107   1.727  0.00  0.00    -0.050 A 
ATOM      6  C   UNL     1      -0.430   1.464   1.617  0.00  0.00    +0.008 A 
ATOM      7  C   UNL     1      -1.557   2.158   1.234  0.00  0.00    -0.026 A 
ATOM      8  C   UNL     1      -1.470   3.520   0.963  0.00  0.00    +0.052 A 
ATOM      9  C   UNL     1      -0.226   4.169   1.075  0.00  0.00    -0.001 A 
ATOM     10  C   UNL     1       0.906   3.443   1.461  0.00  0.00    +0.013 A 
ATOM     11  C   UNL     1      -0.143   5.601   0.783  0.00  0.00    +0.017 A 
ATOM     12  C   UNL     1      -1.274   6.253   0.414  0.00  0.00    +0.001 A 
ATOM     13  C   UNL     1      -2.497   5.556   0.318  0.00  0.00    +0.251 A 
ATOM     14  O   UNL     1      -3.501   6.161  -0.016  0.00  0.00    -0.268 OA
ATOM     15  N   UNL     1      -2.582   4.241   0.584  0.00  0.00    -0.322 N 
ATOM     16  H   UNL     1      -3.439   3.792   0.507  0.00  0.00    +0.169 HD
ATOM     17  C   UNL     1      -2.879   1.446   1.113  0.00  0.00    +0.046 C 
ENDBRANCH   3  12
ENDBRANCH   1   3
BRANCH   1  18
ATOM     18  C   UNL     1      -1.737   9.323  -1.640  0.00  0.00    -0.042 C 
BRANCH  18  19
ATOM     19  C   UNL     1      -3.110   9.615  -1.091  0.00  0.00    -0.064 A 
ATOM     20  C   UNL     1      -4.227   9.403  -1.878  0.00  0.00    +0.005 A 
ATOM     21  C   UNL     1      -5.487   9.665  -1.375  0.00  0.00    +0.046 A 
ATOM     22  C   UNL     1      -5.630  10.151  -0.084  0.00  0.00    +0.120 A 
ATOM     23  C   UNL     1      -4.507  10.368   0.702  0.00  0.00    +0.046 A 
ATOM     24  C   UNL     1      -3.249  10.100   0.196  0.00  0.00    +0.005 A 
BRANCH  22  25
ATOM     25  O   UNL     1      -6.868  10.414   0.412  0.00  0.00    -0.495 OA
ATOM     26  C   UNL     1      -7.978  10.167  -0.453  0.00  0.00    +0.277 C 
ENDBRANCH  22  25
ENDBRANCH  18  19
ENDBRANCH   1  18
BRANCH   1  27
ATOM     27  C   UNL     1      -0.155   7.538  -2.058  0.00  0.00    +0.001 C 
BRANCH  27  28
ATOM     28  C   UNL     1      -0.185   6.055  -2.324  0.00  0.00    +0.135 A 
ATOM     29  N   UNL     1       0.377   5.118  -1.599  0.00  0.00    -0.115 NA
ATOM     30  N   UNL     1       0.124   3.982  -2.152  0.00  0.00    -0.023 NA
ATOM     31  N   UNL     1      -0.578   4.170  -3.214  0.00  0.00    -0.044 NA
ATOM     32  N   UNL     1      -0.790   5.435  -3.354  0.00  0.00    -0.227 N 
BRANCH  32  33
ATOM     33  C   UNL     1      -1.547   6.077  -4.432  0.00  0.00    +0.182 C 
BRANCH  33  34
ATOM     34  C   UNL     1      -0.616   6.412  -5.569  0.00  0.00    -0.026 A 
ATOM     35  C   UNL     1       0.018   7.639  -5.604  0.00  0.00    +0.008 A 
ATOM     36  C   UNL     1       0.876   7.946  -6.644  0.00  0.00    +0.038 A 
ATOM     37  C   UNL     1       1.091   7.026  -7.656  0.00  0.00    +0.123 A 
ATOM     38  C   UNL     1       0.452   5.798  -7.623  0.00  0.00    +0.038 A 
ATOM     39  C   UNL     1      -0.402   5.492  -6.579  0.00  0.00    +0.008 A 
ATOM     40  F   UNL     1       1.926   7.326  -8.675  0.00  0.00    -0.205 F 
ENDBRANCH  33  34
ENDBRANCH  32  33
ENDBRANCH  27  28
ENDBRANCH   1  27
TORSDOF 9
