REMARK  Name = ZINC09298260
REMARK  7 active torsions:
REMARK  status: ('A' for Active; 'I' for Inactive)
REMARK    1  A    between atoms: C_1  and  C_2
REMARK    2  A    between atoms: C_2  and  O_3
REMARK    3  A    between atoms: O_3  and  C_4
REMARK    4  A    between atoms: C_7  and  C_9
REMARK    5  A    between atoms: C_13  and  N_14
REMARK    6  A    between atoms: C_15  and  C_17
REMARK    7  A    between atoms: C_29  and  C_33
REMARK                            x       y       z     vdW  Elec       q    Type
REMARK                         _______ _______ _______ _____ _____    ______ ____
ROOT
ATOM      1  C   UNL     1       0.827  10.397   0.058  0.00  0.00    +0.069 A 
ATOM      2  C   UNL     1       0.497  11.812   0.062  0.00  0.00    -0.023 A 
ATOM      3  C   UNL     1      -0.824  12.095   0.076  0.00  0.00    -0.004 A 
ATOM      4  S   UNL     1      -1.625  10.516   0.074  0.00  0.00    -0.077 S 
ATOM      5  C   UNL     1      -0.227   9.493   0.056  0.00  0.00    +0.085 A 
ATOM      6  C   UNL     1      -1.456  13.452   0.090  0.00  0.00    +0.046 C 
ATOM      7  C   UNL     1      -0.382  14.483   0.464  0.00  0.00    -0.009 C 
ATOM      8  C   UNL     1       0.866  14.226  -0.386  0.00  0.00    +0.008 C 
ATOM      9  C   UNL     1       1.538  12.925   0.058  0.00  0.00    +0.037 C 
ATOM     10  C   UNL     1      -0.908  15.894   0.193  0.00  0.00    +0.008 C 
ENDROOT
BRANCH   1  14
ATOM     11  C   UNL     1       4.144   9.306   1.208  0.00  0.00    +0.407 C 
ATOM     12  O   UNL     1       4.718   9.123   0.153  0.00  0.00    -0.226 OA
ATOM     13  N   UNL     1       2.863   9.725   1.215  0.00  0.00    -0.217 N 
ATOM     14  C   UNL     1       2.219   9.941   0.051  0.00  0.00    +0.255 C 
ATOM     15  O   UNL     1       2.794   9.758  -1.006  0.00  0.00    -0.270 OA
ATOM     16  H   UNL     1       2.405   9.871   2.057  0.00  0.00    +0.161 HD
BRANCH  11  17
ATOM     17  O   UNL     1       4.787   9.090   2.371  0.00  0.00    -0.450 OA
BRANCH  17  19
ATOM     18  C   UNL     1       6.726   8.450   3.699  0.00  0.00    +0.048 C 
ATOM     19  C   UNL     1       6.165   8.640   2.288  0.00  0.00    +0.230 C 
ENDBRANCH  17  19
ENDBRANCH  11  17
ENDBRANCH   1  14
BRANCH   5  20
ATOM     20  N   UNL     1      -0.174   8.109   0.048  0.00  0.00    -0.275 N 
ATOM     21  C   UNL     1      -1.314   7.391   0.055  0.00  0.00    +0.256 C 
ATOM     22  O   UNL     1      -2.390   7.958   0.067  0.00  0.00    -0.270 OA
ATOM     23  H   UNL     1       0.684   7.657   0.038  0.00  0.00    +0.156 HD
BRANCH  21  24
ATOM     24  C   UNL     1      -1.258   5.920   0.046  0.00  0.00    +0.122 A 
ATOM     25  C   UNL     1      -0.040   5.261   0.030  0.00  0.00    +0.031 A 
ATOM     26  C   UNL     1      -0.032   3.844   0.023  0.00  0.00    +0.018 A 
ATOM     27  C   UNL     1       1.184   3.144   0.008  0.00  0.00    +0.011 A 
ATOM     28  C   UNL     1       1.184   1.780   0.000  0.00  0.00    +0.001 A 
ATOM     29  C   UNL     1      -0.013   1.076   0.008  0.00  0.00    +0.004 A 
ATOM     30  C   UNL     1      -1.219   1.742   0.017  0.00  0.00    +0.047 A 
ATOM     31  C   UNL     1      -1.246   3.133   0.031  0.00  0.00    +0.139 A 
ATOM     32  O   UNL     1      -2.429   3.783   0.045  0.00  0.00    -0.422 OA
ATOM     33  C   UNL     1      -2.491   5.125   0.053  0.00  0.00    +0.350 A 
ATOM     34  O   UNL     1      -3.573   5.682   0.066  0.00  0.00    -0.244 OA
ENDBRANCH  21  24
ENDBRANCH   5  20
TORSDOF 5
