REMARK  Name = ZINC62873674
REMARK  6 active torsions:
REMARK  status: ('A' for Active; 'I' for Inactive)
REMARK    1  A    between atoms: C_1  and  C_2
REMARK    2  A    between atoms: C_2  and  C_3
REMARK    3  A    between atoms: C_3  and  C_4
REMARK    4  A    between atoms: C_4  and  C_18
REMARK    5  A    between atoms: N_12  and  C_13
REMARK    6  A    between atoms: C_13  and  C_14
REMARK                            x       y       z     vdW  Elec       q    Type
REMARK                         _______ _______ _______ _____ _____    ______ ____
ROOT
ATOM      1  C   UNL     1       0.736  -2.031  -1.261  0.00  0.00    +0.088 C 
ATOM      2  C   UNL     1       1.455  -2.521  -2.520  0.00  0.00    +0.021 C 
ATOM      3  C   UNL     1       2.879  -1.959  -2.548  0.00  0.00    +0.020 C 
ATOM      4  C   UNL     1       3.647  -2.467  -1.324  0.00  0.00    +0.109 C 
ATOM      5  N   UNL     1       2.888  -2.126  -0.114  0.00  0.00    -0.285 N 
ATOM      6  C   UNL     1       1.481  -2.539  -0.023  0.00  0.00    +0.127 C 
ATOM      7  C   UNL     1       3.471  -1.447   0.894  0.00  0.00    +0.302 C 
ATOM      8  O   UNL     1       2.808  -1.088   1.848  0.00  0.00    -0.253 OA
ATOM      9  N   UNL     1       4.788  -1.166   0.844  0.00  0.00    -0.299 N 
ATOM     10  H   UNL     1       5.302  -1.388   0.052  0.00  0.00    +0.150 HD
ENDROOT
BRANCH   1  11
ATOM     11  C   UNL     1      -0.676  -2.557  -1.250  0.00  0.00    +0.364 C 
ATOM     12  O   UNL     1      -1.615  -1.780  -1.235  0.00  0.00    -0.246 OA
ATOM     13  O   UNL     1      -0.878  -3.759  -1.257  0.00  0.00    -0.246 OA
ENDBRANCH   1  11
BRANCH   1  14
ATOM     14  C   UNL     1       0.712  -0.501  -1.250  0.00  0.00    +0.019 C 
BRANCH  14  16
ATOM     15  C   UNL     1      -0.028   1.518   0.023  0.00  0.00    +0.004 C 
ATOM     16  C   UNL     1      -0.004  -0.012   0.011  0.00  0.00    -0.002 C 
ENDBRANCH  14  16
ENDBRANCH   1  14
BRANCH   9  17
ATOM     17  C   UNL     1       5.444  -0.525   1.987  0.00  0.00    +0.109 C 
BRANCH  17  18
ATOM     18  C   UNL     1       6.928  -0.319   1.673  0.00  0.00    +0.006 C 
ATOM     19  C   UNL     1       7.807  -1.528   2.035  0.00  0.00    +0.005 C 
ATOM     20  C   UNL     1       8.852  -0.517   2.537  0.00  0.00    +0.001 C 
ATOM     21  C   UNL     1       7.685   0.459   2.762  0.00  0.00    +0.005 C 
ENDBRANCH  17  18
ENDBRANCH   9  17
TORSDOF 5
