REMARK  Name = ZINC39354475
REMARK  4 active torsions:
REMARK  status: ('A' for Active; 'I' for Inactive)
REMARK    1  A    between atoms: C_1  and  C_2
REMARK    2  A    between atoms: C_7  and  O_8
REMARK    3  A    between atoms: O_8  and  C_9
REMARK    4  A    between atoms: C_9  and  C_10
REMARK                            x       y       z     vdW  Elec       q    Type
REMARK                         _______ _______ _______ _____ _____    ______ ____
ROOT
ATOM      1  C   UNL     1      -0.074   0.255   4.865  0.00  0.00    +0.255 C 
ATOM      2  O   UNL     1      -0.162   1.464   4.887  0.00  0.00    -0.272 OA
ATOM      3  N   UNL     1       0.066  -0.431   6.017  0.00  0.00    -0.283 N 
ATOM      4  C   UNL     1       1.060  -0.148   6.837  0.00  0.00    +0.036 C 
ATOM      5  C   UNL     1       2.083   0.827   6.440  0.00  0.00    +0.025 C 
ATOM      6  C   UNL     1       3.101   1.121   7.273  0.00  0.00    +0.032 C 
ATOM      7  C   UNL     1       3.192   0.469   8.582  0.00  0.00    +0.095 C 
ATOM      8  N   UNL     1       4.041   0.542   9.590  0.00  0.00    -0.190 NA
ATOM      9  C   UNL     1       3.642  -0.290  10.567  0.00  0.00    +0.369 C 
ATOM     10  O   UNL     1       4.295  -0.453  11.742  0.00  0.00    -0.243 OA
ATOM     11  N   UNL     1       2.541  -0.924  10.239  0.00  0.00    -0.190 NA
ATOM     12  C   UNL     1       2.169  -0.512   8.992  0.00  0.00    +0.097 C 
ATOM     13  C   UNL     1       1.139  -0.808   8.158  0.00  0.00    +0.053 C 
ATOM     14  H   UNL     1      -0.564  -1.134   6.243  0.00  0.00    +0.155 HD
ENDROOT
BRANCH   1  15
ATOM     15  C   UNL     1      -0.121  -0.481   3.551  0.00  0.00    +0.324 C 
BRANCH  15  16
ATOM     16  O   UNL     1      -0.273   0.458   2.485  0.00  0.00    -0.483 OA
BRANCH  16  23
ATOM     17  C   UNL     1      -0.575   2.298   0.363  0.00  0.00    +0.047 C 
ATOM     18  C   UNL     1      -0.481   0.810   0.141  0.00  0.00    -0.007 A 
ATOM     19  C   UNL     1      -0.535   0.298  -1.141  0.00  0.00    +0.027 A 
ATOM     20  C   UNL     1      -0.449  -1.068  -1.345  0.00  0.00    +0.041 A 
ATOM     21  C   UNL     1      -0.308  -1.923  -0.266  0.00  0.00    +0.023 A 
ATOM     22  C   UNL     1      -0.253  -1.414   1.017  0.00  0.00    +0.047 A 
ATOM     23  C   UNL     1      -0.333  -0.044   1.223  0.00  0.00    +0.124 A 
ATOM     24 CL   UNL     1      -0.519  -1.709  -2.956  0.00  0.00    -0.084 Cl
ENDBRANCH  16  23
ENDBRANCH  15  16
ENDBRANCH   1  15
TORSDOF 3
