REMARK  Name = ZINC20275552
REMARK  6 active torsions:
REMARK  status: ('A' for Active; 'I' for Inactive)
REMARK    1  A    between atoms: C_1  and  C_2
REMARK    2  A    between atoms: C_17  and  C_35
REMARK    3  A    between atoms: C_22  and  C_23
REMARK    4  A    between atoms: C_22  and  O_34
REMARK    5  A    between atoms: C_23  and  N_24
REMARK    6  A    between atoms: N_27  and  C_28
REMARK                            x       y       z     vdW  Elec       q    Type
REMARK                         _______ _______ _______ _____ _____    ______ ____
ROOT
ATOM      1  C   UNL     1      -0.761   3.093   1.292  0.00  0.00    +0.012 C 
ATOM      2  C   UNL     1      -0.714   1.561   1.272  0.00  0.00    -0.026 C 
ATOM      3  C   UNL     1      -2.158   1.053   1.280  0.00  0.00    +0.007 C 
ATOM      4  C   UNL     1      -2.903   1.526   0.033  0.00  0.00    +0.001 C 
ATOM      5  C   UNL     1      -2.184   1.039  -1.225  0.00  0.00    +0.000 C 
ATOM      6  C   UNL     1      -0.750   1.570  -1.243  0.00  0.00    +0.004 C 
ATOM      7  C   UNL     1      -0.013   1.097   0.008  0.00  0.00    -0.005 C 
ATOM      8  C   UNL     1       1.430   1.596  -0.003  0.00  0.00    +0.004 C 
ATOM      9  C   UNL     1       2.176   0.988   1.172  0.00  0.00    +0.004 C 
ATOM     10  C   UNL     1       1.520   1.273   2.515  0.00  0.00    -0.004 C 
ATOM     11  C   UNL     1       0.014   1.139   2.525  0.00  0.00    -0.001 C 
ATOM     12  C   UNL     1      -0.419  -0.222   3.054  0.00  0.00    +0.005 C 
ATOM     13  C   UNL     1      -0.102  -0.318   4.558  0.00  0.00    +0.010 C 
ATOM     14  C   UNL     1       1.263   0.264   4.822  0.00  0.00    +0.001 C 
ATOM     15  C   UNL     1       2.099   0.288   3.525  0.00  0.00    +0.001 C 
ATOM     16  C   UNL     1       3.486   0.701   4.054  0.00  0.00    +0.007 C 
ATOM     17  C   UNL     1       3.616  -0.103   5.373  0.00  0.00    +0.037 C 
ATOM     18  C   UNL     1       2.175  -0.512   5.781  0.00  0.00    +0.087 C 
ATOM     19  C   UNL     1       1.112   1.684   5.395  0.00  0.00    +0.014 C 
ENDROOT
BRANCH  18  20
ATOM     20  O   UNL     1       1.920  -0.109   7.128  0.00  0.00    -0.386 OA
ATOM     21  H   UNL     1       2.486  -0.564   7.955  0.00  0.00    +0.210 HD
ENDBRANCH  18  20
BRANCH  18  22
ATOM     22  C   UNL     1       2.022  -2.022   5.638  0.00  0.00    +0.141 C 
BRANCH  22  23
ATOM     23  N   UNL     1       2.919  -2.696   6.581  0.00  0.00    -0.297 N 
ATOM     24  C   UNL     1       2.955  -4.042   6.632  0.00  0.00    +0.300 C 
ATOM     25  O   UNL     1       2.244  -4.698   5.896  0.00  0.00    -0.253 OA
ATOM     26  N   UNL     1       3.780  -4.661   7.500  0.00  0.00    -0.297 N 
ATOM     27  H   UNL     1       3.563  -2.102   7.247  0.00  0.00    +0.150 HD
ATOM     28  H   UNL     1       4.424  -4.068   8.165  0.00  0.00    +0.151 HD
BRANCH  26  29
ATOM     29  C   UNL     1       3.820  -6.125   7.556  0.00  0.00    +0.074 C 
ATOM     30  C   UNL     1       2.709  -6.630   8.479  0.00  0.00    +0.022 C 
ATOM     31  C   UNL     1       2.750  -8.158   8.537  0.00  0.00    +0.002 C 
ATOM     32  C   UNL     1       4.107  -8.611   9.078  0.00  0.00    +0.000 C 
ATOM     33  C   UNL     1       5.218  -8.106   8.155  0.00  0.00    +0.002 C 
ATOM     34  C   UNL     1       5.177  -6.578   8.096  0.00  0.00    +0.022 C 
ENDBRANCH  26  29
ENDBRANCH  22  23
ENDBRANCH  18  22
TORSDOF 4
