REMARK  Name = ZINC34678394
REMARK  7 active torsions:
REMARK  status: ('A' for Active; 'I' for Inactive)
REMARK    1  A    between atoms: C_4  and  N_7
REMARK    2  A    between atoms: C_13  and  C_15
REMARK    3  A    between atoms: C_18  and  C_20
REMARK    4  A    between atoms: C_20  and  N_21
REMARK    5  A    between atoms: N_24  and  C_27
REMARK    6  A    between atoms: C_27  and  C_28
REMARK    7  A    between atoms: C_30  and  N_35
REMARK                            x       y       z     vdW  Elec       q    Type
REMARK                         _______ _______ _______ _____ _____    ______ ____
ROOT
ATOM      1  C   UNL     1       6.306  -3.636   1.077  0.00  0.00    +0.164 A 
ATOM      2  C   UNL     1       7.420  -4.382   1.308  0.00  0.00    +0.230 A 
ATOM      3  O   UNL     1       7.037  -5.669   1.306  0.00  0.00    -0.449 OA
ATOM      4  C   UNL     1       5.717  -5.713   1.078  0.00  0.00    +0.179 A 
ATOM      5  N   UNL     1       5.265  -4.502   0.944  0.00  0.00    -0.210 NA
ENDROOT
BRANCH   1  12
ATOM      6  N   UNL     1       2.854  -0.250   1.882  0.00  0.00    -0.327 N 
ATOM      7  C   UNL     1       2.932  -1.701   2.103  0.00  0.00    +0.124 C 
ATOM      8  C   UNL     1       3.795  -2.319   0.996  0.00  0.00    +0.127 C 
ATOM      9  N   UNL     1       5.043  -1.551   0.889  0.00  0.00    -0.293 N 
ATOM     10  C   UNL     1       4.965  -0.100   0.668  0.00  0.00    +0.127 C 
ATOM     11  C   UNL     1       4.102   0.518   1.769  0.00  0.00    +0.124 C 
ATOM     12  C   UNL     1       6.238  -2.166   0.992  0.00  0.00    +0.268 C 
ATOM     13  O   UNL     1       7.261  -1.507   1.016  0.00  0.00    -0.268 OA
BRANCH   6  17
ATOM     14  C   UNL     1      -0.838   1.649   1.562  0.00  0.00    +0.000 A 
ATOM     15  C   UNL     1       0.325   2.398   1.570  0.00  0.00    +0.002 A 
ATOM     16  C   UNL     1       1.551   1.771   1.676  0.00  0.00    +0.023 A 
ATOM     17  C   UNL     1       1.615   0.387   1.775  0.00  0.00    +0.030 A 
ATOM     18  C   UNL     1       0.446  -0.362   1.767  0.00  0.00    +0.023 A 
ATOM     19  C   UNL     1      -0.777   0.271   1.660  0.00  0.00    +0.002 A 
ENDBRANCH   6  17
ENDBRANCH   1  12
BRANCH   4  20
ATOM     20  C   UNL     1       4.887  -6.968   0.995  0.00  0.00    +0.019 C 
BRANCH  20  21
ATOM     21  N   UNL     1       4.856  -7.443  -0.394  0.00  0.00    +0.387 N 
ATOM     22  C   UNL     1       4.159  -6.459  -1.233  0.00  0.00    -0.063 C 
ATOM     23  C   UNL     1       4.142  -6.945  -2.684  0.00  0.00    +0.066 C 
ATOM     24  N   UNL     1       3.460  -8.245  -2.754  0.00  0.00    -0.302 NA
ATOM     25  C   UNL     1       4.132  -9.234  -1.900  0.00  0.00    +0.066 C 
ATOM     26  C   UNL     1       4.149  -8.729  -0.456  0.00  0.00    -0.063 C 
ATOM     27  H   UNL     1       5.800  -7.562  -0.730  0.00  0.00    -0.081 HD
BRANCH  24  28
ATOM     28  C   UNL     1       3.373  -8.719  -4.142  0.00  0.00    +0.121 C 
BRANCH  28  29
ATOM     29  C   UNL     1       2.517  -9.958  -4.196  0.00  0.00    -0.013 A 
ATOM     30  C   UNL     1       3.108 -11.204  -4.297  0.00  0.00    +0.039 A 
ATOM     31  C   UNL     1       2.323 -12.340  -4.348  0.00  0.00    +0.127 A 
ATOM     32  C   UNL     1       0.946 -12.232  -4.298  0.00  0.00    +0.034 A 
ATOM     33  C   UNL     1       0.353 -10.987  -4.197  0.00  0.00    +0.022 A 
ATOM     34  C   UNL     1       1.139  -9.850  -4.140  0.00  0.00    +0.046 A 
ATOM     35 CL   UNL     1       0.396  -8.287  -4.005  0.00  0.00    -0.083 Cl
BRANCH  31  36
ATOM     36  N   UNL     1       2.957 -13.673  -4.457  0.00  0.00    +0.056 N 
ATOM     37  O   UNL     1       4.161 -13.768  -4.501  0.00  0.00    -0.126 OA
ATOM     38  O   UNL     1       2.270 -14.667  -4.501  0.00  0.00    -0.126 OA
ENDBRANCH  31  36
ENDBRANCH  28  29
ENDBRANCH  24  28
ENDBRANCH  20  21
ENDBRANCH   4  20
TORSDOF 7
