REMARK  Name = ZINC01801761
REMARK  7 active torsions:
REMARK  status: ('A' for Active; 'I' for Inactive)
REMARK    1  A    between atoms: C_1  and  C_2
REMARK    2  A    between atoms: C_5  and  S_8
REMARK    3  A    between atoms: S_8  and  N_11
REMARK    4  A    between atoms: C_16  and  C_17
REMARK    5  A    between atoms: C_16  and  N_52
REMARK    6  A    between atoms: N_19  and  N_20
REMARK    7  A    between atoms: C_21  and  C_22
REMARK                            x       y       z     vdW  Elec       q    Type
REMARK                         _______ _______ _______ _____ _____    ______ ____
ROOT
ATOM      1  N   UNL     1      -4.749  -3.497   2.981  0.00  0.00    -0.180 NA
ATOM      2  C   UNL     1      -3.991  -4.351   2.055  0.00  0.00    +0.091 C 
ATOM      3  C   UNL     1      -2.538  -3.866   2.025  0.00  0.00    -0.061 C 
ATOM      4  C   UNL     1      -3.180  -1.644   2.755  0.00  0.00    -0.061 C 
ATOM      5  C   UNL     1      -4.660  -2.038   2.814  0.00  0.00    +0.091 C 
ATOM      6  N   UNL     1      -2.524  -2.427   1.684  0.00  0.00    +0.387 N 
ATOM      7  H   UNL     1      -3.038  -2.287   0.807  0.00  0.00    -0.081 HD
ENDROOT
BRANCH   1   8
ATOM      8  S   UNL     1      -5.678  -4.159   4.181  0.00  0.00    +0.061 S 
ATOM      9  O   UNL     1      -6.668  -3.194   4.509  0.00  0.00    -0.153 OA
ATOM     10  O   UNL     1      -6.008  -5.476   3.759  0.00  0.00    -0.153 OA
BRANCH   8  15
ATOM     11  C   UNL     1      -2.159  -4.739   9.048  0.00  0.00    +0.044 C 
ATOM     12  C   UNL     1      -3.039  -4.595   7.833  0.00  0.00    -0.050 A 
ATOM     13  C   UNL     1      -3.759  -3.431   7.635  0.00  0.00    +0.005 A 
ATOM     14  C   UNL     1      -4.565  -3.298   6.520  0.00  0.00    +0.029 A 
ATOM     15  C   UNL     1      -4.651  -4.329   5.603  0.00  0.00    +0.105 A 
ATOM     16  C   UNL     1      -3.934  -5.494   5.803  0.00  0.00    +0.029 A 
ATOM     17  C   UNL     1      -3.125  -5.625   6.915  0.00  0.00    +0.005 A 
ENDBRANCH   8  15
ENDBRANCH   1   8
BRANCH   6  18
ATOM     18  C   UNL     1      -1.132  -1.964   1.503  0.00  0.00    +0.020 C 
BRANCH  18  19
ATOM     19  C   UNL     1      -1.155  -0.564   0.948  0.00  0.00    +0.216 C 
ATOM     20  O   UNL     1      -2.214  -0.009   0.745  0.00  0.00    -0.276 OA
ATOM     21  N   UNL     1       0.002   0.072   0.676  0.00  0.00    -0.209 N 
ATOM     22  H   UNL     1       0.849  -0.372   0.839  0.00  0.00    +0.177 HD
BRANCH  21  23
ATOM     23  N   UNL     1      -0.019   1.374   0.160  0.00  0.00    -0.188 NA
ATOM     24  C   UNL     1       1.087   1.942  -0.212  0.00  0.00    +0.138 C 
BRANCH  24  25
ATOM     25  C   UNL     1       2.262   1.118  -0.549  0.00  0.00    -0.004 A 
ATOM     26  C   UNL     1       2.122  -0.259  -0.740  0.00  0.00    +0.011 A 
ATOM     27  C   UNL     1       3.224  -1.023  -1.061  0.00  0.00    +0.022 A 
ATOM     28  C   UNL     1       4.470  -0.432  -1.181  0.00  0.00    +0.059 A 
ATOM     29  C   UNL     1       4.618   0.933  -0.987  0.00  0.00    +0.060 A 
ATOM     30  C   UNL     1       3.522   1.710  -0.671  0.00  0.00    +0.031 A 
ATOM     31 CL   UNL     1       6.184   1.665  -1.140  0.00  0.00    -0.082 Cl
ATOM     32 CL   UNL     1       5.854  -1.403  -1.577  0.00  0.00    -0.082 Cl
ENDBRANCH  24  25
ENDBRANCH  21  23
ENDBRANCH  18  19
ENDBRANCH   6  18
TORSDOF 6
