REMARK  Name = ZINC22684770
REMARK  15 active torsions:
REMARK  status: ('A' for Active; 'I' for Inactive)
REMARK    1  A    between atoms: C_1  and  C_2
REMARK    2  A    between atoms: C_2  and  C_3
REMARK    3  A    between atoms: C_6  and  C_9
REMARK    4  A    between atoms: C_9  and  C_11
REMARK    5  A    between atoms: C_9  and  N_30
REMARK    6  A    between atoms: C_11  and  N_12
REMARK    7  A    between atoms: C_13  and  C_15
REMARK    8  A    between atoms: C_15  and  C_16
REMARK    9  A    between atoms: C_16  and  C_17
REMARK   10  A    between atoms: C_18  and  C_29
REMARK   11  A    between atoms: C_20  and  C_28
REMARK   12  A    between atoms: N_22  and  C_27
REMARK   13  A    between atoms: C_25  and  C_26
REMARK   14  A    between atoms: N_30  and  C_31
REMARK   15  A    between atoms: N_30  and  C_32
REMARK                            x       y       z     vdW  Elec       q    Type
REMARK                         _______ _______ _______ _____ _____    ______ ____
ROOT
ATOM      1  N   UNL     1      -0.635   2.119   5.680  0.00  0.00    -0.317 N 
ATOM      2  C   UNL     1       0.423   1.850   4.891  0.00  0.00    +0.213 C 
ATOM      3  O   UNL     1       1.478   2.421   5.075  0.00  0.00    -0.276 OA
ATOM      4  H   UNL     1      -1.591   1.601   5.514  0.00  0.00    +0.149 HD
ENDROOT
BRANCH   1   5
ATOM      5  C   UNL     1      -0.513   3.102   6.760  0.00  0.00    +0.093 C 
BRANCH   5   6
ATOM      6  C   UNL     1      -1.868   3.272   7.450  0.00  0.00    -0.021 C 
BRANCH   6  10
ATOM      7  C   UNL     1      -1.455   5.949  10.754  0.00  0.00    -0.048 A 
ATOM      8  C   UNL     1      -1.347   4.585  10.951  0.00  0.00    +0.004 A 
ATOM      9  C   UNL     1      -1.481   3.719   9.883  0.00  0.00    +0.002 A 
ATOM     10  C   UNL     1      -1.722   4.217   8.616  0.00  0.00    -0.059 A 
ATOM     11  C   UNL     1      -1.825   5.581   8.417  0.00  0.00    +0.002 A 
ATOM     12  C   UNL     1      -1.696   6.447   9.487  0.00  0.00    +0.004 A 
BRANCH   7  14
ATOM     13  C   UNL     1       0.161   7.290  12.072  0.00  0.00    +0.009 C 
ATOM     14  C   UNL     1      -1.308   6.893  11.919  0.00  0.00    +0.032 C 
ENDBRANCH   7  14
ENDBRANCH   6  10
BRANCH   6  15
ATOM     15  N   UNL     1      -2.839   3.820   6.494  0.00  0.00    +0.382 N 
ATOM     16  C   UNL     1      -2.164   4.593   5.443  0.00  0.00    -0.096 C 
ATOM     17  C   UNL     1      -3.667   2.754   5.915  0.00  0.00    -0.096 C 
ATOM     18  H   UNL     1      -3.504   4.504   7.042  0.00  0.00    -0.082 HD
ENDBRANCH   6  15
ENDBRANCH   5   6
ENDBRANCH   1   5
BRANCH   2  19
ATOM     19  C   UNL     1       0.298   0.839   3.781  0.00  0.00    +0.100 C 
BRANCH  19  20
ATOM     20  C   UNL     1       1.633   0.722   3.043  0.00  0.00    +0.046 C 
BRANCH  20  21
ATOM     21  C   UNL     1       1.508  -0.289   1.933  0.00  0.00    -0.022 A 
ATOM     22  C   UNL     1       1.114   0.108   0.681  0.00  0.00    -0.033 A 
ATOM     23  C   UNL     1       1.005  -0.867  -0.317  0.00  0.00    +0.045 A 
ATOM     24  C   UNL     1       0.624  -0.845  -1.724  0.00  0.00    +0.069 A 
ATOM     25  N   UNL     1       0.702  -2.065  -2.174  0.00  0.00    -0.174 NA
ATOM     26  N   UNL     1       1.128  -2.926  -1.157  0.00  0.00    -0.249 N 
ATOM     27  C   UNL     1       1.312  -2.208  -0.007  0.00  0.00    +0.159 A 
ATOM     28  N   UNL     1       1.688  -2.532   1.224  0.00  0.00    -0.232 NA
ATOM     29  C   UNL     1       1.789  -1.626   2.172  0.00  0.00    +0.044 A 
ATOM     30  C   UNL     1       2.220  -2.052   3.552  0.00  0.00    +0.066 C 
ATOM     31  C   UNL     1       1.328  -4.370  -1.297  0.00  0.00    +0.174 C 
ATOM     32  C   UNL     1       0.215   0.370  -2.516  0.00  0.00    +0.068 C 
ATOM     33  C   UNL     1       0.801   1.553   0.390  0.00  0.00    +0.045 C 
ENDBRANCH  20  21
ENDBRANCH  19  20
ENDBRANCH   2  19
TORSDOF 8
