REMARK  Name = ZINC38736710
REMARK  8 active torsions:
REMARK  status: ('A' for Active; 'I' for Inactive)
REMARK    1  A    between atoms: C_1  and  C_2
REMARK    2  A    between atoms: C_2  and  C_3
REMARK    3  A    between atoms: C_2  and  C_4
REMARK    4  A    between atoms: N_6  and  C_7
REMARK    5  A    between atoms: C_10  and  S_13
REMARK    6  A    between atoms: S_13  and  N_16
REMARK    7  A    between atoms: N_16  and  C_17
REMARK    8  A    between atoms: C_20  and  C_23
REMARK                            x       y       z     vdW  Elec       q    Type
REMARK                         _______ _______ _______ _____ _____    ______ ____
ROOT
ATOM      1  N   UNL     1      -7.800  -4.332  -1.827  0.00  0.00    -0.216 N 
ATOM      2  H   UNL     1      -8.505  -3.734  -2.119  0.00  0.00    +0.174 HD
ENDROOT
BRANCH   1   3
ATOM      3  C   UNL     1      -7.274  -5.275  -2.711  0.00  0.00    +0.048 A 
ATOM      4  C   UNL     1      -5.898  -5.450  -2.801  0.00  0.00    +0.025 A 
ATOM      5  C   UNL     1      -5.377  -6.381  -3.674  0.00  0.00    +0.012 A 
ATOM      6  C   UNL     1      -6.230  -7.147  -4.466  0.00  0.00    +0.002 A 
ATOM      7  C   UNL     1      -7.610  -6.970  -4.374  0.00  0.00    +0.012 A 
ATOM      8  C   UNL     1      -8.128  -6.042  -3.496  0.00  0.00    +0.025 A 
BRANCH   6   9
ATOM      9  C   UNL     1      -5.671  -8.148  -5.407  0.00  0.00    +0.093 A 
ATOM     10  C   UNL     1      -6.527  -8.914  -6.207  0.00  0.00    +0.033 A 
ATOM     11  C   UNL     1      -5.958  -9.834  -7.068  0.00  0.00    +0.047 A 
ATOM     12  C   UNL     1      -4.567  -9.943  -7.085  0.00  0.00    +0.144 A 
ATOM     13  N   UNL     1      -3.834  -9.176  -6.292  0.00  0.00    -0.134 NA
ATOM     14  N   UNL     1      -4.359  -8.317  -5.495  0.00  0.00    -0.147 NA
ATOM     15  N   UNL     1      -3.950 -10.855  -7.934  0.00  0.00    -0.314 N 
ATOM     16  C   UNL     1      -2.516 -11.146  -7.807  0.00  0.00    +0.106 C 
ATOM     17  C   UNL     1      -2.329 -12.660  -7.669  0.00  0.00    +0.019 C 
ATOM     18  C   UNL     1      -3.011 -13.363  -8.845  0.00  0.00    +0.003 C 
ATOM     19  C   UNL     1      -4.510 -13.057  -8.825  0.00  0.00    +0.019 C 
ATOM     20  C   UNL     1      -4.723 -11.552  -8.972  0.00  0.00    +0.106 C 
ENDBRANCH   6   9
ENDBRANCH   1   3
BRANCH   1  21
ATOM     21  S   UNL     1      -7.220  -4.235  -0.279  0.00  0.00    +0.072 S 
ATOM     22  O   UNL     1      -7.990  -3.240   0.382  0.00  0.00    -0.150 OA
ATOM     23  O   UNL     1      -5.805  -4.160  -0.379  0.00  0.00    -0.150 OA
BRANCH  21  27
ATOM     24  C   UNL     1      -8.168  -8.168   1.756  0.00  0.00    +0.034 A 
ATOM     25  C   UNL     1      -6.926  -7.971   1.168  0.00  0.00    +0.025 A 
ATOM     26  C   UNL     1      -6.640  -6.770   0.549  0.00  0.00    +0.030 A 
ATOM     27  C   UNL     1      -7.589  -5.765   0.513  0.00  0.00    +0.109 A 
ATOM     28  C   UNL     1      -8.827  -5.959   1.098  0.00  0.00    +0.030 A 
ATOM     29  C   UNL     1      -9.122  -7.159   1.714  0.00  0.00    +0.025 A 
BRANCH  24  32
ATOM     30  C   UNL     1      -9.707  -9.894   2.318  0.00  0.00    +0.220 C 
ATOM     31  O   UNL     1     -10.595  -9.257   1.792  0.00  0.00    -0.275 OA
ATOM     32  N   UNL     1      -8.461  -9.384   2.385  0.00  0.00    -0.285 N 
ATOM     33  H   UNL     1      -7.768  -9.859   2.869  0.00  0.00    +0.155 HD
BRANCH  30  35
ATOM     34  C   UNL     1     -11.473 -11.595   2.689  0.00  0.00    +0.017 C 
ATOM     35  C   UNL     1      -9.995 -11.256   2.895  0.00  0.00    +0.069 C 
ATOM     36  C   UNL     1      -9.129 -12.302   2.192  0.00  0.00    +0.017 C 
ENDBRANCH  30  35
ENDBRANCH  24  32
ENDBRANCH  21  27
ENDBRANCH   1  21
TORSDOF 6
