REMARK  Name = ZINC02645826
REMARK  8 active torsions:
REMARK  status: ('A' for Active; 'I' for Inactive)
REMARK    1  A    between atoms: C_1  and  C_2
REMARK    2  A    between atoms: C_3  and  C_35
REMARK    3  A    between atoms: C_11  and  C_13
REMARK    4  A    between atoms: C_13  and  S_14
REMARK    5  A    between atoms: S_14  and  C_15
REMARK    6  A    between atoms: C_18  and  C_29
REMARK    7  A    between atoms: N_19  and  C_20
REMARK    8  A    between atoms: C_26  and  C_28
REMARK                            x       y       z     vdW  Elec       q    Type
REMARK                         _______ _______ _______ _____ _____    ______ ____
ROOT
ATOM      1  C   UNL     1      -2.610   9.641  -0.217  0.00  0.00    +0.193 A 
ATOM      2  N   UNL     1      -1.717  10.550   0.105  0.00  0.00    -0.122 NA
ATOM      3  N   UNL     1      -2.300  11.658   0.395  0.00  0.00    -0.128 NA
ATOM      4  C   UNL     1      -3.601  11.522   0.284  0.00  0.00    +0.167 A 
ATOM      5  N   UNL     1      -3.840  10.226  -0.112  0.00  0.00    -0.299 N 
ENDROOT
BRANCH   5   6
ATOM      6  C   UNL     1      -5.141   9.604  -0.366  0.00  0.00    +0.094 C 
ATOM      7  C   UNL     1      -5.383   8.491   0.655  0.00  0.00    +0.025 C 
ATOM      8  C   UNL     1      -6.742   7.841   0.389  0.00  0.00    +0.002 C 
ATOM      9  C   UNL     1      -6.757   7.250  -1.022  0.00  0.00    +0.000 C 
ATOM     10  C   UNL     1      -6.516   8.363  -2.044  0.00  0.00    +0.005 C 
ATOM     11  C   UNL     1      -5.156   9.013  -1.778  0.00  0.00    +0.009 C 
ATOM     12  C   UNL     1      -4.915  10.126  -2.799  0.00  0.00    +0.009 C 
ENDBRANCH   5   6
BRANCH   4  13
ATOM     13  C   UNL     1      -4.618  12.565   0.537  0.00  0.00    +0.037 A 
ATOM     14  C   UNL     1      -5.890  12.220   1.009  0.00  0.00    +0.014 A 
ATOM     15  C   UNL     1      -6.803  13.234   1.235  0.00  0.00    +0.020 A 
ATOM     16  C   UNL     1      -6.438  14.543   0.979  0.00  0.00    +0.111 A 
ATOM     17  N   UNL     1      -5.234  14.839   0.529  0.00  0.00    -0.263 NA
ATOM     18  C   UNL     1      -4.328  13.910   0.303  0.00  0.00    +0.122 A 
ENDBRANCH   4  13
BRANCH   1  19
ATOM     19  S   UNL     1      -2.283   7.976  -0.690  0.00  0.00    -0.078 S 
BRANCH  19  20
ATOM     20  C   UNL     1      -0.475   7.971  -0.594  0.00  0.00    +0.151 C 
BRANCH  20  31
ATOM     21  C   UNL     1       2.709   2.267  -2.099  0.00  0.00    +0.045 C 
ATOM     22  C   UNL     1       1.283   2.751  -2.034  0.00  0.00    -0.026 A 
ATOM     23  C   UNL     1       0.270   1.922  -2.332  0.00  0.00    -0.008 A 
ATOM     24  S   UNL     1      -1.175   2.944  -2.119  0.00  0.00    -0.073 S 
ATOM     25  C   UNL     1      -0.377   4.450  -1.625  0.00  0.00    +0.116 A 
ATOM     26  C   UNL     1       0.990   4.119  -1.648  0.00  0.00    +0.075 A 
ATOM     27  C   UNL     1       1.889   5.175  -1.288  0.00  0.00    +0.260 A 
ATOM     28  O   UNL     1       3.093   4.986  -1.278  0.00  0.00    -0.267 OA
ATOM     29  N   UNL     1       1.383   6.378  -0.962  0.00  0.00    -0.310 N 
ATOM     30  H   UNL     1       1.986   7.097  -0.717  0.00  0.00    +0.170 HD
ATOM     31  C   UNL     1       0.044   6.607  -0.967  0.00  0.00    +0.121 A 
ATOM     32  N   UNL     1      -0.801   5.665  -1.291  0.00  0.00    -0.226 NA
ATOM     33  C   UNL     1       0.339   0.477  -2.754  0.00  0.00    +0.052 C 
ENDBRANCH  20  31
ENDBRANCH  19  20
ENDBRANCH   1  19
TORSDOF 5
