REMARK  Name = ZINC01337724
REMARK  7 active torsions:
REMARK  status: ('A' for Active; 'I' for Inactive)
REMARK    1  A    between atoms: C_1  and  C_2
REMARK    2  A    between atoms: C_2  and  C_3
REMARK    3  A    between atoms: C_2  and  C_4
REMARK    4  A    between atoms: C_2  and  N_5
REMARK    5  A    between atoms: C_6  and  C_10
REMARK    6  A    between atoms: C_10  and  C_12
REMARK    7  A    between atoms: C_10  and  N_17
REMARK                            x       y       z     vdW  Elec       q    Type
REMARK                         _______ _______ _______ _____ _____    ______ ____
ROOT
ATOM      1  C   UNL     1       0.429  -3.036  -0.976  0.00  0.00    +0.180 C 
ENDROOT
BRANCH   1   2
ATOM      2  N   UNL     1       1.469  -4.061  -1.095  0.00  0.00    -0.315 N 
ATOM      3  C   UNL     1       2.029  -4.698   0.105  0.00  0.00    +0.106 C 
ATOM      4  C   UNL     1       3.554  -4.752  -0.062  0.00  0.00    +0.024 C 
ATOM      5  C   UNL     1       3.887  -5.637  -1.264  0.00  0.00    +0.038 C 
ATOM      6  C   UNL     1       3.101  -5.203  -2.473  0.00  0.00    -0.026 A 
ATOM      7  C   UNL     1       1.940  -4.453  -2.352  0.00  0.00    +0.034 A 
ATOM      8  C   UNL     1       1.232  -4.077  -3.488  0.00  0.00    +0.023 A 
ATOM      9  C   UNL     1       1.681  -4.452  -4.738  0.00  0.00    +0.002 A 
ATOM     10  C   UNL     1       2.837  -5.201  -4.859  0.00  0.00    +0.000 A 
ATOM     11  C   UNL     1       3.550  -5.569  -3.730  0.00  0.00    +0.005 A 
ENDBRANCH   1   2
BRANCH   1  13
ATOM     12  N   UNL     1       0.774  -0.513  -1.128  0.00  0.00    -0.222 N 
ATOM     13  C   UNL     1       0.906  -1.759  -1.619  0.00  0.00    +0.177 A 
ATOM     14  N   UNL     1       1.531  -1.647  -2.766  0.00  0.00    -0.111 NA
ATOM     15  N   UNL     1       1.770  -0.398  -2.968  0.00  0.00    -0.023 NA
ATOM     16  N   UNL     1       1.309   0.291  -1.983  0.00  0.00    -0.043 NA
BRANCH  12  18
ATOM     17  C   UNL     1       0.062   1.385   0.240  0.00  0.00    +0.036 C 
ATOM     18  C   UNL     1       0.136  -0.140   0.137  0.00  0.00    +0.059 C 
ATOM     19  C   UNL     1       0.957  -0.691   1.304  0.00  0.00    +0.036 C 
ATOM     20  C   UNL     1      -1.278  -0.723   0.187  0.00  0.00    +0.036 C 
ENDBRANCH  12  18
ENDBRANCH   1  13
BRANCH   1  21
ATOM     21  C   UNL     1      -0.824  -3.509  -1.666  0.00  0.00    +0.018 A 
ATOM     22  C   UNL     1      -1.376  -4.747  -1.680  0.00  0.00    +0.013 A 
ATOM     23  C   UNL     1      -2.544  -4.952  -2.389  0.00  0.00    +0.008 A 
ATOM     24  C   UNL     1      -3.104  -3.909  -3.051  0.00  0.00    +0.045 A 
ATOM     25  S   UNL     1      -1.972  -2.582  -2.672  0.00  0.00    -0.099 S 
ENDBRANCH   1  21
TORSDOF 4
