REMARK  Name = ZINC54623098
REMARK  15 active torsions:
REMARK  status: ('A' for Active; 'I' for Inactive)
REMARK    1  A    between atoms: C_1  and  C_2
REMARK    2  A    between atoms: C_2  and  C_3
REMARK    3  A    between atoms: C_3  and  C_4
REMARK    4  A    between atoms: C_4  and  O_5
REMARK    5  A    between atoms: O_5  and  C_6
REMARK    6  A    between atoms: C_9  and  C_12
REMARK    7  A    between atoms: C_14  and  C_32
REMARK    8  A    between atoms: C_15  and  C_31
REMARK    9  A    between atoms: C_20  and  S_22
REMARK   10  A    between atoms: S_22  and  C_23
REMARK   11  A    between atoms: C_23  and  C_24
REMARK   12  A    between atoms: C_32  and  O_34
REMARK   13  A    between atoms: O_34  and  C_35
REMARK   14  A    between atoms: C_35  and  C_36
REMARK   15  A    between atoms: C_36  and  C_37
REMARK                            x       y       z     vdW  Elec       q    Type
REMARK                         _______ _______ _______ _____ _____    ______ ____
ROOT
ATOM      1  C   UNL     1      -3.449  -8.066  -0.017  0.00  0.00    +0.179 C 
ATOM      2  C   UNL     1      -4.239  -8.370   1.228  0.00  0.00    +0.082 C 
ATOM      3  C   UNL     1      -5.483  -8.873   1.201  0.00  0.00    +0.020 C 
ATOM      4  N   UNL     1      -6.130  -9.160   0.026  0.00  0.00    -0.287 N 
ATOM      5  C   UNL     1      -5.372  -9.166  -1.137  0.00  0.00    +0.219 A 
ATOM      6  N   UNL     1      -4.113  -8.662  -1.172  0.00  0.00    -0.220 N 
ATOM      7  N   UNL     1      -3.650  -8.837  -2.475  0.00  0.00    -0.141 NA
ATOM      8  C   UNL     1      -4.621  -9.415  -3.148  0.00  0.00    +0.211 A 
ATOM      9  N   UNL     1      -5.665  -9.611  -2.329  0.00  0.00    -0.187 NA
ATOM     10  C   UNL     1      -6.192  -9.131   2.506  0.00  0.00    +0.061 C 
ATOM     11  H   UNL     1      -7.081  -9.351   0.008  0.00  0.00    +0.155 HD
ENDROOT
BRANCH   1  15
ATOM     12  C   UNL     1      -3.197  -3.833  -0.546  0.00  0.00    +0.121 A 
ATOM     13  C   UNL     1      -2.041  -4.585  -0.401  0.00  0.00    +0.046 A 
ATOM     14  C   UNL     1      -2.124  -5.953  -0.229  0.00  0.00    +0.009 A 
ATOM     15  C   UNL     1      -3.360  -6.573  -0.203  0.00  0.00    -0.018 A 
ATOM     16  C   UNL     1      -4.514  -5.826  -0.349  0.00  0.00    +0.009 A 
ATOM     17  C   UNL     1      -4.436  -4.457  -0.514  0.00  0.00    +0.046 A 
BRANCH  12  18
ATOM     18  O   UNL     1      -3.117  -2.487  -0.714  0.00  0.00    -0.492 OA
BRANCH  18  19
ATOM     19  C   UNL     1      -1.809  -1.912  -0.738  0.00  0.00    +0.229 C 
BRANCH  19  20
ATOM     20  C   UNL     1      -1.920  -0.399  -0.934  0.00  0.00    +0.041 C 
BRANCH  20  22
ATOM     21  C   UNL     1      -0.630   1.729  -1.156  0.00  0.00    +0.004 C 
ATOM     22  C   UNL     1      -0.519   0.216  -0.959  0.00  0.00    -0.000 C 
ENDBRANCH  20  22
ENDBRANCH  19  20
ENDBRANCH  18  19
ENDBRANCH  12  18
ENDBRANCH   1  15
BRANCH   2  23
ATOM     23  C   UNL     1      -3.642  -8.115   2.483  0.00  0.00    +0.339 C 
ATOM     24  O   UNL     1      -2.770  -8.853   2.903  0.00  0.00    -0.245 OA
BRANCH  23  25
ATOM     25  O   UNL     1      -4.040  -7.054   3.216  0.00  0.00    -0.461 OA
BRANCH  25  26
ATOM     26  C   UNL     1      -3.394  -6.857   4.475  0.00  0.00    +0.232 C 
BRANCH  26  27
ATOM     27  C   UNL     1      -3.972  -5.615   5.156  0.00  0.00    +0.038 C 
ATOM     28  C   UNL     1      -3.280  -5.403   6.504  0.00  0.00    +0.007 C 
ENDBRANCH  26  27
ENDBRANCH  25  26
ENDBRANCH  23  25
ENDBRANCH   2  23
BRANCH   8  29
ATOM     29  S   UNL     1      -4.561  -9.861  -4.852  0.00  0.00    -0.080 S 
BRANCH  29  30
ATOM     30  C   UNL     1      -6.186 -10.605  -5.168  0.00  0.00    +0.114 C 
BRANCH  30  31
ATOM     31  C   UNL     1      -6.268 -11.036  -6.610  0.00  0.00    -0.019 A 
ATOM     32  C   UNL     1      -6.735 -10.157  -7.569  0.00  0.00    +0.006 A 
ATOM     33  C   UNL     1      -6.811 -10.552  -8.891  0.00  0.00    +0.000 A 
ATOM     34  C   UNL     1      -6.420 -11.827  -9.256  0.00  0.00    +0.001 A 
ATOM     35  C   UNL     1      -5.953 -12.707  -8.298  0.00  0.00    +0.020 A 
ATOM     36  C   UNL     1      -5.872 -12.310  -6.975  0.00  0.00    +0.045 A 
ATOM     37 CL   UNL     1      -5.279 -13.413  -5.772  0.00  0.00    -0.083 Cl
ENDBRANCH  30  31
ENDBRANCH  29  30
ENDBRANCH   8  29
TORSDOF 12
