REMARK  Name = ZINC20691038
REMARK  9 active torsions:
REMARK  status: ('A' for Active; 'I' for Inactive)
REMARK    1  A    between atoms: C_1  and  C_2
REMARK    2  A    between atoms: C_2  and  N_3
REMARK    3  A    between atoms: N_3  and  C_4
REMARK    4  A    between atoms: N_3  and  S_10
REMARK    5  A    between atoms: S_10  and  C_13
REMARK    6  A    between atoms: C_26  and  C_29
REMARK    7  A    between atoms: C_30  and  C_37
REMARK    8  A    between atoms: C_32  and  C_36
REMARK    9  A    between atoms: C_34  and  C_35
REMARK                            x       y       z     vdW  Elec       q    Type
REMARK                         _______ _______ _______ _____ _____    ______ ____
ROOT
ATOM      1  C   UNL     1       8.222  -0.019   3.233  0.00  0.00    +0.109 A 
ATOM      2  C   UNL     1       7.540   0.373   4.370  0.00  0.00    +0.030 A 
ATOM      3  C   UNL     1       6.192   0.660   4.295  0.00  0.00    +0.025 A 
ATOM      4  C   UNL     1       5.526   0.554   3.079  0.00  0.00    +0.031 A 
ATOM      5  C   UNL     1       6.204   0.159   1.940  0.00  0.00    -0.018 A 
ATOM      6  C   UNL     1       7.560  -0.126   2.027  0.00  0.00    +0.034 A 
ATOM      7  C   UNL     1       5.537   0.020   0.598  0.00  0.00    +0.049 C 
ATOM      8  C   UNL     1       5.704  -1.426   0.152  0.00  0.00    -0.023 C 
ATOM      9  C   UNL     1       4.638  -2.124   0.453  0.00  0.00    -0.030 C 
ATOM     10  C   UNL     1       3.605  -1.246   1.137  0.00  0.00    +0.033 C 
ATOM     11  C   UNL     1       4.008   0.178   0.685  0.00  0.00    +0.029 C 
ATOM     12  C   UNL     1       3.596   1.214   1.714  0.00  0.00    +0.105 C 
ATOM     13  N   UNL     1       4.162   0.859   3.020  0.00  0.00    -0.336 N 
ATOM     14  H   UNL     1       3.517   0.840   3.912  0.00  0.00    +0.147 HD
ENDROOT
BRANCH  12  15
ATOM     15  C   UNL     1       4.109   2.568   1.295  0.00  0.00    -0.021 A 
ATOM     16  C   UNL     1       4.830   3.340   2.187  0.00  0.00    -0.045 A 
ATOM     17  C   UNL     1       5.304   4.580   1.802  0.00  0.00    +0.007 A 
ATOM     18  C   UNL     1       5.050   5.052   0.528  0.00  0.00    -0.050 A 
ATOM     19  C   UNL     1       4.326   4.281  -0.363  0.00  0.00    +0.007 A 
ATOM     20  C   UNL     1       3.855   3.040   0.021  0.00  0.00    -0.045 A 
ATOM     21  C   UNL     1       3.065   2.200  -0.950  0.00  0.00    +0.044 C 
ATOM     22  C   UNL     1       5.563   6.405   0.110  0.00  0.00    +0.044 C 
ATOM     23  C   UNL     1       5.101   2.828   3.579  0.00  0.00    +0.044 C 
ENDBRANCH  12  15
BRANCH   1  24
ATOM     24  S   UNL     1       9.944  -0.384   3.324  0.00  0.00    +0.075 S 
ATOM     25  O   UNL     1      10.213  -0.736   4.675  0.00  0.00    -0.150 OA
ATOM     26  O   UNL     1      10.233  -1.254   2.238  0.00  0.00    -0.150 OA
BRANCH  24  27
ATOM     27  N   UNL     1      10.759   1.027   3.031  0.00  0.00    -0.203 N 
BRANCH  27  28
ATOM     28  C   UNL     1      11.000   1.434   1.716  0.00  0.00    +0.051 A 
ATOM     29  C   UNL     1      10.504   2.649   1.262  0.00  0.00    +0.025 A 
ATOM     30  C   UNL     1      10.747   3.051  -0.036  0.00  0.00    +0.002 A 
ATOM     31  C   UNL     1      11.475   2.240  -0.887  0.00  0.00    +0.000 A 
ATOM     32  C   UNL     1      11.966   1.027  -0.440  0.00  0.00    +0.002 A 
ATOM     33  C   UNL     1      11.731   0.622   0.859  0.00  0.00    +0.025 A 
ENDBRANCH  27  28
BRANCH  27  35
ATOM     34  C   UNL     1      12.685   1.498   4.463  0.00  0.00    +0.026 C 
ATOM     35  C   UNL     1      11.229   1.848   4.150  0.00  0.00    +0.128 C 
ENDBRANCH  27  35
ENDBRANCH  24  27
ENDBRANCH   1  24
TORSDOF 5
