REMARK  Name = ZINC22509310
REMARK  8 active torsions:
REMARK  status: ('A' for Active; 'I' for Inactive)
REMARK    1  A    between atoms: C_1  and  C_2
REMARK    2  A    between atoms: C_5  and  C_9
REMARK    3  A    between atoms: C_6  and  C_8
REMARK    4  A    between atoms: C_9  and  C_11
REMARK    5  A    between atoms: C_9  and  N_12
REMARK    6  A    between atoms: C_13  and  C_15
REMARK    7  A    between atoms: C_19  and  S_21
REMARK    8  A    between atoms: S_21  and  N_24
REMARK                            x       y       z     vdW  Elec       q    Type
REMARK                         _______ _______ _______ _____ _____    ______ ____
ROOT
ATOM      1  C   UNL     1      -5.395   3.755  -0.230  0.00  0.00    +0.039 A 
ATOM      2  C   UNL     1      -5.286   3.400  -1.576  0.00  0.00    +0.014 A 
ATOM      3  C   UNL     1      -4.082   3.550  -2.230  0.00  0.00    +0.023 A 
ATOM      4  C   UNL     1      -2.983   4.057  -1.557  0.00  0.00    +0.067 A 
ATOM      5  C   UNL     1      -3.083   4.405  -0.220  0.00  0.00    +0.124 A 
ATOM      6  C   UNL     1      -4.282   4.260   0.445  0.00  0.00    +0.043 A 
ATOM      7 CL   UNL     1      -1.472   4.250  -2.389  0.00  0.00    -0.082 Cl
ENDROOT
BRANCH   1   9
ATOM      8  N   UNL     1      -7.756   3.109  -0.177  0.00  0.00    -0.305 N 
ATOM      9  C   UNL     1      -6.683   3.597   0.477  0.00  0.00    +0.245 C 
ATOM     10  O   UNL     1      -6.776   3.907   1.649  0.00  0.00    -0.270 OA
ATOM     11  H   UNL     1      -7.672   2.829  -1.238  0.00  0.00    +0.150 HD
BRANCH   8  12
ATOM     12  C   UNL     1      -9.033   2.953   0.523  0.00  0.00    +0.101 C 
ATOM     13  C   UNL     1      -9.052   1.609   1.255  0.00  0.00    +0.033 C 
BRANCH  12  18
ATOM     14  C   UNL     1     -13.362   3.127  -3.301  0.00  0.00    +0.044 C 
ATOM     15  C   UNL     1     -12.233   3.081  -2.303  0.00  0.00    -0.050 A 
ATOM     16  C   UNL     1     -10.969   2.693  -2.707  0.00  0.00    +0.004 A 
ATOM     17  C   UNL     1      -9.932   2.656  -1.794  0.00  0.00    +0.006 A 
ATOM     18  C   UNL     1     -10.162   2.998  -0.474  0.00  0.00    -0.025 A 
ATOM     19  C   UNL     1     -11.425   3.386  -0.070  0.00  0.00    -0.045 A 
ATOM     20  C   UNL     1     -12.461   3.427  -0.985  0.00  0.00    +0.007 A 
ATOM     21  C   UNL     1     -11.674   3.764   1.367  0.00  0.00    +0.044 C 
ENDBRANCH  12  18
ENDBRANCH   8  12
ENDBRANCH   1   9
BRANCH   5  22
ATOM     22  S   UNL     1      -1.678   5.043   0.631  0.00  0.00    +0.062 S 
ATOM     23  O   UNL     1      -2.098   5.320   1.959  0.00  0.00    -0.153 OA
ATOM     24  O   UNL     1      -1.109   6.036  -0.211  0.00  0.00    -0.153 OA
BRANCH  22  25
ATOM     25  N   UNL     1      -0.569   3.817   0.731  0.00  0.00    -0.177 NA
ATOM     26  C   UNL     1       0.560   3.726  -0.254  0.00  0.00    +0.109 C 
ATOM     27  C   UNL     1       1.794   4.052   0.456  0.00  0.00    +0.017 C 
ATOM     28  C   UNL     1       2.090   3.151   1.650  0.00  0.00    +0.001 C 
ATOM     29  C   UNL     1       1.417   3.803   2.823  0.00  0.00    +0.001 C 
ATOM     30  C   UNL     1       0.039   3.154   3.098  0.00  0.00    +0.017 C 
ATOM     31  C   UNL     1      -0.671   2.824   1.762  0.00  0.00    +0.109 C 
ENDBRANCH  22  25
ENDBRANCH   5  22
TORSDOF 5
