REMARK  Name = ZINC15761615
REMARK  7 active torsions:
REMARK  status: ('A' for Active; 'I' for Inactive)
REMARK    1  A    between atoms: C_1  and  C_2
REMARK    2  A    between atoms: C_7  and  N_12
REMARK    3  A    between atoms: C_9  and  C_11
REMARK    4  A    between atoms: N_12  and  C_13
REMARK    5  A    between atoms: C_13  and  N_15
REMARK    6  A    between atoms: N_15  and  N_16
REMARK    7  A    between atoms: C_17  and  C_19
REMARK                            x       y       z     vdW  Elec       q    Type
REMARK                         _______ _______ _______ _____ _____    ______ ____
ROOT
ATOM      1  N   UNL     1      -2.722   2.568  -2.253  0.00  0.00    -0.246 N 
ATOM      2  H   UNL     1      -3.689   2.647  -2.242  0.00  0.00    +0.172 HD
ENDROOT
BRANCH   1   3
ATOM      3  N   UNL     1      -2.004   2.917  -3.404  0.00  0.00    -0.230 N 
ATOM      4  C   UNL     1      -2.655   3.364  -4.496  0.00  0.00    +0.280 C 
ATOM      5  O   UNL     1      -3.867   3.463  -4.482  0.00  0.00    -0.267 OA
ATOM      6  H   UNL     1      -1.037   2.838  -3.415  0.00  0.00    +0.173 HD
BRANCH   4   7
ATOM      7  C   UNL     1      -1.896   3.733  -5.712  0.00  0.00    +0.147 A 
ATOM      8  C   UNL     1      -2.576   4.194  -6.838  0.00  0.00    +0.072 A 
ATOM      9  C   UNL     1      -1.850   4.536  -7.971  0.00  0.00    +0.025 A 
ATOM     10  C   UNL     1      -0.472   4.405  -7.937  0.00  0.00    +0.041 A 
ATOM     11  C   UNL     1       0.139   3.939  -6.781  0.00  0.00    +0.130 A 
ATOM     12  N   UNL     1      -0.572   3.627  -5.720  0.00  0.00    -0.229 NA
ATOM     13 CL   UNL     1       1.867   3.773  -6.734  0.00  0.00    -0.062 Cl
ATOM     14 CL   UNL     1      -4.306   4.338  -6.825  0.00  0.00    -0.081 Cl
ENDBRANCH   4   7
ENDBRANCH   1   3
BRANCH   1  15
ATOM     15  C   UNL     1      -2.070   2.122  -1.161  0.00  0.00    +0.147 C 
ATOM     16  S   UNL     1      -2.949   1.695   0.245  0.00  0.00    -0.017 S 
BRANCH  15  17
ATOM     17  N   UNL     1      -0.727   2.011  -1.176  0.00  0.00    -0.322 N 
ATOM     18  H   UNL     1      -0.230   2.253  -1.973  0.00  0.00    +0.148 HD
BRANCH  17  24
ATOM     19  C   UNL     1       3.592   2.078   1.228  0.00  0.00    +0.008 C 
ATOM     20  C   UNL     1       2.157   1.548   1.239  0.00  0.00    -0.009 C 
ATOM     21  C   UNL     1       2.178   0.019   1.231  0.00  0.00    +0.003 C 
ATOM     22  C   UNL     1       0.742  -0.511   1.242  0.00  0.00    +0.002 C 
ATOM     23  C   UNL     1       0.002  -0.004   0.002  0.00  0.00    +0.022 C 
ATOM     24  C   UNL     1      -0.019   1.526   0.010  0.00  0.00    +0.075 C 
ATOM     25  C   UNL     1       1.417   2.055  -0.000  0.00  0.00    +0.009 C 
ATOM     26  C   UNL     1       2.133   1.562  -1.259  0.00  0.00    +0.009 C 
ENDBRANCH  17  24
ENDBRANCH  15  17
ENDBRANCH   1  15
TORSDOF 5
