REMARK  Name = ZINC57151308
REMARK  7 active torsions:
REMARK  status: ('A' for Active; 'I' for Inactive)
REMARK    1  A    between atoms: C_4  and  C_7
REMARK    2  A    between atoms: C_7  and  N_8
REMARK    3  A    between atoms: C_11  and  N_14
REMARK    4  A    between atoms: N_14  and  C_15
REMARK    5  A    between atoms: C_15  and  C_16
REMARK    6  A    between atoms: C_17  and  O_33
REMARK    7  A    between atoms: C_26  and  C_27
REMARK                            x       y       z     vdW  Elec       q    Type
REMARK                         _______ _______ _______ _____ _____    ______ ____
ROOT
ATOM      1  C   UNL     1       8.117  -1.705   6.513  0.00  0.00    +0.051 A 
ATOM      2  C   UNL     1       8.472  -0.684   7.380  0.00  0.00    +0.125 A 
ATOM      3  C   UNL     1       8.749  -0.956   8.717  0.00  0.00    +0.046 A 
ATOM      4  C   UNL     1       8.675  -2.235   9.191  0.00  0.00    +0.016 A 
ATOM      5  C   UNL     1       8.320  -3.276   8.330  0.00  0.00    +0.026 A 
ATOM      6  C   UNL     1       8.033  -3.008   6.980  0.00  0.00    +0.147 A 
ATOM      7  O   UNL     1       7.684  -4.015   6.151  0.00  0.00    -0.422 OA
ATOM      8  C   UNL     1       7.595  -5.285   6.576  0.00  0.00    +0.338 A 
ATOM      9  O   UNL     1       7.277  -6.154   5.783  0.00  0.00    -0.245 OA
ATOM     10  C   UNL     1       7.860  -5.640   7.909  0.00  0.00    +0.101 A 
ATOM     11  C   UNL     1       8.232  -4.664   8.813  0.00  0.00    -0.000 A 
ENDROOT
BRANCH  11  12
ATOM     12  C   UNL     1       8.519  -5.000  10.226  0.00  0.00    -0.017 A 
ATOM     13  C   UNL     1       7.692  -4.519  11.242  0.00  0.00    +0.008 A 
ATOM     14  C   UNL     1       7.964  -4.836  12.556  0.00  0.00    +0.001 A 
ATOM     15  C   UNL     1       9.054  -5.630  12.868  0.00  0.00    +0.000 A 
ATOM     16  C   UNL     1       9.877  -6.110  11.866  0.00  0.00    +0.001 A 
ATOM     17  C   UNL     1       9.613  -5.804  10.547  0.00  0.00    +0.008 A 
ENDBRANCH  11  12
BRANCH   2  18
ATOM     18  O   UNL     1       8.549   0.592   6.923  0.00  0.00    -0.506 OA
ATOM     19  H   UNL     1       7.721   1.086   6.992  0.00  0.00    +0.292 HD
ENDBRANCH   2  18
BRANCH   1  20
ATOM     20  C   UNL     1       7.819  -1.399   5.068  0.00  0.00    +0.124 C 
BRANCH  20  21
ATOM     21  N   UNL     1       6.389  -1.099   4.916  0.00  0.00    -0.309 NA
ATOM     22  H   UNL     1       6.111  -0.344   5.524  0.00  0.00    +0.123 HD
BRANCH  21  26
ATOM     23  N   UNL     1       4.153  -0.953   1.342  0.00  0.00    +0.382 N 
ATOM     24  C   UNL     1       4.424   0.329   2.003  0.00  0.00    -0.077 C 
ATOM     25  C   UNL     1       4.807   0.083   3.464  0.00  0.00    -0.000 C 
ATOM     26  C   UNL     1       6.060  -0.796   3.517  0.00  0.00    +0.050 C 
ATOM     27  C   UNL     1       5.790  -2.099   2.760  0.00  0.00    -0.000 C 
ATOM     28  C   UNL     1       5.371  -1.772   1.325  0.00  0.00    -0.077 C 
ATOM     29  H   UNL     1       3.427  -1.441   1.844  0.00  0.00    -0.081 HD
BRANCH  23  30
ATOM     30  C   UNL     1       3.711  -0.707  -0.038  0.00  0.00    -0.043 C 
BRANCH  30  34
ATOM     31  C   UNL     1      -0.017   1.378   0.010  0.00  0.00    +0.000 A 
ATOM     32  C   UNL     1       1.171   2.086   0.002  0.00  0.00    +0.000 A 
ATOM     33  C   UNL     1       2.377   1.411  -0.013  0.00  0.00    +0.002 A 
ATOM     34  C   UNL     1       2.396   0.029  -0.020  0.00  0.00    -0.064 A 
ATOM     35  C   UNL     1       1.208  -0.679  -0.012  0.00  0.00    +0.002 A 
ATOM     36  C   UNL     1       0.002  -0.004   0.002  0.00  0.00    +0.000 A 
ENDBRANCH  30  34
ENDBRANCH  23  30
ENDBRANCH  21  26
ENDBRANCH  20  21
ENDBRANCH   1  20
TORSDOF 7
