REMARK  Name = ZINC04536634
REMARK  10 active torsions:
REMARK  status: ('A' for Active; 'I' for Inactive)
REMARK    1  A    between atoms: C_1  and  C_2
REMARK    2  A    between atoms: C_2  and  C_4
REMARK    3  A    between atoms: C_2  and  N_7
REMARK    4  A    between atoms: C_4  and  C_5
REMARK    5  A    between atoms: C_4  and  C_6
REMARK    6  A    between atoms: C_8  and  C_10
REMARK    7  A    between atoms: C_10  and  S_11
REMARK    8  A    between atoms: S_11  and  C_12
REMARK    9  A    between atoms: C_15  and  C_18
REMARK   10  A    between atoms: N_16  and  N_17
REMARK                            x       y       z     vdW  Elec       q    Type
REMARK                         _______ _______ _______ _____ _____    ______ ____
ROOT
ATOM      1  C   UNL     1      -5.687  -1.875   2.746  0.00  0.00    +0.209 A 
ATOM      2  N   UNL     1      -6.295  -2.200   1.627  0.00  0.00    -0.121 NA
ATOM      3  N   UNL     1      -7.485  -2.617   1.875  0.00  0.00    -0.126 NA
ATOM      4  C   UNL     1      -7.712  -2.584   3.170  0.00  0.00    +0.188 A 
ATOM      5  N   UNL     1      -6.564  -2.113   3.768  0.00  0.00    -0.223 N 
ENDROOT
BRANCH   4   6
ATOM      6  C   UNL     1      -8.954  -2.981   3.851  0.00  0.00    +0.058 A 
ATOM      7  C   UNL     1     -10.008  -3.715   3.368  0.00  0.00    +0.019 A 
ATOM      8  C   UNL     1     -11.076  -3.965   4.201  0.00  0.00    +0.008 A 
ATOM      9  C   UNL     1     -11.054  -3.479   5.470  0.00  0.00    +0.046 A 
ATOM     10  S   UNL     1      -9.479  -2.641   5.523  0.00  0.00    -0.093 S 
ENDBRANCH   4   6
BRANCH   5  11
ATOM     11  N   UNL     1      -6.347  -1.921   5.103  0.00  0.00    -0.295 N 
ATOM     12  H   UNL     1      -6.615  -0.990   5.382  0.00  0.00    +0.163 HD
ATOM     13  H   UNL     1      -6.831  -2.617   5.651  0.00  0.00    +0.163 HD
ENDBRANCH   5  11
BRANCH   1  14
ATOM     14  S   UNL     1      -4.045  -1.255   2.901  0.00  0.00    -0.075 S 
BRANCH  14  15
ATOM     15  C   UNL     1      -3.442  -1.177   1.191  0.00  0.00    +0.173 C 
BRANCH  15  17
ATOM     16  N   UNL     1      -1.372  -0.511   0.012  0.00  0.00    -0.312 N 
ATOM     17  C   UNL     1      -2.029  -0.655   1.181  0.00  0.00    +0.224 C 
ATOM     18  O   UNL     1      -1.481  -0.365   2.224  0.00  0.00    -0.275 OA
ATOM     19  H   UNL     1      -1.810  -0.743  -0.822  0.00  0.00    +0.149 HD
BRANCH  16  21
ATOM     20  C   UNL     1      -0.019   1.526   0.010  0.00  0.00    +0.028 C 
ATOM     21  C   UNL     1       0.002  -0.004   0.002  0.00  0.00    +0.072 C 
BRANCH  21  22
ATOM     22  C   UNL     1       0.718  -0.497  -1.257  0.00  0.00    +0.003 C 
ATOM     23  C   UNL     1       2.154   0.032  -1.268  0.00  0.00    +0.009 C 
ATOM     24  C   UNL     1       0.739  -2.027  -1.265  0.00  0.00    +0.009 C 
ENDBRANCH  21  22
ENDBRANCH  16  21
ENDBRANCH  15  17
ENDBRANCH  14  15
ENDBRANCH   1  14
TORSDOF 7
