REMARK  Name = ZINC41637572
REMARK  6 active torsions:
REMARK  status: ('A' for Active; 'I' for Inactive)
REMARK    1  A    between atoms: C_1  and  C_2
REMARK    2  A    between atoms: C_5  and  C_7
REMARK    3  A    between atoms: C_7  and  C_9
REMARK    4  A    between atoms: C_7  and  N_18
REMARK    5  A    between atoms: C_20  and  C_27
REMARK    6  A    between atoms: C_23  and  C_26
REMARK                            x       y       z     vdW  Elec       q    Type
REMARK                         _______ _______ _______ _____ _____    ______ ____
ROOT
ATOM      1  C   UNL     1       1.684  -3.245  -0.023  0.00  0.00    +0.042 C 
ENDROOT
BRANCH   1   2
ATOM      2  C   UNL     1       2.184  -3.476  -1.425  0.00  0.00    +0.053 A 
ATOM      3  C   UNL     1       1.975  -4.521  -2.235  0.00  0.00    +0.282 A 
ATOM      4  N   UNL     1       2.522  -4.550  -3.495  0.00  0.00    -0.170 N 
ATOM      5  C   UNL     1       3.275  -3.481  -3.873  0.00  0.00    +0.199 A 
ATOM      6  S   UNL     1       3.205  -2.424  -2.446  0.00  0.00    -0.050 S 
ATOM      7  N   UNL     1       3.718  -3.664  -5.087  0.00  0.00    -0.208 NA
ATOM      8  C   UNL     1       3.281  -4.836  -5.543  0.00  0.00    +0.246 A 
ATOM      9  N   UNL     1       2.556  -5.412  -4.622  0.00  0.00    -0.150 NA
ATOM     10  O   UNL     1       1.215  -5.564  -1.806  0.00  0.00    -0.265 OA
ENDBRANCH   1   2
BRANCH   1  11
ATOM     11  N   UNL     1       2.822  -2.969   0.864  0.00  0.00    +0.390 N 
ATOM     12  C   UNL     1       3.743  -4.112   0.846  0.00  0.00    -0.074 C 
ATOM     13  C   UNL     1       4.970  -3.796   1.704  0.00  0.00    -0.031 C 
ATOM     14  C   UNL     1       4.523  -3.521   3.143  0.00  0.00    +0.003 C 
ATOM     15  C   UNL     1       3.507  -2.376   3.141  0.00  0.00    -0.031 C 
ATOM     16  C   UNL     1       2.334  -2.744   2.229  0.00  0.00    -0.074 C 
ATOM     17  C   UNL     1       2.996  -2.143   4.564  0.00  0.00    +0.005 C 
ATOM     18  C   UNL     1       5.682  -2.563   1.144  0.00  0.00    +0.005 C 
ATOM     19  H   UNL     1       3.307  -2.144   0.541  0.00  0.00    -0.080 HD
ENDBRANCH   1  11
BRANCH   1  24
ATOM     20  C   UNL     1      -0.018   1.503   0.010  0.00  0.00    +0.086 C 
ATOM     21  C   UNL     1       0.002  -0.004   0.002  0.00  0.00    +0.102 A 
ATOM     22  C   UNL     1      -1.078  -0.805   0.003  0.00  0.00    +0.044 A 
ATOM     23  C   UNL     1      -0.601  -2.136  -0.007  0.00  0.00    +0.043 A 
ATOM     24  C   UNL     1       0.742  -2.069  -0.013  0.00  0.00    +0.097 A 
ATOM     25  O   UNL     1       1.102  -0.775  -0.013  0.00  0.00    -0.466 OA
ENDBRANCH   1  24
TORSDOF 3
