REMARK  Name = ZINC15720932
REMARK  9 active torsions:
REMARK  status: ('A' for Active; 'I' for Inactive)
REMARK    1  A    between atoms: C_1  and  C_2
REMARK    2  A    between atoms: C_5  and  N_9
REMARK    3  A    between atoms: C_6  and  C_8
REMARK    4  A    between atoms: C_10  and  C_12
REMARK    5  A    between atoms: C_12  and  C_13
REMARK    6  A    between atoms: C_13  and  C_15
REMARK    7  A    between atoms: C_13  and  N_23
REMARK    8  A    between atoms: C_18  and  O_21
REMARK    9  A    between atoms: O_21  and  C_22
REMARK                            x       y       z     vdW  Elec       q    Type
REMARK                         _______ _______ _______ _____ _____    ______ ____
ROOT
ATOM      1  C   UNL     1       3.491  -2.469   0.272  0.00  0.00    +0.116 C 
ENDROOT
BRANCH   1   2
ATOM      2  N   UNL     1       2.882  -2.942  -0.973  0.00  0.00    -0.286 N 
ATOM      3  C   UNL     1       1.620  -3.682  -1.080  0.00  0.00    +0.144 C 
ATOM      4  C   UNL     1       1.408  -3.946  -2.550  0.00  0.00    -0.018 A 
ATOM      5  C   UNL     1       0.418  -4.586  -3.259  0.00  0.00    +0.006 A 
ATOM      6  C   UNL     1       0.501  -4.671  -4.639  0.00  0.00    +0.000 A 
ATOM      7  C   UNL     1       1.577  -4.112  -5.307  0.00  0.00    +0.001 A 
ATOM      8  C   UNL     1       2.574  -3.468  -4.605  0.00  0.00    +0.013 A 
ATOM      9  C   UNL     1       2.498  -3.379  -3.214  0.00  0.00    +0.042 A 
ATOM     10  C   UNL     1       3.384  -2.763  -2.208  0.00  0.00    +0.248 C 
ATOM     11  O   UNL     1       4.420  -2.180  -2.458  0.00  0.00    -0.270 OA
ENDBRANCH   1   2
BRANCH   1  12
ATOM     12  C   UNL     1       4.800  -3.183   0.494  0.00  0.00    -0.026 A 
ATOM     13  C   UNL     1       4.971  -4.472   0.023  0.00  0.00    +0.009 A 
ATOM     14  C   UNL     1       6.171  -5.127   0.220  0.00  0.00    +0.046 A 
ATOM     15  C   UNL     1       7.201  -4.494   0.901  0.00  0.00    +0.120 A 
ATOM     16  C   UNL     1       7.025  -3.203   1.377  0.00  0.00    +0.046 A 
ATOM     17  C   UNL     1       5.825  -2.550   1.173  0.00  0.00    +0.009 A 
BRANCH  15  18
ATOM     18  O   UNL     1       8.381  -5.138   1.102  0.00  0.00    -0.495 OA
ATOM     19  C   UNL     1       8.492  -6.466   0.584  0.00  0.00    +0.277 C 
ENDBRANCH  15  18
ENDBRANCH   1  12
BRANCH   1  20
ATOM     20  C   UNL     1       3.742  -0.963   0.178  0.00  0.00    +0.123 C 
BRANCH  20  22
ATOM     21  N   UNL     1       2.398   1.105  -0.014  0.00  0.00    -0.285 N 
ATOM     22  C   UNL     1       2.424  -0.239   0.079  0.00  0.00    +0.219 C 
ATOM     23  O   UNL     1       1.386  -0.867   0.084  0.00  0.00    -0.275 OA
ATOM     24  H   UNL     1       3.228   1.602  -0.084  0.00  0.00    +0.155 HD
BRANCH  21  29
ATOM     25  C   UNL     1      -2.563   3.857  -0.004  0.00  0.00    +0.044 C 
ATOM     26  C   UNL     1      -1.245   3.126  -0.006  0.00  0.00    -0.050 A 
ATOM     27  C   UNL     1      -1.145   1.886  -0.611  0.00  0.00    +0.005 A 
ATOM     28  C   UNL     1       0.060   1.211  -0.611  0.00  0.00    +0.024 A 
ATOM     29  C   UNL     1       1.174   1.784  -0.011  0.00  0.00    +0.036 A 
ATOM     30  C   UNL     1       1.071   3.030   0.592  0.00  0.00    -0.029 A 
ATOM     31  C   UNL     1      -0.138   3.698   0.593  0.00  0.00    +0.008 A 
ATOM     32  C   UNL     1       2.278   3.655   1.244  0.00  0.00    +0.045 C 
ENDBRANCH  21  29
ENDBRANCH  20  22
ENDBRANCH   1  20
TORSDOF 6
