REMARK  Name = ZINC09580287
REMARK  9 active torsions:
REMARK  status: ('A' for Active; 'I' for Inactive)
REMARK    1  A    between atoms: C_1  and  C_2
REMARK    2  A    between atoms: C_2  and  C_4
REMARK    3  A    between atoms: C_2  and  N_13
REMARK    4  A    between atoms: C_14  and  C_16
REMARK    5  A    between atoms: C_16  and  S_17
REMARK    6  A    between atoms: S_17  and  C_18
REMARK    7  A    between atoms: C_21  and  C_26
REMARK    8  A    between atoms: N_22  and  C_23
REMARK    9  A    between atoms: C_23  and  C_24
REMARK                            x       y       z     vdW  Elec       q    Type
REMARK                         _______ _______ _______ _____ _____    ______ ____
ROOT
ATOM      1  C   UNL     1       7.556   4.212  -4.011  0.00  0.00    +0.192 A 
ATOM      2  N   UNL     1       6.684   5.174  -4.207  0.00  0.00    -0.122 NA
ATOM      3  N   UNL     1       7.178   6.056  -5.000  0.00  0.00    -0.129 NA
ATOM      4  C   UNL     1       8.384   5.713  -5.355  0.00  0.00    +0.179 A 
ATOM      5  N   UNL     1       8.670   4.529  -4.733  0.00  0.00    -0.299 N 
ENDROOT
BRANCH   4   6
ATOM      6  C   UNL     1       9.296   6.482  -6.276  0.00  0.00    +0.278 C 
ATOM      7  C   UNL     1       8.810   6.339  -7.725  0.00  0.00    +0.281 C 
ATOM      8  O   UNL     1       9.689   7.090  -8.569  0.00  0.00    -0.484 OA
ATOM      9  C   UNL     1      10.006   8.348  -8.156  0.00  0.00    +0.162 A 
ATOM     10  C   UNL     1      10.542   9.248  -9.065  0.00  0.00    +0.049 A 
ATOM     11  C   UNL     1      10.872  10.527  -8.661  0.00  0.00    +0.004 A 
ATOM     12  C   UNL     1      10.670  10.914  -7.349  0.00  0.00    +0.004 A 
ATOM     13  C   UNL     1      10.135  10.022  -6.438  0.00  0.00    +0.049 A 
ATOM     14  C   UNL     1       9.801   8.737  -6.838  0.00  0.00    +0.163 A 
ATOM     15  O   UNL     1       9.272   7.871  -5.930  0.00  0.00    -0.474 OA
ENDBRANCH   4   6
BRANCH   1  16
ATOM     16  S   UNL     1       7.333   2.786  -3.001  0.00  0.00    -0.077 S 
BRANCH  16  17
ATOM     17  C   UNL     1       5.654   3.088  -2.396  0.00  0.00    +0.173 C 
BRANCH  17  19
ATOM     18  N   UNL     1       4.017   1.973  -0.913  0.00  0.00    -0.305 N 
ATOM     19  C   UNL     1       5.238   1.962  -1.485  0.00  0.00    +0.224 C 
ATOM     20  O   UNL     1       6.002   1.046  -1.266  0.00  0.00    -0.275 OA
ATOM     21  H   UNL     1       3.407   2.706  -1.089  0.00  0.00    +0.149 HD
BRANCH  18  23
ATOM     22  C   UNL     1       4.118   1.157   1.390  0.00  0.00    +0.036 C 
ATOM     23  C   UNL     1       3.613   0.879  -0.028  0.00  0.00    +0.136 C 
BRANCH  23  24
ATOM     24  C   UNL     1       2.110   0.773  -0.014  0.00  0.00    +0.126 A 
ATOM     25  C   UNL     1       1.422  -0.377  -0.013  0.00  0.00    +0.055 A 
ATOM     26  C   UNL     1       0.002  -0.004   0.002  0.00  0.00    +0.020 A 
ATOM     27  C   UNL     1      -1.194  -0.720   0.010  0.00  0.00    +0.011 A 
ATOM     28  C   UNL     1      -2.385  -0.050   0.025  0.00  0.00    +0.001 A 
ATOM     29  C   UNL     1      -2.411   1.337   0.034  0.00  0.00    +0.004 A 
ATOM     30  C   UNL     1      -1.238   2.062   0.030  0.00  0.00    +0.047 A 
ATOM     31  C   UNL     1      -0.017   1.401   0.010  0.00  0.00    +0.135 A 
ATOM     32  O   UNL     1       1.265   1.819  -0.000  0.00  0.00    -0.458 OA
ENDBRANCH  23  24
ENDBRANCH  18  23
ENDBRANCH  17  19
ENDBRANCH  16  17
ENDBRANCH   1  16
BRANCH   5  33
ATOM     33  C   UNL     1       9.913   3.760  -4.825  0.00  0.00    +0.152 C 
BRANCH  33  34
ATOM     34  C   UNL     1       9.818   2.788  -5.973  0.00  0.00    -0.013 C 
ATOM     35  C   UNL     1      10.732   2.792  -6.912  0.00  0.00    +0.005 C 
ENDBRANCH  33  34
ENDBRANCH   5  33
TORSDOF 8
