REMARK  Name = ZINC45386137
REMARK  5 active torsions:
REMARK  status: ('A' for Active; 'I' for Inactive)
REMARK    1  A    between atoms: C_3  and  N_20
REMARK    2  A    between atoms: C_5  and  O_7
REMARK    3  A    between atoms: O_7  and  C_8
REMARK    4  A    between atoms: C_21  and  C_23
REMARK    5  A    between atoms: C_27  and  C_29
REMARK                            x       y       z     vdW  Elec       q    Type
REMARK                         _______ _______ _______ _____ _____    ______ ____
ROOT
ATOM      1  C   UNL     1       0.012   1.397  -0.179  0.00  0.00    +0.005 A 
ATOM      2  C   UNL     1       1.214   2.074  -0.255  0.00  0.00    +0.023 A 
ATOM      3  C   UNL     1       2.410   1.387  -0.092  0.00  0.00    +0.037 A 
ATOM      4  C   UNL     1       2.396   0.019   0.146  0.00  0.00    +0.069 A 
ATOM      5  C   UNL     1       1.188  -0.656   0.222  0.00  0.00    +0.130 A 
ATOM      6  C   UNL     1      -0.004   0.036   0.058  0.00  0.00    +0.046 A 
ENDROOT
BRANCH   3   7
ATOM      7  N   UNL     1       3.627   2.071  -0.169  0.00  0.00    -0.281 N 
ATOM      8  C   UNL     1       4.702   1.475  -0.723  0.00  0.00    +0.248 C 
ATOM      9  O   UNL     1       4.637   0.315  -1.080  0.00  0.00    -0.270 OA
ATOM     10  H   UNL     1       3.698   2.975   0.176  0.00  0.00    +0.155 HD
BRANCH   8  11
ATOM     11  C   UNL     1       5.959   2.232  -0.896  0.00  0.00    +0.038 A 
ATOM     12  C   UNL     1       6.039   3.563  -0.481  0.00  0.00    +0.014 A 
ATOM     13  C   UNL     1       7.214   4.264  -0.645  0.00  0.00    +0.021 A 
ATOM     14  C   UNL     1       8.316   3.651  -1.220  0.00  0.00    +0.053 A 
ATOM     15  C   UNL     1       8.243   2.331  -1.633  0.00  0.00    +0.074 A 
ATOM     16  C   UNL     1       7.074   1.618  -1.469  0.00  0.00    +0.027 A 
ATOM     17 CL   UNL     1       9.792   4.540  -1.424  0.00  0.00    -0.083 Cl
BRANCH  15  18
ATOM     18  C   UNL     1       9.445   1.671  -2.257  0.00  0.00    +0.419 C 
ATOM     19  F   UNL     1       9.132   0.349  -2.590  0.00  0.00    -0.166 F 
ATOM     20  F   UNL     1       9.812   2.368  -3.413  0.00  0.00    -0.166 F 
ATOM     21  F   UNL     1      10.509   1.684  -1.348  0.00  0.00    -0.166 F 
ENDBRANCH  15  18
ENDBRANCH   8  11
ENDBRANCH   3   7
BRANCH   5  22
ATOM     22  O   UNL     1       1.171  -1.994   0.455  0.00  0.00    -0.454 OA
BRANCH  22  23
ATOM     23  C   UNL     1       1.405  -2.425   1.723  0.00  0.00    +0.154 A 
ATOM     24  C   UNL     1       1.543  -1.509   2.754  0.00  0.00    +0.048 A 
ATOM     25  C   UNL     1       1.783  -1.944   4.045  0.00  0.00    +0.006 A 
ATOM     26  C   UNL     1       1.887  -3.295   4.318  0.00  0.00    +0.028 A 
ATOM     27  C   UNL     1       1.750  -4.221   3.293  0.00  0.00    +0.070 A 
ATOM     28  C   UNL     1       1.503  -3.786   1.991  0.00  0.00    +0.110 A 
ATOM     29  N   UNL     1       1.409  -4.927   1.196  0.00  0.00    -0.303 N 
ATOM     30  H   UNL     1       1.244  -4.942   0.240  0.00  0.00    +0.171 HD
ATOM     31  C   UNL     1       1.585  -6.006   1.982  0.00  0.00    +0.325 A 
ATOM     32  O   UNL     1       1.563  -7.162   1.601  0.00  0.00    -0.247 OA
ATOM     33  N   UNL     1       1.802  -5.612   3.251  0.00  0.00    -0.306 N 
ATOM     34  H   UNL     1       1.956  -6.197   4.008  0.00  0.00    +0.170 HD
ENDBRANCH  22  23
ENDBRANCH   5  22
TORSDOF 5
