REMARK  Name = ZINC16700472
REMARK  12 active torsions:
REMARK  status: ('A' for Active; 'I' for Inactive)
REMARK    1  A    between atoms: C_1  and  C_2
REMARK    2  A    between atoms: C_4  and  C_31
REMARK    3  A    between atoms: C_6  and  S_9
REMARK    4  A    between atoms: C_7  and  C_8
REMARK    5  A    between atoms: S_9  and  N_12
REMARK    6  A    between atoms: C_16  and  O_30
REMARK    7  A    between atoms: N_26  and  C_27
REMARK    8  A    between atoms: C_27  and  C_28
REMARK    9  A    between atoms: C_28  and  O_29
REMARK   10  A    between atoms: C_31  and  C_32
REMARK   11  A    between atoms: C_31  and  C_33
REMARK   12  A    between atoms: C_31  and  C_34
REMARK                            x       y       z     vdW  Elec       q    Type
REMARK                         _______ _______ _______ _____ _____    ______ ____
ROOT
ATOM      1  N   UNL     1       1.490  -2.625   3.461  0.00  0.00    -0.128 NA
ATOM      2  C   UNL     1       1.724  -3.080   4.666  0.00  0.00    +0.095 C 
ATOM      3  C   UNL     1       2.935  -2.713   5.443  0.00  0.00    +0.054 C 
ATOM      4  C   UNL     1       2.761  -2.531   6.778  0.00  0.00    +0.073 C 
ATOM      5  C   UNL     1       1.390  -2.661   7.368  0.00  0.00    +0.235 C 
ATOM      6  C   UNL     1       0.641  -3.804   6.753  0.00  0.00    +0.026 A 
ATOM      7  C   UNL     1       0.794  -4.007   5.375  0.00  0.00    +0.011 A 
ATOM      8  C   UNL     1       0.110  -5.024   4.738  0.00  0.00    +0.010 A 
ATOM      9  C   UNL     1      -0.722  -5.847   5.478  0.00  0.00    +0.001 A 
ATOM     10  C   UNL     1      -0.861  -5.649   6.840  0.00  0.00    +0.000 A 
ATOM     11  C   UNL     1      -0.179  -4.637   7.475  0.00  0.00    +0.010 A 
ATOM     12  O   UNL     1       1.340  -2.638   8.766  0.00  0.00    -0.339 OA
ATOM     13  C   UNL     1       2.519  -2.833   9.519  0.00  0.00    +0.183 C 
ATOM     14  C   UNL     1       3.676  -1.995   8.988  0.00  0.00    +0.133 C 
ATOM     15  N   UNL     1       3.849  -2.243   7.557  0.00  0.00    -0.324 N 
ENDROOT
BRANCH   1  16
ATOM     16  S   UNL     1       0.035  -2.928   2.730  0.00  0.00    +0.100 S 
ATOM     17  O   UNL     1      -0.959  -2.804   3.737  0.00  0.00    -0.146 OA
ATOM     18  O   UNL     1       0.204  -4.115   1.967  0.00  0.00    -0.146 OA
BRANCH  16  24
ATOM     19  C   UNL     1      -0.851   2.102   1.617  0.00  0.00    +0.044 C 
ATOM     20  C   UNL     1      -0.655   0.691   1.125  0.00  0.00    -0.045 A 
ATOM     21  C   UNL     1      -0.699   0.418  -0.229  0.00  0.00    +0.008 A 
ATOM     22  C   UNL     1      -0.519  -0.876  -0.680  0.00  0.00    -0.040 A 
ATOM     23  C   UNL     1      -0.295  -1.898   0.224  0.00  0.00    +0.033 A 
ATOM     24  C   UNL     1      -0.250  -1.625   1.578  0.00  0.00    +0.116 A 
ATOM     25  C   UNL     1      -0.425  -0.330   2.029  0.00  0.00    -0.021 A 
ATOM     26  C   UNL     1      -0.371  -0.032   3.505  0.00  0.00    +0.046 C 
BRANCH  22  27
ATOM     27  C   UNL     1      -0.568  -1.173  -2.157  0.00  0.00    -0.013 C 
ATOM     28  C   UNL     1      -0.828   0.121  -2.929  0.00  0.00    +0.015 C 
ATOM     29  C   UNL     1       0.768  -1.772  -2.601  0.00  0.00    +0.015 C 
ATOM     30  C   UNL     1      -1.693  -2.171  -2.439  0.00  0.00    +0.015 C 
ENDBRANCH  22  27
ENDBRANCH  16  24
ENDBRANCH   1  16
BRANCH   5  31
ATOM     31  O   UNL     1       0.688  -1.485   6.959  0.00  0.00    -0.356 OA
ATOM     32  H   UNL     1      -0.224  -1.441   7.277  0.00  0.00    +0.213 HD
ENDBRANCH   5  31
BRANCH  15  33
ATOM     33  C   UNL     1       5.185  -2.183   6.959  0.00  0.00    +0.133 C 
BRANCH  33  34
ATOM     34  C   UNL     1       5.468  -0.756   6.484  0.00  0.00    +0.174 C 
BRANCH  34  35
ATOM     35  O   UNL     1       5.519   0.120   7.612  0.00  0.00    -0.393 OA
ATOM     36  H   UNL     1       5.696   1.043   7.386  0.00  0.00    +0.209 HD
ENDBRANCH  34  35
ENDBRANCH  33  34
ENDBRANCH  15  33
TORSDOF 7
