REMARK  Name = ZINC39510740
REMARK  7 active torsions:
REMARK  status: ('A' for Active; 'I' for Inactive)
REMARK    1  A    between atoms: C_4  and  O_7
REMARK    2  A    between atoms: O_7  and  S_8
REMARK    3  A    between atoms: S_8  and  N_11
REMARK    4  A    between atoms: C_15  and  C_30
REMARK    5  A    between atoms: C_20  and  C_23
REMARK    6  A    between atoms: C_28  and  O_29
REMARK    7  A    between atoms: C_35  and  O_36
REMARK                            x       y       z     vdW  Elec       q    Type
REMARK                         _______ _______ _______ _____ _____    ______ ____
ROOT
ATOM      1  N   UNL     1       3.551  -2.132   2.054  0.00  0.00    -0.141 NA
ATOM      2  C   UNL     1       2.213  -2.013   2.654  0.00  0.00    +0.113 C 
ATOM      3  C   UNL     1       2.211  -2.754   3.995  0.00  0.00    +0.018 C 
ATOM      4  C   UNL     1       2.664  -4.200   3.780  0.00  0.00    +0.011 C 
ATOM      5  C   UNL     1       4.097  -4.211   3.239  0.00  0.00    +0.045 C 
ATOM      6  C   UNL     1       4.141  -3.459   1.911  0.00  0.00    +0.053 C 
ATOM      7  C   UNL     1       3.416  -4.257   0.809  0.00  0.00    +0.025 C 
ATOM      8  C   UNL     1       4.051  -3.750  -0.504  0.00  0.00    +0.010 C 
ATOM      9  C   UNL     1       5.431  -3.177  -0.134  0.00  0.00    +0.024 C 
ATOM     10  C   UNL     1       5.588  -3.356   1.392  0.00  0.00    +0.033 C 
ENDROOT
BRANCH   9  11
ATOM     11  C   UNL     1       6.514  -3.934  -0.858  0.00  0.00    -0.003 A 
ATOM     12  C   UNL     1       6.639  -5.299  -0.684  0.00  0.00    +0.007 A 
ATOM     13  C   UNL     1       7.633  -5.994  -1.347  0.00  0.00    +0.001 A 
ATOM     14  C   UNL     1       8.505  -5.325  -2.186  0.00  0.00    +0.004 A 
ATOM     15  C   UNL     1       8.384  -3.961  -2.364  0.00  0.00    +0.046 A 
ATOM     16  C   UNL     1       7.384  -3.262  -1.704  0.00  0.00    +0.120 A 
BRANCH  16  17
ATOM     17  O   UNL     1       7.260  -1.921  -1.881  0.00  0.00    -0.506 OA
ATOM     18  H   UNL     1       7.774  -1.392  -1.255  0.00  0.00    +0.292 HD
ENDBRANCH  16  17
ENDBRANCH   9  11
BRANCH   5  19
ATOM     19  C   UNL     1       4.543  -5.634   3.025  0.00  0.00    -0.001 A 
ATOM     20  C   UNL     1       5.857  -5.991   3.261  0.00  0.00    +0.007 A 
ATOM     21  C   UNL     1       6.266  -7.296   3.065  0.00  0.00    +0.001 A 
ATOM     22  C   UNL     1       5.362  -8.249   2.631  0.00  0.00    +0.004 A 
ATOM     23  C   UNL     1       4.048  -7.898   2.394  0.00  0.00    +0.046 A 
ATOM     24  C   UNL     1       3.633  -6.589   2.596  0.00  0.00    +0.120 A 
BRANCH  24  25
ATOM     25  O   UNL     1       2.339  -6.243   2.368  0.00  0.00    -0.506 OA
ATOM     26  H   UNL     1       2.142  -6.044   1.443  0.00  0.00    +0.292 HD
ENDBRANCH  24  25
ENDBRANCH   5  19
BRANCH   1  27
ATOM     27  S   UNL     1       4.370  -0.785   1.544  0.00  0.00    +0.195 S 
ATOM     28  O   UNL     1       5.621  -1.236   1.043  0.00  0.00    -0.119 OA
ATOM     29  O   UNL     1       4.268   0.172   2.590  0.00  0.00    -0.119 OA
BRANCH  27  30
ATOM     30  O   UNL     1       3.606  -0.216   0.358  0.00  0.00    -0.333 OA
BRANCH  30  34
ATOM     31  C   UNL     1       0.156   1.796   1.391  0.00  0.00    +0.000 A 
ATOM     32  C   UNL     1       1.375   2.447   1.437  0.00  0.00    +0.004 A 
ATOM     33  C   UNL     1       2.531   1.776   1.091  0.00  0.00    +0.048 A 
ATOM     34  C   UNL     1       2.469   0.447   0.699  0.00  0.00    +0.158 A 
ATOM     35  C   UNL     1       1.245  -0.205   0.654  0.00  0.00    +0.048 A 
ATOM     36  C   UNL     1       0.091   0.471   1.001  0.00  0.00    +0.004 A 
ENDBRANCH  30  34
ENDBRANCH  27  30
ENDBRANCH   1  27
TORSDOF 7
