REMARK  Name = ZINC13347746
REMARK  10 active torsions:
REMARK  status: ('A' for Active; 'I' for Inactive)
REMARK    1  A    between atoms: C_1  and  C_2
REMARK    2  A    between atoms: C_4  and  C_26
REMARK    3  A    between atoms: C_5  and  C_25
REMARK    4  A    between atoms: C_6  and  S_9
REMARK    5  A    between atoms: C_7  and  C_8
REMARK    6  A    between atoms: S_9  and  N_12
REMARK    7  A    between atoms: N_12  and  C_13
REMARK    8  A    between atoms: C_13  and  C_15
REMARK    9  A    between atoms: C_13  and  C_18
REMARK   10  A    between atoms: C_15  and  C_16
REMARK                            x       y       z     vdW  Elec       q    Type
REMARK                         _______ _______ _______ _____ _____    ______ ____
ROOT
ATOM      1  N   UNL     1      -0.387  -0.588   2.331  0.00  0.00    -0.182 NA
ATOM      2  H   UNL     1       0.359  -0.945   2.838  0.00  0.00    +0.149 HD
ENDROOT
BRANCH   1   3
ATOM      3  S   UNL     1      -0.294  -0.490   0.680  0.00  0.00    +0.059 S 
ATOM      4  O   UNL     1      -1.476  -1.091   0.170  0.00  0.00    -0.153 OA
ATOM      5  O   UNL     1       1.006  -0.939   0.320  0.00  0.00    -0.153 OA
BRANCH   3  11
ATOM      6  C   UNL     1       1.951   4.184   0.024  0.00  0.00    +0.044 C 
ATOM      7  C   UNL     1       0.707   3.336  -0.030  0.00  0.00    -0.045 A 
ATOM      8  C   UNL     1      -0.497   3.898  -0.413  0.00  0.00    +0.007 A 
ATOM      9  C   UNL     1      -1.638   3.119  -0.463  0.00  0.00    -0.045 A 
ATOM     10  C   UNL     1      -1.576   1.780  -0.129  0.00  0.00    -0.021 A 
ATOM     11  C   UNL     1      -0.373   1.218   0.254  0.00  0.00    +0.112 A 
ATOM     12  C   UNL     1       0.768   1.997   0.309  0.00  0.00    -0.021 A 
ATOM     13  C   UNL     1       2.079   1.386   0.733  0.00  0.00    +0.046 C 
ATOM     14  C   UNL     1      -2.821   0.931  -0.182  0.00  0.00    +0.046 C 
ATOM     15  C   UNL     1      -2.950   3.732  -0.880  0.00  0.00    +0.044 C 
ENDBRANCH   3  11
ENDBRANCH   1   3
BRANCH   1  16
ATOM     16  C   UNL     1      -1.596  -0.136   3.024  0.00  0.00    +0.117 C 
BRANCH  16  17
ATOM     17  C   UNL     1      -1.402   1.281   3.499  0.00  0.00    -0.028 A 
ATOM     18  C   UNL     1      -0.186   1.672   4.029  0.00  0.00    +0.008 A 
ATOM     19  C   UNL     1      -0.006   2.973   4.459  0.00  0.00    +0.038 A 
ATOM     20  C   UNL     1      -1.046   3.881   4.370  0.00  0.00    +0.123 A 
ATOM     21  C   UNL     1      -2.265   3.488   3.844  0.00  0.00    +0.038 A 
ATOM     22  C   UNL     1      -2.441   2.188   3.409  0.00  0.00    +0.008 A 
ATOM     23  F   UNL     1      -0.873   5.152   4.797  0.00  0.00    -0.205 F 
ENDBRANCH  16  17
BRANCH  16  24
ATOM     24  C   UNL     1      -1.864  -1.044   4.226  0.00  0.00    +0.150 C 
BRANCH  24  25
ATOM     25  C   UNL     1      -2.155  -2.442   3.744  0.00  0.00    +0.358 C 
ATOM     26  O   UNL     1      -2.074  -2.705   2.567  0.00  0.00    -0.246 OA
ATOM     27  O   UNL     1      -2.505  -3.395   4.622  0.00  0.00    -0.246 OA
ENDBRANCH  24  25
ENDBRANCH  16  24
ENDBRANCH   1  16
TORSDOF 6
