REMARK  Name = ZINC39226239
REMARK  6 active torsions:
REMARK  status: ('A' for Active; 'I' for Inactive)
REMARK    1  A    between atoms: C_1  and  C_2
REMARK    2  A    between atoms: C_7  and  N_10
REMARK    3  A    between atoms: C_11  and  C_13
REMARK    4  A    between atoms: C_16  and  C_19
REMARK    5  A    between atoms: C_25  and  O_36
REMARK    6  A    between atoms: N_32  and  C_35
REMARK                            x       y       z     vdW  Elec       q    Type
REMARK                         _______ _______ _______ _____ _____    ______ ____
ROOT
ATOM      1  C   UNL     1       4.828  -5.639   7.050  0.00  0.00    -0.017 A 
ATOM      2  C   UNL     1       4.889  -4.852   8.200  0.00  0.00    +0.012 A 
ATOM      3  C   UNL     1       5.555  -5.315   9.312  0.00  0.00    +0.046 A 
ATOM      4  C   UNL     1       6.168  -6.566   9.296  0.00  0.00    +0.127 A 
ATOM      5  C   UNL     1       6.112  -7.348   8.154  0.00  0.00    +0.023 A 
ATOM      6  C   UNL     1       5.438  -6.891   7.037  0.00  0.00    +0.018 A 
ATOM      7  C   UNL     1       6.774  -8.702   8.095  0.00  0.00    +0.152 C 
ATOM      8  C   UNL     1       7.053  -9.201   9.515  0.00  0.00    +0.084 C 
ATOM      9  C   UNL     1       7.725  -8.071  10.302  0.00  0.00    +0.110 C 
ATOM     10  O   UNL     1       6.806  -6.986  10.419  0.00  0.00    -0.485 OA
ATOM     11  C   UNL     1       8.110  -8.576  11.694  0.00  0.00    +0.029 C 
ATOM     12  C   UNL     1       8.852  -7.469  12.445  0.00  0.00    -0.075 C 
ATOM     13  N   UNL     1      10.062  -7.096  11.703  0.00  0.00    +0.378 N 
ATOM     14  C   UNL     1       9.694  -6.540  10.395  0.00  0.00    -0.075 C 
ATOM     15  C   UNL     1       8.983  -7.610   9.564  0.00  0.00    +0.029 C 
ATOM     16  C   UNL     1      10.814  -6.091  12.466  0.00  0.00    -0.096 C 
ATOM     17  H   UNL     1      10.639  -7.913  11.569  0.00  0.00    -0.082 HD
ENDROOT
BRANCH   1  21
ATOM     18  C   UNL     1       2.771  -4.229   3.603  0.00  0.00    +0.037 A 
ATOM     19  C   UNL     1       2.835  -3.436   4.751  0.00  0.00    +0.013 A 
ATOM     20  C   UNL     1       3.501  -3.893   5.866  0.00  0.00    +0.009 A 
ATOM     21  C   UNL     1       4.111  -5.148   5.849  0.00  0.00    -0.018 A 
ATOM     22  C   UNL     1       4.047  -5.941   4.702  0.00  0.00    +0.009 A 
ATOM     23  C   UNL     1       3.377  -5.488   3.589  0.00  0.00    +0.013 A 
BRANCH  18  25
ATOM     24  N   UNL     1       1.471  -2.526   2.420  0.00  0.00    -0.308 N 
ATOM     25  C   UNL     1       2.056  -3.740   2.406  0.00  0.00    +0.244 C 
ATOM     26  O   UNL     1       1.996  -4.433   1.409  0.00  0.00    -0.270 OA
ATOM     27  H   UNL     1       1.520  -1.974   3.216  0.00  0.00    +0.149 HD
BRANCH  24  33
ATOM     28  C   UNL     1      -0.019   1.526   0.010  0.00  0.00    +0.007 C 
ATOM     29  C   UNL     1       0.002  -0.004   0.002  0.00  0.00    -0.012 C 
ATOM     30  C   UNL     1      -1.433  -0.534   0.013  0.00  0.00    +0.003 C 
ATOM     31  C   UNL     1      -1.413  -2.063   0.004  0.00  0.00    +0.002 C 
ATOM     32  C   UNL     1      -0.673  -2.570   1.244  0.00  0.00    +0.022 C 
ATOM     33  C   UNL     1       0.763  -2.041   1.233  0.00  0.00    +0.073 C 
ATOM     34  C   UNL     1       0.742  -0.511   1.242  0.00  0.00    +0.025 C 
ENDBRANCH  24  33
ENDBRANCH  18  25
ENDBRANCH   1  21
BRANCH   7  35
ATOM     35  O   UNL     1       5.912  -9.625   7.428  0.00  0.00    -0.387 OA
ATOM     36  H   UNL     1       5.694  -9.374   6.520  0.00  0.00    +0.210 HD
ENDBRANCH   7  35
TORSDOF 4
