REMARK  Name = ZINC64532929
REMARK  9 active torsions:
REMARK  status: ('A' for Active; 'I' for Inactive)
REMARK    1  A    between atoms: C_1  and  C_2
REMARK    2  A    between atoms: C_2  and  C_3
REMARK    3  A    between atoms: C_3  and  C_4
REMARK    4  A    between atoms: C_4  and  O_5
REMARK    5  A    between atoms: O_5  and  C_6
REMARK    6  A    between atoms: C_7  and  C_12
REMARK    7  A    between atoms: C_12  and  N_13
REMARK    8  A    between atoms: N_16  and  C_17
REMARK    9  A    between atoms: C_20  and  C_23
REMARK                            x       y       z     vdW  Elec       q    Type
REMARK                         _______ _______ _______ _____ _____    ______ ____
ROOT
ATOM      1  N   UNL     1       1.750  -2.990   5.578  0.00  0.00    -0.295 N 
ATOM      2  C   UNL     1       2.048  -2.158   6.596  0.00  0.00    +0.304 C 
ATOM      3  O   UNL     1       3.197  -1.798   6.770  0.00  0.00    -0.252 OA
ATOM      4  N   UNL     1       1.074  -1.726   7.421  0.00  0.00    -0.269 N 
ATOM      5  H   UNL     1       0.834  -3.277   5.439  0.00  0.00    +0.151 HD
ATOM      6  H   UNL     1       0.149  -1.959   7.243  0.00  0.00    +0.156 HD
ENDROOT
BRANCH   4   7
ATOM      7  C   UNL     1       1.397  -0.942   8.534  0.00  0.00    +0.035 A 
ATOM      8  C   UNL     1       2.436  -0.023   8.457  0.00  0.00    +0.024 A 
ATOM      9  C   UNL     1       2.756   0.751   9.553  0.00  0.00    +0.012 A 
ATOM     10  C   UNL     1       2.035   0.610  10.738  0.00  0.00    +0.003 A 
ATOM     11  C   UNL     1       0.993  -0.312  10.812  0.00  0.00    +0.012 A 
ATOM     12  C   UNL     1       0.674  -1.080   9.712  0.00  0.00    +0.024 A 
BRANCH  10  13
ATOM     13  C   UNL     1       2.378   1.441  11.919  0.00  0.00    +0.102 A 
ATOM     14  C   UNL     1       1.710   1.344  13.110  0.00  0.00    +0.097 A 
ATOM     15  S   UNL     1       2.505   2.487  14.050  0.00  0.00    +0.029 S 
ATOM     16  N   UNL     1       3.588   3.017  12.971  0.00  0.00    -0.110 NA
ATOM     17  N   UNL     1       3.357   2.332  11.907  0.00  0.00    -0.141 NA
ENDBRANCH  10  13
ENDBRANCH   4   7
BRANCH   1  18
ATOM     18  C   UNL     1       2.809  -3.459   4.681  0.00  0.00    +0.146 C 
BRANCH  18  20
ATOM     19  C   UNL     1       1.566  -3.840   2.529  0.00  0.00    +0.219 A 
ATOM     20  C   UNL     1       2.216  -4.369   3.636  0.00  0.00    +0.031 A 
ATOM     21  C   UNL     1       2.312  -5.743   3.768  0.00  0.00    +0.012 A 
ATOM     22  C   UNL     1       1.751  -6.543   2.781  0.00  0.00    +0.020 A 
ATOM     23  C   UNL     1       1.120  -5.949   1.707  0.00  0.00    +0.114 A 
ATOM     24  N   UNL     1       1.040  -4.635   1.612  0.00  0.00    -0.221 NA
BRANCH  19  25
ATOM     25  O   UNL     1       1.465  -2.494   2.389  0.00  0.00    -0.476 OA
BRANCH  25  26
ATOM     26  C   UNL     1       0.780  -2.012   1.231  0.00  0.00    +0.231 C 
BRANCH  26  27
ATOM     27  C   UNL     1       0.767  -0.482   1.246  0.00  0.00    +0.041 C 
BRANCH  27  29
ATOM     28  C   UNL     1       0.021   1.564   0.022  0.00  0.00    +0.004 C 
ATOM     29  C   UNL     1       0.034   0.034   0.006  0.00  0.00    -0.000 C 
ENDBRANCH  27  29
ENDBRANCH  26  27
ENDBRANCH  25  26
ENDBRANCH  19  25
ENDBRANCH  18  20
ENDBRANCH   1  18
TORSDOF 8
