REMARK  Name = ZINC27667587
REMARK  12 active torsions:
REMARK  status: ('A' for Active; 'I' for Inactive)
REMARK    1  A    between atoms: C_1  and  C_2
REMARK    2  A    between atoms: C_5  and  S_8
REMARK    3  A    between atoms: S_8  and  N_11
REMARK    4  A    between atoms: N_11  and  C_12
REMARK    5  A    between atoms: N_11  and  C_13
REMARK    6  A    between atoms: C_13  and  C_14
REMARK    7  A    between atoms: N_16  and  C_17
REMARK    8  A    between atoms: C_17  and  C_18
REMARK    9  A    between atoms: C_18  and  C_20
REMARK   10  A    between atoms: C_18  and  N_28
REMARK   11  A    between atoms: C_23  and  O_26
REMARK   12  A    between atoms: O_26  and  C_27
REMARK                            x       y       z     vdW  Elec       q    Type
REMARK                         _______ _______ _______ _____ _____    ______ ____
ROOT
ATOM      1  C   UNL     1       3.912  -4.156  -1.395  0.00  0.00    +0.229 C 
ATOM      2  O   UNL     1       3.513  -4.807  -0.453  0.00  0.00    -0.274 OA
ATOM      3  N   UNL     1       4.620  -4.752  -2.375  0.00  0.00    -0.315 N 
ATOM      4  H   UNL     1       4.982  -4.162  -3.229  0.00  0.00    +0.149 HD
ENDROOT
BRANCH   1   5
ATOM      5  C   UNL     1       3.614  -2.680  -1.472  0.00  0.00    +0.204 C 
BRANCH   5   6
ATOM      6  N   UNL     1       2.836  -2.277  -0.297  0.00  0.00    -0.171 NA
ATOM      7  C   UNL     1       1.379  -2.428  -0.297  0.00  0.00    +0.132 C 
BRANCH   6   8
ATOM      8  S   UNL     1       3.605  -1.652   1.029  0.00  0.00    +0.061 S 
ATOM      9  O   UNL     1       4.942  -2.129   0.987  0.00  0.00    -0.153 OA
ATOM     10  O   UNL     1       2.749  -1.881   2.140  0.00  0.00    -0.153 OA
BRANCH   8  15
ATOM     11  C   UNL     1       3.884   4.328   0.277  0.00  0.00    +0.044 C 
ATOM     12  C   UNL     1       3.814   2.835   0.465  0.00  0.00    -0.050 A 
ATOM     13  C   UNL     1       2.727   2.269   1.105  0.00  0.00    +0.005 A 
ATOM     14  C   UNL     1       2.663   0.899   1.277  0.00  0.00    +0.029 A 
ATOM     15  C   UNL     1       3.686   0.095   0.809  0.00  0.00    +0.105 A 
ATOM     16  C   UNL     1       4.772   0.661   0.169  0.00  0.00    +0.029 A 
ATOM     17  C   UNL     1       4.836   2.031  -0.004  0.00  0.00    +0.005 A 
ENDBRANCH   8  15
ENDBRANCH   6   8
ENDBRANCH   5   6
ENDBRANCH   1   5
BRANCH   3  18
ATOM     18  C   UNL     1       4.909  -6.186  -2.300  0.00  0.00    +0.093 C 
BRANCH  18  19
ATOM     19  C   UNL     1       5.721  -6.607  -3.527  0.00  0.00    -0.020 C 
BRANCH  19  20
ATOM     20  N   UNL     1       5.003  -6.217  -4.747  0.00  0.00    +0.385 N 
ATOM     21  C   UNL     1       3.704  -6.896  -4.833  0.00  0.00    -0.078 C 
ATOM     22  C   UNL     1       2.924  -6.358  -6.035  0.00  0.00    -0.019 C 
ATOM     23  C   UNL     1       3.734  -6.601  -7.312  0.00  0.00    -0.004 C 
ATOM     24  C   UNL     1       5.100  -5.924  -7.177  0.00  0.00    -0.019 C 
ATOM     25  C   UNL     1       5.817  -6.474  -5.942  0.00  0.00    -0.078 C 
ATOM     26  H   UNL     1       4.813  -5.134  -4.698  0.00  0.00    -0.081 HD
ENDBRANCH  19  20
BRANCH  19  27
ATOM     27  C   UNL     1       5.914  -8.102  -3.513  0.00  0.00    -0.059 A 
ATOM     28  C   UNL     1       4.826  -8.936  -3.331  0.00  0.00    +0.005 A 
ATOM     29  C   UNL     1       4.999 -10.306  -3.324  0.00  0.00    +0.046 A 
ATOM     30  C   UNL     1       6.267 -10.845  -3.488  0.00  0.00    +0.120 A 
ATOM     31  C   UNL     1       7.357 -10.006  -3.665  0.00  0.00    +0.046 A 
ATOM     32  C   UNL     1       7.178  -8.636  -3.677  0.00  0.00    +0.005 A 
BRANCH  30  33
ATOM     33  O   UNL     1       6.440 -12.193  -3.475  0.00  0.00    -0.495 OA
ATOM     34  C   UNL     1       5.273 -12.996  -3.288  0.00  0.00    +0.277 C 
ENDBRANCH  30  33
ENDBRANCH  19  27
ENDBRANCH  18  19
ENDBRANCH   3  18
TORSDOF 9
