REMARK  Name = ZINC39637097
REMARK  5 active torsions:
REMARK  status: ('A' for Active; 'I' for Inactive)
REMARK    1  A    between atoms: C_1  and  C_2
REMARK    2  A    between atoms: C_7  and  N_12
REMARK    3  A    between atoms: C_9  and  C_11
REMARK    4  A    between atoms: C_13  and  C_15
REMARK    5  A    between atoms: C_26  and  C_28
REMARK                            x       y       z     vdW  Elec       q    Type
REMARK                         _______ _______ _______ _____ _____    ______ ____
ROOT
ATOM      1  C   UNL     1       3.122  -4.034   3.112  0.00  0.00    +0.100 C 
ATOM      2  C   UNL     1       4.303  -3.224   3.692  0.00  0.00    +0.121 C 
ATOM      3  N   UNL     1       5.250  -4.250   4.191  0.00  0.00    -0.296 N 
ATOM      4  C   UNL     1       5.202  -5.323   3.170  0.00  0.00    +0.115 C 
ATOM      5  C   UNL     1       3.716  -5.410   2.770  0.00  0.00    -0.004 C 
ATOM      6  C   UNL     1       3.589  -5.684   1.274  0.00  0.00    -0.010 C 
ATOM      7  C   UNL     1       4.133  -7.082   0.968  0.00  0.00    -0.082 C 
ATOM      8  N   UNL     1       3.380  -8.082   1.735  0.00  0.00    +0.379 N 
ATOM      9  C   UNL     1       3.583  -7.867   3.172  0.00  0.00    -0.082 C 
ATOM     10  C   UNL     1       3.016  -6.502   3.572  0.00  0.00    -0.010 C 
ATOM     11  C   UNL     1       5.987  -4.214   5.319  0.00  0.00    +0.247 C 
ATOM     12  O   UNL     1       5.834  -3.309   6.117  0.00  0.00    -0.270 OA
ATOM     13  H   UNL     1       2.398  -7.999   1.519  0.00  0.00    -0.086 HD
ATOM     14  H   UNL     1       3.699  -9.006   1.485  0.00  0.00    -0.086 HD
ENDROOT
BRANCH  11  15
ATOM     15  C   UNL     1       6.981  -5.274   5.586  0.00  0.00    +0.038 A 
ATOM     16  C   UNL     1       7.490  -6.039   4.534  0.00  0.00    +0.014 A 
ATOM     17  C   UNL     1       8.417  -7.027   4.789  0.00  0.00    +0.022 A 
ATOM     18  C   UNL     1       8.844  -7.263   6.085  0.00  0.00    +0.059 A 
ATOM     19  C   UNL     1       8.343  -6.508   7.134  0.00  0.00    +0.060 A 
ATOM     20  C   UNL     1       7.419  -5.512   6.890  0.00  0.00    +0.034 A 
ATOM     21 CL   UNL     1       8.884  -6.810   8.755  0.00  0.00    -0.082 Cl
ATOM     22 CL   UNL     1      10.011  -8.510   6.398  0.00  0.00    -0.082 Cl
ENDBRANCH  11  15
BRANCH   1  24
ATOM     23  N   UNL     1       1.295  -3.514   1.527  0.00  0.00    -0.312 N 
ATOM     24  C   UNL     1       2.591  -3.368   1.868  0.00  0.00    +0.218 C 
ATOM     25  O   UNL     1       3.329  -2.701   1.175  0.00  0.00    -0.275 OA
ATOM     26  H   UNL     1       0.704  -4.047   2.082  0.00  0.00    +0.149 HD
BRANCH  23  32
ATOM     27  C   UNL     1      -2.774  -1.743  -0.652  0.00  0.00    +0.008 C 
ATOM     28  C   UNL     1      -1.268  -1.967  -0.798  0.00  0.00    -0.009 C 
ATOM     29  C   UNL     1      -1.000  -2.862  -2.010  0.00  0.00    +0.003 C 
ATOM     30  C   UNL     1       0.507  -3.086  -2.155  0.00  0.00    +0.002 C 
ATOM     31  C   UNL     1       1.046  -3.762  -0.893  0.00  0.00    +0.022 C 
ATOM     32  C   UNL     1       0.778  -2.867   0.319  0.00  0.00    +0.076 C 
ATOM     33  C   UNL     1      -0.728  -2.643   0.464  0.00  0.00    +0.009 C 
ATOM     34  C   UNL     1      -1.427  -3.989   0.660  0.00  0.00    +0.009 C 
ENDBRANCH  23  32
ENDBRANCH   1  24
TORSDOF 3
