REMARK  Name = ZINC39636103
REMARK  6 active torsions:
REMARK  status: ('A' for Active; 'I' for Inactive)
REMARK    1  A    between atoms: C_1  and  C_2
REMARK    2  A    between atoms: C_8  and  N_10
REMARK    3  A    between atoms: C_11  and  C_13
REMARK    4  A    between atoms: C_24  and  C_26
REMARK    5  A    between atoms: C_29  and  O_33
REMARK    6  A    between atoms: O_33  and  C_34
REMARK                            x       y       z     vdW  Elec       q    Type
REMARK                         _______ _______ _______ _____ _____    ______ ____
ROOT
ATOM      1  C   UNL     1       0.443   1.010   4.489  0.00  0.00    +0.100 C 
ATOM      2  C   UNL     1      -0.263   2.384   4.506  0.00  0.00    +0.121 C 
ATOM      3  N   UNL     1      -0.065   2.889   5.886  0.00  0.00    -0.296 N 
ATOM      4  C   UNL     1       1.322   2.493   6.228  0.00  0.00    +0.115 C 
ATOM      5  C   UNL     1       1.483   1.085   5.619  0.00  0.00    -0.004 C 
ATOM      6  C   UNL     1       1.196   0.019   6.672  0.00  0.00    -0.010 C 
ATOM      7  C   UNL     1       2.276   0.077   7.757  0.00  0.00    -0.082 C 
ATOM      8  N   UNL     1       3.594  -0.147   7.151  0.00  0.00    +0.379 N 
ATOM      9  C   UNL     1       3.901   0.934   6.206  0.00  0.00    -0.082 C 
ATOM     10  C   UNL     1       2.890   0.912   5.056  0.00  0.00    -0.010 C 
ATOM     11  C   UNL     1      -0.947   3.557   6.655  0.00  0.00    +0.247 C 
ATOM     12  O   UNL     1      -2.095   3.697   6.282  0.00  0.00    -0.270 OA
ATOM     13  H   UNL     1       4.296  -0.169   7.875  0.00  0.00    -0.086 HD
ATOM     14  H   UNL     1       3.591  -1.029   6.661  0.00  0.00    -0.086 HD
ENDROOT
BRANCH  11  15
ATOM     15  C   UNL     1      -0.518   4.119   7.951  0.00  0.00    +0.040 A 
ATOM     16  C   UNL     1       0.837   4.356   8.198  0.00  0.00    +0.036 A 
ATOM     17  C   UNL     1       1.233   4.880   9.409  0.00  0.00    +0.085 A 
ATOM     18  C   UNL     1       0.287   5.173  10.385  0.00  0.00    +0.157 A 
ATOM     19  C   UNL     1      -1.062   4.939  10.143  0.00  0.00    +0.085 A 
ATOM     20  C   UNL     1      -1.467   4.421   8.931  0.00  0.00    +0.036 A 
ATOM     21 CL   UNL     1      -2.239   5.307  11.365  0.00  0.00    -0.080 Cl
ATOM     22 CL   UNL     1       2.916   5.174   9.717  0.00  0.00    -0.080 Cl
BRANCH  18  23
ATOM     23  O   UNL     1       0.681   5.689  11.577  0.00  0.00    -0.492 OA
ATOM     24  C   UNL     1       0.750   7.113  11.677  0.00  0.00    +0.277 C 
ENDBRANCH  18  23
ENDBRANCH  11  15
BRANCH   1  26
ATOM     25  N   UNL     1       1.264  -0.463   2.678  0.00  0.00    -0.312 N 
ATOM     26  C   UNL     1       1.125   0.787   3.163  0.00  0.00    +0.218 C 
ATOM     27  O   UNL     1       1.548   1.733   2.532  0.00  0.00    -0.275 OA
ATOM     28  H   UNL     1       0.926  -1.219   3.183  0.00  0.00    +0.149 HD
BRANCH  25  35
ATOM     29  C   UNL     1      -0.079  -1.922   0.567  0.00  0.00    +0.009 C 
ATOM     30  C   UNL     1       1.435  -1.992   0.778  0.00  0.00    +0.006 C 
ATOM     31  C   UNL     1       2.127  -2.218  -0.568  0.00  0.00    +0.005 C 
ATOM     32  C   UNL     1       3.641  -2.289  -0.357  0.00  0.00    +0.000 C 
ATOM     33  C   UNL     1       4.133  -0.976   0.255  0.00  0.00    +0.002 C 
ATOM     34  C   UNL     1       3.441  -0.750   1.600  0.00  0.00    +0.022 C 
ATOM     35  C   UNL     1       1.927  -0.679   1.390  0.00  0.00    +0.076 C 
ENDBRANCH  25  35
ENDBRANCH   1  26
TORSDOF 4
