REMARK  Name = ZINC33268490
REMARK  4 active torsions:
REMARK  status: ('A' for Active; 'I' for Inactive)
REMARK    1  A    between atoms: C_1  and  C_2
REMARK    2  A    between atoms: C_6  and  N_8
REMARK    3  A    between atoms: C_14  and  C_16
REMARK    4  A    between atoms: C_19  and  C_22
REMARK                            x       y       z     vdW  Elec       q    Type
REMARK                         _______ _______ _______ _____ _____    ______ ____
ROOT
ATOM      1  C   UNL     1      -0.156   9.375  -2.671  0.00  0.00    +0.037 A 
ATOM      2  C   UNL     1      -1.431   8.831  -2.832  0.00  0.00    +0.013 A 
ATOM      3  C   UNL     1      -2.248   9.286  -3.846  0.00  0.00    +0.007 A 
ATOM      4  C   UNL     1      -1.802  10.272  -4.709  0.00  0.00    -0.011 A 
ATOM      5  C   UNL     1      -0.537  10.811  -4.557  0.00  0.00    +0.007 A 
ATOM      6  C   UNL     1       0.288  10.369  -3.544  0.00  0.00    +0.013 A 
ENDROOT
BRANCH   4   7
ATOM      7  C   UNL     1      -2.698  10.759  -5.818  0.00  0.00    +0.191 C 
ATOM      8  N   UNL     1      -2.408  12.163  -6.101  0.00  0.00    -0.322 N 
ATOM      9  C   UNL     1      -2.721  13.200  -5.226  0.00  0.00    +0.055 A 
ATOM     10  C   UNL     1      -2.044  14.412  -5.352  0.00  0.00    +0.025 A 
ATOM     11  C   UNL     1      -2.355  15.470  -4.524  0.00  0.00    +0.002 A 
ATOM     12  C   UNL     1      -3.340  15.337  -3.563  0.00  0.00    +0.002 A 
ATOM     13  C   UNL     1      -4.012  14.136  -3.427  0.00  0.00    +0.030 A 
ATOM     14  C   UNL     1      -3.701  13.074  -4.251  0.00  0.00    +0.126 A 
ATOM     15  S   UNL     1      -4.553  11.537  -4.065  0.00  0.00    +0.062 S 
ATOM     16  O   UNL     1      -5.941  11.813  -4.192  0.00  0.00    -0.153 OA
ATOM     17  O   UNL     1      -3.997  10.888  -2.929  0.00  0.00    -0.153 OA
ATOM     18  N   UNL     1      -4.110  10.642  -5.402  0.00  0.00    -0.166 NA
ATOM     19  H   UNL     1      -1.919  12.444  -7.045  0.00  0.00    +0.148 HD
ATOM     20  H   UNL     1      -4.835  10.130  -6.053  0.00  0.00    +0.150 HD
ENDBRANCH   4   7
BRANCH   1  27
ATOM     21  N   UNL     1       2.021   5.036  -1.725  0.00  0.00    -0.327 N 
ATOM     22  C   UNL     1       1.214   5.605  -2.812  0.00  0.00    +0.124 C 
ATOM     23  C   UNL     1       0.195   6.589  -2.226  0.00  0.00    +0.127 C 
ATOM     24  N   UNL     1       0.915   7.573  -1.405  0.00  0.00    -0.295 N 
ATOM     25  C   UNL     1       1.850   7.077  -0.383  0.00  0.00    +0.127 C 
ATOM     26  C   UNL     1       2.803   6.074  -1.042  0.00  0.00    +0.124 C 
ATOM     27  C   UNL     1       0.724   8.895  -1.583  0.00  0.00    +0.247 C 
ATOM     28  O   UNL     1       1.274   9.694  -0.850  0.00  0.00    -0.270 OA
BRANCH  21  34
ATOM     29  C   UNL     1       2.534   0.759  -4.091  0.00  0.00    +0.044 C 
ATOM     30  C   UNL     1       3.125   1.930  -3.349  0.00  0.00    -0.049 A 
ATOM     31  C   UNL     1       4.490   1.995  -3.136  0.00  0.00    +0.003 A 
ATOM     32  C   UNL     1       5.038   3.070  -2.461  0.00  0.00    +0.002 A 
ATOM     33  C   UNL     1       4.221   4.080  -1.991  0.00  0.00    +0.023 A 
ATOM     34  C   UNL     1       2.849   4.015  -2.198  0.00  0.00    +0.030 A 
ATOM     35  C   UNL     1       2.303   2.933  -2.877  0.00  0.00    +0.026 A 
ENDBRANCH  21  34
ENDBRANCH   1  27
TORSDOF 3
