REMARK  Name = ZINC22883378
REMARK  8 active torsions:
REMARK  status: ('A' for Active; 'I' for Inactive)
REMARK    1  A    between atoms: C_1  and  C_2
REMARK    2  A    between atoms: C_3  and  C_34
REMARK    3  A    between atoms: C_11  and  C_13
REMARK    4  A    between atoms: C_13  and  S_14
REMARK    5  A    between atoms: S_14  and  C_15
REMARK    6  A    between atoms: C_18  and  C_27
REMARK    7  A    between atoms: N_19  and  C_20
REMARK    8  A    between atoms: C_27  and  N_28
REMARK                            x       y       z     vdW  Elec       q    Type
REMARK                         _______ _______ _______ _____ _____    ______ ____
ROOT
ATOM      1  C   UNL     1       0.236  -5.974   5.633  0.00  0.00    +0.196 A 
ATOM      2  N   UNL     1       0.154  -5.641   6.900  0.00  0.00    -0.122 NA
ATOM      3  N   UNL     1       0.083  -6.698   7.627  0.00  0.00    -0.135 NA
ATOM      4  C   UNL     1       0.117  -7.762   6.876  0.00  0.00    +0.122 A 
ATOM      5  N   UNL     1       0.210  -7.340   5.576  0.00  0.00    -0.276 N 
ENDROOT
BRANCH   5   6
ATOM      6  C   UNL     1       0.270  -8.143   4.427  0.00  0.00    +0.050 A 
ATOM      7  C   UNL     1      -0.831  -8.899   4.049  0.00  0.00    +0.029 A 
ATOM      8  C   UNL     1      -0.771  -9.688   2.917  0.00  0.00    +0.040 A 
ATOM      9  C   UNL     1       0.387  -9.724   2.159  0.00  0.00    +0.124 A 
ATOM     10  C   UNL     1       1.486  -8.971   2.534  0.00  0.00    +0.040 A 
ATOM     11  C   UNL     1       1.428  -8.177   3.662  0.00  0.00    +0.029 A 
ATOM     12  F   UNL     1       0.444 -10.497   1.052  0.00  0.00    -0.205 F 
ENDBRANCH   5   6
BRANCH   1  13
ATOM     13  S   UNL     1       0.352  -4.870   4.264  0.00  0.00    -0.078 S 
BRANCH  13  14
ATOM     14  C   UNL     1       0.337  -3.224   5.026  0.00  0.00    +0.151 C 
BRANCH  14  25
ATOM     15  C   UNL     1       0.723   2.091   0.958  0.00  0.00    +0.045 C 
ATOM     16  C   UNL     1       0.700   0.591   0.815  0.00  0.00    -0.026 A 
ATOM     17  C   UNL     1       0.773   0.024  -0.399  0.00  0.00    -0.008 A 
ATOM     18  S   UNL     1       0.709  -1.722  -0.043  0.00  0.00    -0.073 S 
ATOM     19  C   UNL     1       0.587  -1.638   1.725  0.00  0.00    +0.116 A 
ATOM     20  C   UNL     1       0.604  -0.257   1.989  0.00  0.00    +0.075 A 
ATOM     21  C   UNL     1       0.520   0.111   3.371  0.00  0.00    +0.260 A 
ATOM     22  O   UNL     1       0.523   1.284   3.701  0.00  0.00    -0.267 OA
ATOM     23  N   UNL     1       0.437  -0.860   4.300  0.00  0.00    -0.310 N 
ATOM     24  H   UNL     1       0.380  -0.618   5.237  0.00  0.00    +0.170 HD
ATOM     25  C   UNL     1       0.432  -2.172   3.950  0.00  0.00    +0.121 A 
ATOM     26  N   UNL     1       0.498  -2.539   2.699  0.00  0.00    -0.226 NA
ATOM     27  C   UNL     1       0.882   0.700  -1.742  0.00  0.00    +0.052 C 
ENDBRANCH  14  25
ENDBRANCH  13  14
ENDBRANCH   1  13
BRANCH   4  28
ATOM     28  C   UNL     1       0.057  -9.192   7.349  0.00  0.00    -0.001 C 
BRANCH  28  29
ATOM     29  N   UNL     1       1.421  -9.723   7.474  0.00  0.00    +0.384 N 
ATOM     30  C   UNL     1       2.131  -9.000   8.536  0.00  0.00    -0.078 C 
ATOM     31  C   UNL     1       3.577  -9.494   8.615  0.00  0.00    -0.019 C 
ATOM     32  C   UNL     1       3.582 -10.994   8.926  0.00  0.00    -0.004 C 
ATOM     33  C   UNL     1       2.776 -11.730   7.852  0.00  0.00    -0.019 C 
ATOM     34  C   UNL     1       1.359 -11.153   7.800  0.00  0.00    -0.078 C 
ATOM     35  H   UNL     1       1.910  -9.600   6.600  0.00  0.00    -0.081 HD
ENDBRANCH  28  29
ENDBRANCH   4  28
TORSDOF 6
