REMARK  Name = ZINC63893036
REMARK  12 active torsions:
REMARK  status: ('A' for Active; 'I' for Inactive)
REMARK    1  A    between atoms: C_1  and  C_2
REMARK    2  A    between atoms: C_2  and  N_3
REMARK    3  A    between atoms: C_4  and  C_33
REMARK    4  A    between atoms: C_7  and  S_8
REMARK    5  A    between atoms: S_8  and  C_9
REMARK    6  A    between atoms: C_9  and  C_10
REMARK    7  A    between atoms: N_12  and  C_13
REMARK    8  A    between atoms: C_13  and  C_14
REMARK    9  A    between atoms: C_14  and  C_16
REMARK   10  A    between atoms: C_14  and  C_24
REMARK   11  A    between atoms: C_19  and  O_22
REMARK   12  A    between atoms: O_22  and  C_23
REMARK                            x       y       z     vdW  Elec       q    Type
REMARK                         _______ _______ _______ _____ _____    ______ ____
ROOT
ATOM      1  C   UNL     1      -4.895  -1.734  -8.232  0.00  0.00    +0.064 C 
ENDROOT
BRANCH   1   2
ATOM      2  C   UNL     1      -5.138  -3.199  -7.973  0.00  0.00    -0.033 C 
ATOM      3  C   UNL     1      -6.240  -3.755  -7.420  0.00  0.00    -0.000 A 
ATOM      4  C   UNL     1      -7.493  -3.184  -6.911  0.00  0.00    +0.010 A 
ATOM      5  C   UNL     1      -8.432  -4.013  -6.402  0.00  0.00    +0.001 A 
ATOM      6  C   UNL     1      -8.240  -5.400  -6.349  0.00  0.00    +0.002 A 
ATOM      7  C   UNL     1      -7.116  -5.998  -6.797  0.00  0.00    +0.026 A 
ATOM      8  C   UNL     1      -6.062  -5.223  -7.352  0.00  0.00    +0.043 A 
ATOM      9  N   UNL     1      -4.895  -5.561  -7.845  0.00  0.00    -0.380 N 
ATOM     10  C   UNL     1      -4.203  -4.345  -8.287  0.00  0.00    +0.145 C 
ATOM     11  H   UNL     1      -4.548  -6.465  -7.910  0.00  0.00    +0.160 HD
ENDBRANCH   1   2
BRANCH   1  12
ATOM     12  C   UNL     1      -4.687  -1.512  -9.708  0.00  0.00    -0.038 A 
ATOM     13  C   UNL     1      -3.649  -2.149 -10.362  0.00  0.00    +0.008 A 
ATOM     14  C   UNL     1      -3.456  -1.947 -11.715  0.00  0.00    +0.046 A 
ATOM     15  C   UNL     1      -4.305  -1.104 -12.417  0.00  0.00    +0.120 A 
ATOM     16  C   UNL     1      -5.346  -0.466 -11.758  0.00  0.00    +0.046 A 
ATOM     17  C   UNL     1      -5.538  -0.676 -10.406  0.00  0.00    +0.008 A 
BRANCH  15  18
ATOM     18  O   UNL     1      -4.117  -0.903 -13.748  0.00  0.00    -0.495 OA
ATOM     19  C   UNL     1      -5.030  -0.022 -14.406  0.00  0.00    +0.277 C 
ENDBRANCH  15  18
ENDBRANCH   1  12
BRANCH   1  20
ATOM     20  C   UNL     1      -3.649  -1.282  -7.467  0.00  0.00    +0.116 C 
BRANCH  20  23
ATOM     21  C   UNL     1      -2.931  -1.038  -5.152  0.00  0.00    +0.223 C 
ATOM     22  O   UNL     1      -1.859  -0.639  -5.557  0.00  0.00    -0.275 OA
ATOM     23  N   UNL     1      -3.895  -1.386  -6.027  0.00  0.00    -0.314 N 
ATOM     24  H   UNL     1      -4.752  -1.704  -5.703  0.00  0.00    +0.149 HD
BRANCH  21  25
ATOM     25  C   UNL     1      -3.184  -1.145  -3.670  0.00  0.00    +0.173 C 
BRANCH  25  26
ATOM     26  S   UNL     1      -1.707  -0.609  -2.764  0.00  0.00    -0.077 S 
BRANCH  26  31
ATOM     27  N   UNL     1      -1.372  -0.511   0.012  0.00  0.00    -0.306 N 
ATOM     28  C   UNL     1      -2.139  -0.798   1.108  0.00  0.00    +0.137 A 
ATOM     29  N   UNL     1      -3.292  -1.221   0.675  0.00  0.00    -0.133 NA
ATOM     30  N   UNL     1      -3.308  -1.222  -0.610  0.00  0.00    -0.122 NA
ATOM     31  C   UNL     1      -2.156  -0.790  -1.070  0.00  0.00    +0.192 A 
BRANCH  28  32
ATOM     32  C   UNL     1      -1.725  -0.651   2.550  0.00  0.00    +0.057 C 
ATOM     33  C   UNL     1      -2.665  -1.218   3.616  0.00  0.00    +0.012 C 
ATOM     34  C   UNL     1      -2.546   0.295   3.428  0.00  0.00    +0.012 C 
ENDBRANCH  28  32
BRANCH  27  36
ATOM     35  C   UNL     1      -0.019   1.526   0.010  0.00  0.00    +0.027 C 
ATOM     36  C   UNL     1       0.002  -0.004   0.002  0.00  0.00    +0.122 C 
ENDBRANCH  27  36
ENDBRANCH  26  31
ENDBRANCH  25  26
ENDBRANCH  21  25
ENDBRANCH  20  23
ENDBRANCH   1  20
TORSDOF 10
