REMARK  Name = ZINC02193847
REMARK  8 active torsions:
REMARK  status: ('A' for Active; 'I' for Inactive)
REMARK    1  A    between atoms: C_3  and  C_12
REMARK    2  A    between atoms: C_5  and  O_7
REMARK    3  A    between atoms: O_7  and  C_8
REMARK    4  A    between atoms: C_8  and  C_9
REMARK    5  A    between atoms: C_21  and  C_29
REMARK    6  A    between atoms: C_22  and  N_28
REMARK    7  A    between atoms: C_23  and  C_24
REMARK    8  A    between atoms: C_23  and  C_26
REMARK                            x       y       z     vdW  Elec       q    Type
REMARK                         _______ _______ _______ _____ _____    ______ ____
ROOT
ATOM      1  C   UNL     1       3.671   2.190  -0.021  0.00  0.00    +0.069 C 
ATOM      2  C   UNL     1       3.696   3.156   1.165  0.00  0.00    +0.056 C 
ATOM      3  C   UNL     1       3.386   2.454   2.469  0.00  0.00    +0.169 C 
ATOM      4  O   UNL     1       4.568   2.179   3.218  0.00  0.00    -0.375 OA
ATOM      5  C   UNL     1       5.313   3.360   3.546  0.00  0.00    +0.187 C 
ATOM      6  C   UNL     1       5.766   3.986   2.249  0.00  0.00    +0.006 C 
ATOM      7  C   UNL     1       5.023   3.861   1.165  0.00  0.00    -0.024 C 
ATOM      8  C   UNL     1       5.516   4.378  -0.136  0.00  0.00    +0.074 C 
ATOM      9  C   UNL     1       4.929   3.953  -1.284  0.00  0.00    +0.054 C 
ATOM     10  C   UNL     1       3.778   2.993  -1.317  0.00  0.00    +0.188 C 
ENDROOT
BRANCH   1  13
ATOM     11  C   UNL     1       1.207  -0.663  -0.235  0.00  0.00    +0.004 A 
ATOM     12  C   UNL     1       2.391   0.051  -0.241  0.00  0.00    +0.004 A 
ATOM     13  C   UNL     1       2.379   1.415  -0.013  0.00  0.00    -0.037 A 
ATOM     14  C   UNL     1       1.184   2.067   0.222  0.00  0.00    +0.049 A 
ATOM     15  C   UNL     1      -0.005   1.352   0.228  0.00  0.00    +0.121 A 
ATOM     16  C   UNL     1       0.009  -0.016  -0.001  0.00  0.00    +0.045 A 
BRANCH  15  17
ATOM     17  O   UNL     1      -1.182   1.992   0.459  0.00  0.00    -0.483 OA
BRANCH  17  18
ATOM     18  C   UNL     1      -2.366   1.192   0.452  0.00  0.00    +0.324 C 
BRANCH  18  19
ATOM     19  C   UNL     1      -3.564   2.066   0.724  0.00  0.00    +0.248 C 
ATOM     20  O   UNL     1      -3.417   3.256   0.907  0.00  0.00    -0.272 OA
ATOM     21  N   UNL     1      -4.798   1.526   0.765  0.00  0.00    -0.327 N 
ATOM     22  H   UNL     1      -5.671   2.163   0.964  0.00  0.00    +0.145 HD
ATOM     23  H   UNL     1      -4.931   0.446   0.599  0.00  0.00    +0.145 HD
ENDBRANCH  18  19
ENDBRANCH  17  18
ENDBRANCH  15  17
ENDBRANCH   1  13
BRANCH   9  24
ATOM     24  N   UNL     1       5.414   4.424  -2.471  0.00  0.00    -0.358 N 
ATOM     25  H   UNL     1       4.961   4.098  -3.419  0.00  0.00    +0.142 HD
ATOM     26  H   UNL     1       6.258   5.129  -2.480  0.00  0.00    +0.142 HD
ENDBRANCH   9  24
BRANCH  10  27
ATOM     27  C   UNL     1       3.962   2.063  -2.444  0.00  0.00    +0.091 C 
ATOM     28  N   UNL     1       4.103   1.346  -3.313  0.00  0.00    -0.194 NA
ENDBRANCH  10  27
BRANCH  10  29
ATOM     29  C   UNL     1       2.531   3.748  -1.519  0.00  0.00    +0.091 C 
ATOM     30  N   UNL     1       1.568   4.330  -1.675  0.00  0.00    -0.194 NA
ENDBRANCH  10  29
BRANCH   8  31
ATOM     31  C   UNL     1       6.597   5.316  -0.179  0.00  0.00    +0.101 C 
ATOM     32  N   UNL     1       7.455   6.059  -0.213  0.00  0.00    -0.191 NA
ENDBRANCH   8  31
TORSDOF 8
