REMARK  Name = ZINC52595044
REMARK  9 active torsions:
REMARK  status: ('A' for Active; 'I' for Inactive)
REMARK    1  A    between atoms: C_1  and  C_2
REMARK    2  A    between atoms: C_5  and  C_8
REMARK    3  A    between atoms: C_8  and  C_10
REMARK    4  A    between atoms: C_8  and  N_20
REMARK    5  A    between atoms: C_10  and  C_12
REMARK    6  A    between atoms: C_12  and  C_13
REMARK    7  A    between atoms: C_13  and  C_14
REMARK    8  A    between atoms: N_20  and  C_21
REMARK    9  A    between atoms: C_24  and  C_28
REMARK                            x       y       z     vdW  Elec       q    Type
REMARK                         _______ _______ _______ _____ _____    ______ ____
ROOT
ATOM      1  C   UNL     1       0.059  -4.275  -0.021  0.00  0.00    +0.167 C 
ENDROOT
BRANCH   1   6
ATOM      2  C   UNL     1      -0.018   1.503   0.010  0.00  0.00    +0.044 C 
ATOM      3  C   UNL     1       0.002  -0.004   0.002  0.00  0.00    -0.050 A 
ATOM      4  C   UNL     1       0.006  -0.689  -1.199  0.00  0.00    +0.004 A 
ATOM      5  C   UNL     1       0.025  -2.071  -1.206  0.00  0.00    +0.006 A 
ATOM      6  C   UNL     1       0.040  -2.768  -0.013  0.00  0.00    -0.020 A 
ATOM      7  C   UNL     1       0.037  -2.084   1.188  0.00  0.00    +0.006 A 
ATOM      8  C   UNL     1       0.023  -0.702   1.195  0.00  0.00    +0.004 A 
ENDBRANCH   1   6
BRANCH   1   9
ATOM      9  C   UNL     1      -1.332  -4.797   0.230  0.00  0.00    +0.158 C 
ATOM     10  O   UNL     1      -1.643  -5.180   1.332  0.00  0.00    -0.295 OA
BRANCH   9  11
ATOM     11  C   UNL     1      -2.335  -4.841  -0.894  0.00  0.00    +0.081 C 
BRANCH  11  12
ATOM     12  C   UNL     1      -3.658  -5.408  -0.375  0.00  0.00    +0.043 C 
BRANCH  12  13
ATOM     13  C   UNL     1      -4.660  -5.453  -1.499  0.00  0.00    -0.044 A 
ATOM     14  C   UNL     1      -5.491  -4.372  -1.752  0.00  0.00    +0.023 A 
ATOM     15  C   UNL     1      -6.398  -4.448  -2.792  0.00  0.00    +0.111 A 
ATOM     16  N   UNL     1      -6.480  -5.533  -3.537  0.00  0.00    -0.263 NA
ATOM     17  C   UNL     1      -5.706  -6.580  -3.325  0.00  0.00    +0.111 A 
ATOM     18  C   UNL     1      -4.771  -6.573  -2.308  0.00  0.00    +0.023 A 
ENDBRANCH  12  13
ENDBRANCH  11  12
ENDBRANCH   9  11
ENDBRANCH   1   9
BRANCH   1  19
ATOM     19  N   UNL     1       0.959  -4.758   1.029  0.00  0.00    -0.330 N 
ATOM     20  H   UNL     1       0.604  -4.998   1.899  0.00  0.00    +0.147 HD
BRANCH  19  21
ATOM     21  C   UNL     1       2.329  -4.872   0.777  0.00  0.00    +0.046 A 
ATOM     22  C   UNL     1       2.840  -4.524  -0.466  0.00  0.00    +0.024 A 
ATOM     23  C   UNL     1       4.194  -4.637  -0.712  0.00  0.00    +0.005 A 
ATOM     24  C   UNL     1       5.042  -5.098   0.279  0.00  0.00    -0.049 A 
ATOM     25  C   UNL     1       4.538  -5.447   1.518  0.00  0.00    +0.025 A 
ATOM     26  C   UNL     1       3.184  -5.330   1.773  0.00  0.00    +0.062 A 
ATOM     27 CL   UNL     1       2.553  -5.761   3.331  0.00  0.00    -0.082 Cl
ATOM     28  C   UNL     1       6.519  -5.222   0.007  0.00  0.00    +0.044 C 
ENDBRANCH  19  21
ENDBRANCH   1  19
TORSDOF 7
