REMARK  Name = ZINC37657691
REMARK  7 active torsions:
REMARK  status: ('A' for Active; 'I' for Inactive)
REMARK    1  A    between atoms: C_1  and  C_2
REMARK    2  A    between atoms: C_2  and  C_3
REMARK    3  A    between atoms: C_2  and  S_4
REMARK    4  A    between atoms: S_4  and  N_7
REMARK    5  A    between atoms: N_7  and  C_8
REMARK    6  A    between atoms: C_8  and  C_9
REMARK    7  A    between atoms: C_9  and  N_15
REMARK                            x       y       z     vdW  Elec       q    Type
REMARK                         _______ _______ _______ _____ _____    ______ ____
ROOT
ATOM      1  C   UNL     1      -1.601  -4.186   1.739  0.00  0.00    -0.057 C 
ATOM      2  C   UNL     1      -0.859  -5.053   0.720  0.00  0.00    -0.012 C 
ATOM      3  C   UNL     1      -1.294  -6.511   0.879  0.00  0.00    -0.001 C 
ATOM      4  C   UNL     1      -0.964  -6.991   2.294  0.00  0.00    -0.000 C 
ATOM      5  C   UNL     1      -1.706  -6.124   3.313  0.00  0.00    -0.001 C 
ATOM      6  C   UNL     1      -1.271  -4.665   3.154  0.00  0.00    -0.012 C 
ENDROOT
BRANCH   1   7
ATOM      7  N   UNL     1      -3.049  -4.292   1.512  0.00  0.00    +0.383 N 
ATOM      8  H   UNL     1      -3.266  -3.976   0.579  0.00  0.00    -0.089 HD
ATOM      9  H   UNL     1      -3.335  -5.254   1.616  0.00  0.00    -0.089 HD
ATOM     10  H   UNL     1      -3.538  -3.720   2.183  0.00  0.00    -0.089 HD
ENDBRANCH   1   7
BRANCH   1  11
ATOM     11  C   UNL     1      -1.166  -2.728   1.581  0.00  0.00    +0.092 C 
BRANCH  11  12
ATOM     12  N   UNL     1      -1.589  -2.232   0.269  0.00  0.00    -0.196 NA
ATOM     13  H   UNL     1      -1.875  -2.856  -0.417  0.00  0.00    +0.148 HD
BRANCH  12  14
ATOM     14  S   UNL     1      -1.579  -0.606  -0.044  0.00  0.00    +0.032 S 
ATOM     15  O   UNL     1      -2.318  -0.026   1.022  0.00  0.00    -0.158 OA
ATOM     16  O   UNL     1      -2.034  -0.492  -1.386  0.00  0.00    -0.158 OA
BRANCH  14  18
ATOM     17  C   UNL     1       0.985  -0.927  -0.941  0.00  0.00    +0.033 C 
ATOM     18  C   UNL     1       0.165  -0.120   0.067  0.00  0.00    +0.142 C 
ATOM     19  C   UNL     1       0.300   1.372  -0.244  0.00  0.00    +0.033 C 
ENDBRANCH  14  18
ENDBRANCH  12  14
ENDBRANCH  11  12
ENDBRANCH   1  11
TORSDOF 5
