REMARK  Name = ZINC38872855
REMARK  5 active torsions:
REMARK  status: ('A' for Active; 'I' for Inactive)
REMARK    1  A    between atoms: C_3  and  C_6
REMARK    2  A    between atoms: C_8  and  C_11
REMARK    3  A    between atoms: C_11  and  N_12
REMARK    4  A    between atoms: C_15  and  C_18
REMARK    5  A    between atoms: N_20  and  C_21
REMARK                            x       y       z     vdW  Elec       q    Type
REMARK                         _______ _______ _______ _____ _____    ______ ____
ROOT
ATOM      1  N   UNL     1       7.781   1.178  -1.461  0.00  0.00    +0.386 N 
ATOM      2  C   UNL     1       6.992   0.130  -2.120  0.00  0.00    -0.077 C 
ATOM      3  C   UNL     1       7.399   0.029  -3.592  0.00  0.00    -0.006 C 
ATOM      4  C   UNL     1       8.887  -0.317  -3.682  0.00  0.00    +0.071 C 
ATOM      5  C   UNL     1       9.695   0.743  -2.928  0.00  0.00    -0.006 C 
ATOM      6  C   UNL     1       9.203   0.817  -1.481  0.00  0.00    -0.077 C 
ATOM      7  H   UNL     1       7.650   2.051  -1.949  0.00  0.00    -0.081 HD
ENDROOT
BRANCH   4   8
ATOM      8  C   UNL     1       9.313  -0.341  -5.127  0.00  0.00    +0.216 C 
ATOM      9  O   UNL     1       8.505  -0.104  -6.001  0.00  0.00    -0.276 OA
ATOM     10  N   UNL     1      10.590  -0.626  -5.449  0.00  0.00    -0.310 N 
ATOM     11  H   UNL     1      11.236  -0.815  -4.751  0.00  0.00    +0.149 HD
BRANCH  10  12
ATOM     12  C   UNL     1      11.003  -0.649  -6.855  0.00  0.00    +0.035 C 
ATOM     13  C   UNL     1      10.762   0.727  -7.480  0.00  0.00    +0.029 C 
ATOM     14  C   UNL     1      11.194   0.703  -8.948  0.00  0.00    -0.008 C 
ATOM     15  C   UNL     1      12.681   0.356  -9.036  0.00  0.00    +0.007 C 
ATOM     16  C   UNL     1      12.923  -1.019  -8.411  0.00  0.00    -0.008 C 
ATOM     17  C   UNL     1      12.491  -0.995  -6.943  0.00  0.00    +0.029 C 
ATOM     18  C   UNL     1      12.108  -2.072  -9.165  0.00  0.00    +0.007 C 
ATOM     19  C   UNL     1      10.621  -1.726  -9.076  0.00  0.00    -0.008 C 
ATOM     20  C   UNL     1      10.379  -0.350  -9.702  0.00  0.00    +0.007 C 
ATOM     21  C   UNL     1      10.189  -1.702  -7.609  0.00  0.00    +0.029 C 
ENDBRANCH  10  12
ENDBRANCH   4   8
BRANCH   1  22
ATOM     22  C   UNL     1       7.333   1.324  -0.070  0.00  0.00    +0.022 C 
BRANCH  22  25
ATOM     23  C   UNL     1       3.738   1.826  -0.024  0.00  0.00    +0.209 A 
ATOM     24  N   UNL     1       4.846   1.060  -0.044  0.00  0.00    -0.192 NA
ATOM     25  C   UNL     1       5.908   1.813  -0.049  0.00  0.00    +0.211 A 
ATOM     26  O   UNL     1       5.522   3.095  -0.032  0.00  0.00    -0.340 OA
ATOM     27  N   UNL     1       4.102   3.087  -0.022  0.00  0.00    -0.056 NA
BRANCH  23  30
ATOM     28  C   UNL     1      -0.016   1.355   0.009  0.00  0.00    +0.008 A 
ATOM     29  C   UNL     1       1.176   2.042   0.002  0.00  0.00    +0.019 A 
ATOM     30  C   UNL     1       2.346   1.330  -0.013  0.00  0.00    +0.060 A 
ATOM     31  S   UNL     1       1.753  -0.354  -0.017  0.00  0.00    -0.093 S 
ATOM     32  C   UNL     1       0.002  -0.004   0.002  0.00  0.00    +0.046 A 
ENDBRANCH  23  30
ENDBRANCH  22  25
ENDBRANCH   1  22
TORSDOF 5
