REMARK  Name = ZINC40317743
REMARK  12 active torsions:
REMARK  status: ('A' for Active; 'I' for Inactive)
REMARK    1  A    between atoms: C_1  and  C_2
REMARK    2  A    between atoms: C_4  and  C_36
REMARK    3  A    between atoms: C_6  and  O_8
REMARK    4  A    between atoms: O_8  and  C_9
REMARK    5  A    between atoms: C_9  and  C_10
REMARK    6  A    between atoms: C_10  and  C_12
REMARK    7  A    between atoms: C_10  and  O_35
REMARK    8  A    between atoms: C_12  and  N_13
REMARK    9  A    between atoms: N_13  and  C_14
REMARK   10  A    between atoms: N_13  and  C_27
REMARK   11  A    between atoms: C_14  and  C_15
REMARK   12  A    between atoms: C_18  and  C_20
REMARK                            x       y       z     vdW  Elec       q    Type
REMARK                         _______ _______ _______ _____ _____    ______ ____
ROOT
ATOM      1  N   UNL     1       0.537  -2.777   7.179  0.00  0.00    +0.389 N 
ATOM      2  H   UNL     1       1.466  -3.032   7.476  0.00  0.00    -0.081 HD
ENDROOT
BRANCH   1   3
ATOM      3  C   UNL     1      -0.147  -3.961   6.641  0.00  0.00    -0.045 C 
ATOM      4  C   UNL     1      -0.059  -5.116   7.652  0.00  0.00    +0.009 C 
ATOM      5  C   UNL     1      -0.484  -6.442   6.976  0.00  0.00    +0.164 C 
ATOM      6  S   UNL     1      -0.049  -6.155   5.213  0.00  0.00    -0.033 S 
ATOM      7  O   UNL     1      -1.236  -6.188   4.432  0.00  0.00    -0.174 OA
ATOM      8  O   UNL     1       1.042  -6.996   4.863  0.00  0.00    -0.174 OA
ATOM      9  C   UNL     1       0.547  -4.415   5.325  0.00  0.00    +0.151 C 
ENDBRANCH   1   3
BRANCH   1  10
ATOM     10  C   UNL     1       0.622  -1.745   6.137  0.00  0.00    -0.043 C 
BRANCH  10  11
ATOM     11  C   UNL     1       2.088  -1.511   5.769  0.00  0.00    +0.135 C 
BRANCH  11  12
ATOM     12  O   UNL     1       2.778  -0.956   6.891  0.00  0.00    -0.390 OA
ATOM     13  H   UNL     1       2.421  -0.110   7.193  0.00  0.00    +0.210 HD
ENDBRANCH  11  12
BRANCH  11  14
ATOM     14  C   UNL     1       2.170  -0.541   4.590  0.00  0.00    +0.258 C 
BRANCH  14  15
ATOM     15  O   UNL     1       3.530  -0.413   4.171  0.00  0.00    -0.489 OA
BRANCH  15  21
ATOM     16  C   UNL     1       1.855   2.680   0.787  0.00  0.00    +0.044 C 
ATOM     17  C   UNL     1       2.989   1.942   1.451  0.00  0.00    -0.047 A 
ATOM     18  C   UNL     1       4.284   2.111   0.996  0.00  0.00    +0.007 A 
ATOM     19  C   UNL     1       5.326   1.437   1.604  0.00  0.00    -0.047 A 
ATOM     20  C   UNL     1       5.077   0.591   2.667  0.00  0.00    +0.049 A 
ATOM     21  C   UNL     1       3.779   0.419   3.125  0.00  0.00    +0.121 A 
ATOM     22  C   UNL     1       2.735   1.102   2.518  0.00  0.00    +0.049 A 
ATOM     23  C   UNL     1       6.736   1.623   1.105  0.00  0.00    +0.044 C 
ENDBRANCH  15  21
ENDBRANCH  14  15
ENDBRANCH  11  14
ENDBRANCH  10  11
ENDBRANCH   1  10
BRANCH   1  24
ATOM     24  C   UNL     1      -0.218  -2.255   8.325  0.00  0.00    -0.003 C 
BRANCH  24  25
ATOM     25  C   UNL     1      -0.179  -3.256   9.451  0.00  0.00    +0.089 A 
ATOM     26  C   UNL     1       0.923  -3.636  10.127  0.00  0.00    +0.043 A 
ATOM     27  C   UNL     1       0.512  -4.582  11.088  0.00  0.00    +0.050 A 
ATOM     28  C   UNL     1      -0.832  -4.729  10.944  0.00  0.00    +0.135 A 
ATOM     29  O   UNL     1      -1.238  -3.914   9.951  0.00  0.00    -0.462 OA
BRANCH  28  30
ATOM     30  C   UNL     1      -1.697  -5.623  11.741  0.00  0.00    +0.017 A 
ATOM     31  C   UNL     1      -1.146  -6.410  12.754  0.00  0.00    +0.014 A 
ATOM     32  C   UNL     1      -1.958  -7.243  13.495  0.00  0.00    +0.039 A 
ATOM     33  C   UNL     1      -3.318  -7.298  13.236  0.00  0.00    +0.123 A 
ATOM     34  C   UNL     1      -3.870  -6.519  12.232  0.00  0.00    +0.039 A 
ATOM     35  C   UNL     1      -3.069  -5.678  11.489  0.00  0.00    +0.014 A 
ATOM     36  F   UNL     1      -4.109  -8.116  13.965  0.00  0.00    -0.205 F 
ENDBRANCH  28  30
ENDBRANCH  24  25
ENDBRANCH   1  24
TORSDOF 10
