REMARK  Name = ZINC57659748
REMARK  11 active torsions:
REMARK  status: ('A' for Active; 'I' for Inactive)
REMARK    1  A    between atoms: C_1  and  C_2
REMARK    2  A    between atoms: C_2  and  C_4
REMARK    3  A    between atoms: C_7  and  S_10
REMARK    4  A    between atoms: S_10  and  N_13
REMARK    5  A    between atoms: N_13  and  C_14
REMARK    6  A    between atoms: C_14  and  C_15
REMARK    7  A    between atoms: C_18  and  C_21
REMARK    8  A    between atoms: N_23  and  C_24
REMARK    9  A    between atoms: C_31  and  C_35
REMARK   10  A    between atoms: C_32  and  C_33
REMARK   11  A    between atoms: C_32  and  C_34
REMARK                            x       y       z     vdW  Elec       q    Type
REMARK                         _______ _______ _______ _____ _____    ______ ____
ROOT
ATOM      1  C   UNL     1       3.737  -4.306  -5.486  0.00  0.00    -0.032 A 
ATOM      2  C   UNL     1       3.822  -5.542  -6.101  0.00  0.00    +0.006 A 
ATOM      3  C   UNL     1       4.952  -5.884  -6.816  0.00  0.00    +0.013 A 
ATOM      4  C   UNL     1       6.010  -4.980  -6.916  0.00  0.00    +0.037 A 
ATOM      5  C   UNL     1       5.918  -3.734  -6.293  0.00  0.00    +0.013 A 
ATOM      6  C   UNL     1       4.780  -3.403  -5.587  0.00  0.00    +0.006 A 
ENDROOT
BRANCH   4   7
ATOM      7  C   UNL     1       7.224  -5.340  -7.680  0.00  0.00    +0.244 C 
ATOM      8  O   UNL     1       7.302  -6.425  -8.221  0.00  0.00    -0.270 OA
ATOM      9  N   UNL     1       8.244  -4.465  -7.775  0.00  0.00    -0.308 N 
ATOM     10  H   UNL     1       8.182  -3.599  -7.343  0.00  0.00    +0.149 HD
BRANCH   9  11
ATOM     11  C   UNL     1       9.447  -4.822  -8.532  0.00  0.00    +0.080 C 
ATOM     12  C   UNL     1      10.398  -5.675  -7.661  0.00  0.00    +0.027 C 
ATOM     13  C   UNL     1      11.706  -4.831  -7.564  0.00  0.00    -0.003 C 
ATOM     14  C   UNL     1      12.330  -4.913  -8.991  0.00  0.00    +0.005 C 
ATOM     15  C   UNL     1      11.387  -4.070  -9.878  0.00  0.00    +0.009 C 
ATOM     16  C   UNL     1      10.269  -3.543  -8.881  0.00  0.00    -0.008 C 
ATOM     17  C   UNL     1      11.115  -3.377  -7.566  0.00  0.00    -0.025 C 
ATOM     18  C   UNL     1      10.232  -3.115  -6.345  0.00  0.00    +0.012 C 
ATOM     19  C   UNL     1      12.206  -2.315  -7.716  0.00  0.00    +0.012 C 
ATOM     20  C   UNL     1       9.456  -2.331  -9.342  0.00  0.00    +0.013 C 
ENDBRANCH   9  11
ENDBRANCH   4   7
BRANCH   1  21
ATOM     21  C   UNL     1       2.500  -3.939  -4.707  0.00  0.00    +0.141 C 
BRANCH  21  22
ATOM     22  N   UNL     1       1.534  -3.295  -5.601  0.00  0.00    -0.186 NA
ATOM     23  H   UNL     1       1.818  -2.971  -6.470  0.00  0.00    +0.148 HD
BRANCH  22  24
ATOM     24  S   UNL     1      -0.043  -3.119  -5.127  0.00  0.00    +0.059 S 
ATOM     25  O   UNL     1      -0.466  -4.388  -4.645  0.00  0.00    -0.153 OA
ATOM     26  O   UNL     1      -0.712  -2.444  -6.183  0.00  0.00    -0.153 OA
BRANCH  24  30
ATOM     27  C   UNL     1      -0.070  -0.308  -1.572  0.00  0.00    +0.017 A 
ATOM     28  C   UNL     1      -0.185   0.199  -2.870  0.00  0.00    +0.013 A 
ATOM     29  C   UNL     1      -0.176  -0.663  -3.946  0.00  0.00    +0.029 A 
ATOM     30  C   UNL     1      -0.054  -2.026  -3.745  0.00  0.00    +0.105 A 
ATOM     31  C   UNL     1       0.061  -2.536  -2.463  0.00  0.00    +0.029 A 
ATOM     32  C   UNL     1       0.059  -1.687  -1.377  0.00  0.00    +0.013 A 
BRANCH  27  34
ATOM     33  C   UNL     1      -0.217   2.089  -0.632  0.00  0.00    +0.091 C 
ATOM     34  C   UNL     1      -0.078   0.604  -0.417  0.00  0.00    +0.160 C 
ATOM     35  O   UNL     1       0.028   0.162   0.707  0.00  0.00    -0.292 OA
ENDBRANCH  27  34
ENDBRANCH  24  30
ENDBRANCH  22  24
ENDBRANCH  21  22
ENDBRANCH   1  21
TORSDOF 7
