REMARK  Name = ZINC22284915
REMARK  11 active torsions:
REMARK  status: ('A' for Active; 'I' for Inactive)
REMARK    1  A    between atoms: C_1  and  C_2
REMARK    2  A    between atoms: C_2  and  N_3
REMARK    3  A    between atoms: N_3  and  C_4
REMARK    4  A    between atoms: N_3  and  C_6
REMARK    5  A    between atoms: C_4  and  C_5
REMARK    6  A    between atoms: C_6  and  C_7
REMARK    7  A    between atoms: C_7  and  N_8
REMARK    8  A    between atoms: N_17  and  C_18
REMARK    9  A    between atoms: C_18  and  C_20
REMARK   10  A    between atoms: C_20  and  N_21
REMARK   11  A    between atoms: C_29  and  C_31
REMARK                            x       y       z     vdW  Elec       q    Type
REMARK                         _______ _______ _______ _____ _____    ______ ____
ROOT
ATOM      1  N   UNL     1      -0.616  -3.770   2.102  0.00  0.00    -0.314 N 
ATOM      2  C   UNL     1      -1.578  -4.475   2.819  0.00  0.00    +0.068 A 
ATOM      3  C   UNL     1      -2.772  -4.103   3.421  0.00  0.00    +0.028 A 
ATOM      4  C   UNL     1      -3.533  -5.048   4.080  0.00  0.00    +0.002 A 
ATOM      5  C   UNL     1      -3.111  -6.365   4.143  0.00  0.00    +0.002 A 
ATOM      6  C   UNL     1      -1.925  -6.745   3.548  0.00  0.00    +0.028 A 
ATOM      7  C   UNL     1      -1.152  -5.803   2.883  0.00  0.00    +0.066 A 
ATOM      8  N   UNL     1       0.059  -5.878   2.203  0.00  0.00    -0.326 N 
ATOM      9  C   UNL     1       0.362  -4.639   1.734  0.00  0.00    +0.201 A 
ATOM     10  N   UNL     1       1.446  -4.325   1.029  0.00  0.00    -0.145 NA
ATOM     11  H   UNL     1       0.594  -6.678   2.081  0.00  0.00    +0.169 HD
ENDROOT
BRANCH  10  12
ATOM     12  C   UNL     1       2.276  -5.282   0.625  0.00  0.00    +0.257 C 
ATOM     13  O   UNL     1       1.998  -6.449   0.818  0.00  0.00    -0.272 OA
BRANCH  12  14
ATOM     14  C   UNL     1       3.561  -4.918  -0.073  0.00  0.00    +0.215 C 
BRANCH  14  15
ATOM     15  N   UNL     1       4.294  -6.141  -0.414  0.00  0.00    -0.215 N 
ATOM     16  C   UNL     1       5.192  -6.738   0.396  0.00  0.00    +0.247 C 
ATOM     17  O   UNL     1       5.534  -6.380   1.502  0.00  0.00    -0.273 OA
ATOM     18  C   UNL     1       5.681  -7.947  -0.367  0.00  0.00    +0.115 C 
ATOM     19  C   UNL     1       7.181  -7.845  -0.620  0.00  0.00    +0.035 C 
ATOM     20  C   UNL     1       7.928  -7.861   0.717  0.00  0.00    +0.003 C 
ATOM     21  C   UNL     1       7.606  -9.158   1.463  0.00  0.00    +0.000 C 
ATOM     22  C   UNL     1       6.102  -9.237   1.728  0.00  0.00    +0.006 C 
ATOM     23  C   UNL     1       5.349  -9.226   0.395  0.00  0.00    +0.018 C 
ATOM     24  C   UNL     1       3.843  -9.285   0.659  0.00  0.00    +0.010 C 
ATOM     25  N   UNL     1       4.941  -7.895  -1.633  0.00  0.00    -0.285 N 
ATOM     26  C   UNL     1       4.150  -6.806  -1.567  0.00  0.00    +0.310 C 
ATOM     27  O   UNL     1       3.394  -6.465  -2.455  0.00  0.00    -0.252 OA
ATOM     28  H   UNL     1       5.005  -8.522  -2.370  0.00  0.00    +0.151 HD
ENDBRANCH  14  15
ENDBRANCH  12  14
ENDBRANCH  10  12
BRANCH   1  29
ATOM     29  C   UNL     1      -0.655  -2.339   1.792  0.00  0.00    +0.106 C 
BRANCH  29  30
ATOM     30  C   UNL     1      -1.380  -2.125   0.462  0.00  0.00    -0.057 C 
BRANCH  30  31
ATOM     31  N   UNL     1      -1.419  -0.690   0.151  0.00  0.00    +0.380 N 
ATOM     32  H   UNL     1      -1.835  -0.189   0.921  0.00  0.00    -0.082 HD
BRANCH  31  34
ATOM     33  C   UNL     1      -0.077   1.319  -0.253  0.00  0.00    -0.017 C 
ATOM     34  C   UNL     1      -0.051  -0.199  -0.069  0.00  0.00    -0.082 C 
ENDBRANCH  31  34
BRANCH  31  35
ATOM     35  C   UNL     1      -2.217  -0.473  -1.063  0.00  0.00    -0.082 C 
ATOM     36  C   UNL     1      -3.674  -0.850  -0.789  0.00  0.00    -0.017 C 
ENDBRANCH  31  35
ENDBRANCH  30  31
ENDBRANCH  29  30
ENDBRANCH   1  29
TORSDOF 8
