REMARK  Name = ZINC39710926
REMARK  9 active torsions:
REMARK  status: ('A' for Active; 'I' for Inactive)
REMARK    1  A    between atoms: C_1  and  C_2
REMARK    2  A    between atoms: C_8  and  C_14
REMARK    3  A    between atoms: C_14  and  C_16
REMARK    4  A    between atoms: C_14  and  N_28
REMARK    5  A    between atoms: N_21  and  C_22
REMARK    6  A    between atoms: N_28  and  C_29
REMARK    7  A    between atoms: N_28  and  C_35
REMARK    8  A    between atoms: C_29  and  C_30
REMARK    9  A    between atoms: C_35  and  C_36
REMARK                            x       y       z     vdW  Elec       q    Type
REMARK                         _______ _______ _______ _____ _____    ______ ____
ROOT
ATOM      1  C   UNL     1      -2.873   5.083   9.963  0.00  0.00    -0.009 C 
ENDROOT
BRANCH   1   9
ATOM      2  C   UNL     1      -8.874   6.247  10.515  0.00  0.00    +0.045 C 
ATOM      3  C   UNL     1      -7.780   6.137  11.546  0.00  0.00    -0.029 A 
ATOM      4  C   UNL     1      -7.987   6.612  12.802  0.00  0.00    +0.005 A 
ATOM      5  C   UNL     1      -7.018   6.541  13.803  0.00  0.00    +0.001 A 
ATOM      6  C   UNL     1      -5.801   5.986  13.570  0.00  0.00    +0.009 A 
ATOM      7  C   UNL     1      -5.510   5.455  12.238  0.00  0.00    -0.007 A 
ATOM      8  C   UNL     1      -4.302   4.889  11.959  0.00  0.00    -0.006 C 
ATOM      9  C   UNL     1      -4.088   4.364  10.553  0.00  0.00    +0.088 C 
ATOM     10  C   UNL     1      -5.232   4.512   9.575  0.00  0.00    +0.223 C 
ATOM     11  O   UNL     1      -5.115   4.108   8.433  0.00  0.00    -0.275 OA
ATOM     12  N   UNL     1      -6.360   5.081   9.965  0.00  0.00    -0.284 N 
ATOM     13  C   UNL     1      -6.554   5.538  11.202  0.00  0.00    +0.043 A 
ATOM     14  H   UNL     1      -7.082   5.166   9.322  0.00  0.00    +0.155 HD
ENDBRANCH   1   9
BRANCH   1  15
ATOM     15  C   UNL     1      -3.220   6.551   9.711  0.00  0.00    +0.205 C 
ATOM     16  N   UNL     1      -2.134   7.423  10.178  0.00  0.00    -0.152 NA
ATOM     17  N   UNL     1      -2.571   8.165  11.062  0.00  0.00    -0.070 NA
ATOM     18  N   UNL     1      -3.921   7.949  11.333  0.00  0.00    -0.179 N 
ATOM     19  N   UNL     1      -4.393   6.949  10.518  0.00  0.00    -0.185 NA
ATOM     20  H   UNL     1      -4.446   8.430  11.992  0.00  0.00    +0.191 HD
BRANCH  19  21
ATOM     21  C   UNL     1      -5.482   7.436   9.661  0.00  0.00    +0.080 C 
ATOM     22  C   UNL     1      -5.055   7.347   8.194  0.00  0.00    +0.021 C 
ATOM     23  C   UNL     1      -6.189   7.853   7.301  0.00  0.00    +0.002 C 
ATOM     24  C   UNL     1      -6.504   9.308   7.653  0.00  0.00    +0.000 C 
ATOM     25  C   UNL     1      -6.931   9.397   9.119  0.00  0.00    +0.002 C 
ATOM     26  C   UNL     1      -5.797   8.891  10.012  0.00  0.00    +0.021 C 
ENDBRANCH  19  21
ENDBRANCH   1  15
BRANCH   1  27
ATOM     27  N   UNL     1      -2.494   4.444   8.696  0.00  0.00    +0.391 N 
ATOM     28  H   UNL     1      -3.211   4.613   8.006  0.00  0.00    -0.080 HD
BRANCH  27  29
ATOM     29  C   UNL     1      -2.344   2.998   8.902  0.00  0.00    -0.002 C 
BRANCH  29  30
ATOM     30  C   UNL     1      -2.060   2.329   7.581  0.00  0.00    +0.089 A 
ATOM     31  C   UNL     1      -2.164   2.904   6.370  0.00  0.00    +0.042 A 
ATOM     32  C   UNL     1      -1.807   1.922   5.418  0.00  0.00    +0.041 A 
ATOM     33  C   UNL     1      -1.505   0.805   6.104  0.00  0.00    +0.195 A 
ATOM     34  O   UNL     1      -1.655   1.059   7.415  0.00  0.00    -0.470 OA
ENDBRANCH  29  30
ENDBRANCH  27  29
BRANCH  27  35
ATOM     35  C   UNL     1      -1.220   5.006   8.226  0.00  0.00    -0.046 C 
BRANCH  35  36
ATOM     36  C   UNL     1      -1.045   6.417   8.793  0.00  0.00    +0.102 C 
ATOM     37  C   UNL     1       0.029   7.176   7.986  0.00  0.00    +0.032 C 
ATOM     38  C   UNL     1       0.783   7.959   9.095  0.00  0.00    +0.030 C 
ATOM     39  C   UNL     1       0.699   6.955  10.273  0.00  0.00    +0.160 C 
ATOM     40  O   UNL     1      -0.596   6.341  10.151  0.00  0.00    -0.378 OA
ENDBRANCH  35  36
ENDBRANCH  27  35
ENDBRANCH   1  27
TORSDOF 8
