REMARK  Name = ZINC41600332
REMARK  8 active torsions:
REMARK  status: ('A' for Active; 'I' for Inactive)
REMARK    1  A    between atoms: C_1  and  C_2
REMARK    2  A    between atoms: C_2  and  C_3
REMARK    3  A    between atoms: C_3  and  C_5
REMARK    4  A    between atoms: C_3  and  N_6
REMARK    5  A    between atoms: N_6  and  S_7
REMARK    6  A    between atoms: S_7  and  C_10
REMARK    7  A    between atoms: C_18  and  C_20
REMARK    8  A    between atoms: C_18  and  C_21
REMARK                            x       y       z     vdW  Elec       q    Type
REMARK                         _______ _______ _______ _____ _____    ______ ____
ROOT
ATOM      1  C   UNL     1       1.699   1.739   3.505  0.00  0.00    +0.107 A 
ATOM      2  C   UNL     1       2.989   1.668   3.013  0.00  0.00    +0.032 A 
ATOM      3  C   UNL     1       3.701   2.824   2.755  0.00  0.00    +0.049 A 
ATOM      4  C   UNL     1       3.123   4.063   2.988  0.00  0.00    +0.142 A 
ATOM      5  C   UNL     1       1.823   4.132   3.481  0.00  0.00    +0.071 A 
ATOM      6  C   UNL     1       1.112   2.970   3.735  0.00  0.00    +0.055 A 
ATOM      7  N   UNL     1       1.232   5.384   3.712  0.00  0.00    -0.337 N 
ATOM      8  C   UNL     1       2.110   6.566   3.719  0.00  0.00    +0.149 C 
ATOM      9  C   UNL     1       3.104   6.412   2.559  0.00  0.00    +0.120 C 
ATOM     10  O   UNL     1       3.833   5.194   2.735  0.00  0.00    -0.483 OA
ATOM     11  C   UNL     1       4.075   7.594   2.555  0.00  0.00    +0.057 C 
ATOM     12  C   UNL     1       2.342   6.366   1.233  0.00  0.00    +0.057 C 
ATOM     13  H   UNL     1       0.277   5.468   3.861  0.00  0.00    +0.146 HD
ENDROOT
BRANCH   1  14
ATOM     14  S   UNL     1       0.799   0.260   3.833  0.00  0.00    +0.059 S 
ATOM     15  O   UNL     1      -0.191   0.592   4.797  0.00  0.00    -0.153 OA
ATOM     16  O   UNL     1       1.762  -0.762   4.052  0.00  0.00    -0.153 OA
BRANCH  14  17
ATOM     17  N   UNL     1      -0.008  -0.140   2.444  0.00  0.00    -0.187 NA
ATOM     18  H   UNL     1      -0.978  -0.129   2.426  0.00  0.00    +0.148 HD
BRANCH  17  19
ATOM     19  C   UNL     1       0.742  -0.511   1.242  0.00  0.00    +0.073 C 
ATOM     20  C   UNL     1       0.872  -2.034   1.171  0.00  0.00    +0.025 C 
BRANCH  19  22
ATOM     21  C   UNL     1      -0.019   1.526   0.010  0.00  0.00    +0.005 C 
ATOM     22  C   UNL     1       0.002  -0.004   0.002  0.00  0.00    +0.017 C 
ENDBRANCH  19  22
ENDBRANCH  17  19
ENDBRANCH  14  17
ENDBRANCH   1  14
TORSDOF 4
