REMARK  Name = ZINC43209809
REMARK  6 active torsions:
REMARK  status: ('A' for Active; 'I' for Inactive)
REMARK    1  A    between atoms: C_4  and  N_7
REMARK    2  A    between atoms: C_8  and  N_27
REMARK    3  A    between atoms: C_9  and  C_12
REMARK    4  A    between atoms: C_14  and  C_17
REMARK    5  A    between atoms: N_19  and  C_20
REMARK    6  A    between atoms: C_20  and  C_21
REMARK                            x       y       z     vdW  Elec       q    Type
REMARK                         _______ _______ _______ _____ _____    ______ ____
ROOT
ATOM      1  C   UNL     1       5.934  -3.347   0.774  0.00  0.00    +0.233 A 
ATOM      2  N   UNL     1       7.188  -3.627   0.512  0.00  0.00    -0.204 NA
ATOM      3  C   UNL     1       7.498  -4.809   1.111  0.00  0.00    +0.164 A 
ATOM      4  C   UNL     1       6.380  -5.242   1.753  0.00  0.00    +0.230 A 
ATOM      5  O   UNL     1       5.420  -4.325   1.541  0.00  0.00    -0.443 OA
ENDROOT
BRANCH   1   8
ATOM      6  N   UNL     1       3.623  -0.652  -0.037  0.00  0.00    -0.218 N 
ATOM      7  C   UNL     1       3.884  -1.833   0.581  0.00  0.00    +0.132 A 
ATOM      8  C   UNL     1       5.208  -2.151   0.310  0.00  0.00    +0.096 A 
ATOM      9  C   UNL     1       5.729  -1.114  -0.494  0.00  0.00    +0.150 A 
ATOM     10  N   UNL     1       4.785  -0.237  -0.698  0.00  0.00    -0.172 NA
BRANCH   6  14
ATOM     11  C   UNL     1      -0.017   1.379   0.010  0.00  0.00    +0.000 A 
ATOM     12  C   UNL     1       1.170   2.089   0.002  0.00  0.00    +0.002 A 
ATOM     13  C   UNL     1       2.377   1.419  -0.013  0.00  0.00    +0.028 A 
ATOM     14  C   UNL     1       2.400   0.031  -0.021  0.00  0.00    +0.067 A 
ATOM     15  C   UNL     1       1.207  -0.680  -0.013  0.00  0.00    +0.028 A 
ATOM     16  C   UNL     1       0.002  -0.004   0.002  0.00  0.00    +0.002 A 
ENDBRANCH   6  14
BRANCH   7  17
ATOM     17  N   UNL     1       2.997  -2.580   1.339  0.00  0.00    -0.342 N 
ATOM     18  H   UNL     1       2.088  -2.267   1.469  0.00  0.00    +0.144 HD
ATOM     19  H   UNL     1       3.285  -3.415   1.740  0.00  0.00    +0.144 HD
ENDBRANCH   7  17
ENDBRANCH   1   8
BRANCH   3  20
ATOM     20  C   UNL     1       8.803  -5.493   1.071  0.00  0.00    +0.266 C 
ATOM     21  O   UNL     1       8.953  -6.551   1.651  0.00  0.00    -0.268 OA
ATOM     22  N   UNL     1       9.831  -4.945   0.392  0.00  0.00    -0.310 N 
ATOM     23  H   UNL     1       9.711  -4.101  -0.071  0.00  0.00    +0.149 HD
BRANCH  22  24
ATOM     24  C   UNL     1      11.128  -5.625   0.352  0.00  0.00    +0.108 C 
BRANCH  24  25
ATOM     25  C   UNL     1      12.112  -4.799  -0.478  0.00  0.00    +0.006 C 
ATOM     26  C   UNL     1      11.636  -4.749  -1.932  0.00  0.00    +0.005 C 
ATOM     27  C   UNL     1      12.620  -3.923  -2.762  0.00  0.00    +0.000 C 
ATOM     28  C   UNL     1      14.006  -4.567  -2.701  0.00  0.00    +0.000 C 
ATOM     29  C   UNL     1      14.482  -4.617  -1.248  0.00  0.00    +0.000 C 
ATOM     30  C   UNL     1      13.498  -5.443  -0.417  0.00  0.00    +0.005 C 
ENDBRANCH  24  25
ENDBRANCH  22  24
ENDBRANCH   3  20
TORSDOF 6
