REMARK  Name = ZINC44857257
REMARK  10 active torsions:
REMARK  status: ('A' for Active; 'I' for Inactive)
REMARK    1  A    between atoms: C_4  and  S_7
REMARK    2  A    between atoms: S_7  and  N_10
REMARK    3  A    between atoms: N_10  and  C_11
REMARK    4  A    between atoms: N_10  and  C_28
REMARK    5  A    between atoms: C_11  and  C_12
REMARK    6  A    between atoms: N_14  and  C_15
REMARK    7  A    between atoms: C_15  and  C_16
REMARK    8  A    between atoms: C_19  and  C_22
REMARK    9  A    between atoms: C_22  and  N_23
REMARK   10  A    between atoms: C_31  and  N_34
REMARK                            x       y       z     vdW  Elec       q    Type
REMARK                         _______ _______ _______ _____ _____    ______ ____
ROOT
ATOM      1  N   UNL     1       4.378  -1.079   1.536  0.00  0.00    -0.194 N 
ENDROOT
BRANCH   1   2
ATOM      2  C   UNL     1       5.241  -0.180   2.167  0.00  0.00    +0.052 A 
ATOM      3  C   UNL     1       4.914   0.340   3.413  0.00  0.00    +0.027 A 
ATOM      4  C   UNL     1       5.770   1.228   4.035  0.00  0.00    +0.034 A 
ATOM      5  C   UNL     1       6.951   1.599   3.418  0.00  0.00    +0.126 A 
ATOM      6  C   UNL     1       7.279   1.084   2.178  0.00  0.00    +0.034 A 
ATOM      7  C   UNL     1       6.430   0.191   1.553  0.00  0.00    +0.027 A 
BRANCH   5   8
ATOM      8  N   UNL     1       7.865   2.551   4.088  0.00  0.00    +0.056 N 
ATOM      9  O   UNL     1       7.580   3.003   5.172  0.00  0.00    -0.126 OA
ATOM     10  O   UNL     1       8.898   2.877   3.550  0.00  0.00    -0.126 OA
ENDBRANCH   5   8
ENDBRANCH   1   2
BRANCH   1  11
ATOM     11  S   UNL     1       3.741  -0.711   0.052  0.00  0.00    +0.075 S 
ATOM     12  O   UNL     1       3.524  -1.947  -0.615  0.00  0.00    -0.150 OA
ATOM     13  O   UNL     1       4.554   0.317  -0.496  0.00  0.00    -0.150 OA
BRANCH  11  17
ATOM     14  C   UNL     1      -0.343   1.109   0.759  0.00  0.00    +0.000 A 
ATOM     15  C   UNL     1       0.776   1.920   0.709  0.00  0.00    +0.002 A 
ATOM     16  C   UNL     1       2.023   1.364   0.493  0.00  0.00    +0.029 A 
ATOM     17  C   UNL     1       2.151  -0.003   0.328  0.00  0.00    +0.109 A 
ATOM     18  C   UNL     1       1.033  -0.813   0.379  0.00  0.00    +0.029 A 
ATOM     19  C   UNL     1      -0.215  -0.257   0.594  0.00  0.00    +0.002 A 
ENDBRANCH  11  17
ENDBRANCH   1  11
BRANCH   1  20
ATOM     20  C   UNL     1       4.036  -2.346   2.186  0.00  0.00    +0.227 C 
BRANCH  20  21
ATOM     21  C   UNL     1       5.096  -3.371   1.877  0.00  0.00    +0.232 C 
ATOM     22  O   UNL     1       6.044  -3.072   1.182  0.00  0.00    -0.274 OA
ATOM     23  N   UNL     1       4.991  -4.620   2.373  0.00  0.00    -0.310 N 
ATOM     24  H   UNL     1       4.233  -4.859   2.929  0.00  0.00    +0.149 HD
BRANCH  23  25
ATOM     25  C   UNL     1       6.022  -5.616   2.072  0.00  0.00    +0.139 C 
BRANCH  25  26
ATOM     26  C   UNL     1       5.671  -6.920   2.741  0.00  0.00    -0.030 A 
ATOM     27  C   UNL     1       6.114  -7.180   4.025  0.00  0.00    +0.005 A 
ATOM     28  C   UNL     1       5.791  -8.376   4.639  0.00  0.00    +0.002 A 
ATOM     29  C   UNL     1       5.026  -9.312   3.969  0.00  0.00    -0.064 A 
ATOM     30  C   UNL     1       4.582  -9.052   2.686  0.00  0.00    +0.002 A 
ATOM     31  C   UNL     1       4.901  -7.854   2.074  0.00  0.00    +0.005 A 
BRANCH  29  32
ATOM     32  C   UNL     1       4.675 -10.616   4.638  0.00  0.00    -0.043 C 
BRANCH  32  33
ATOM     33  N   UNL     1       3.410 -10.467   5.369  0.00  0.00    +0.382 N 
ATOM     34  C   UNL     1       2.284 -10.296   4.416  0.00  0.00    -0.078 C 
ATOM     35  C   UNL     1       1.047 -10.716   5.250  0.00  0.00    -0.020 C 
ATOM     36  C   UNL     1       1.584 -11.892   6.097  0.00  0.00    -0.020 C 
ATOM     37  C   UNL     1       3.112 -11.700   6.129  0.00  0.00    -0.078 C 
ATOM     38  H   UNL     1       3.461  -9.676   5.995  0.00  0.00    -0.081 HD
ENDBRANCH  32  33
ENDBRANCH  29  32
ENDBRANCH  25  26
ENDBRANCH  23  25
ENDBRANCH  20  21
ENDBRANCH   1  20
TORSDOF 10
