REMARK  Name = ZINC40812006
REMARK  6 active torsions:
REMARK  status: ('A' for Active; 'I' for Inactive)
REMARK    1  A    between atoms: C_1  and  C_2
REMARK    2  A    between atoms: C_6  and  C_7
REMARK    3  A    between atoms: N_9  and  C_10
REMARK    4  A    between atoms: N_22  and  N_23
REMARK    5  A    between atoms: C_24  and  C_26
REMARK    6  A    between atoms: C_29  and  O_32
REMARK                            x       y       z     vdW  Elec       q    Type
REMARK                         _______ _______ _______ _____ _____    ______ ____
ROOT
ATOM      1  C   UNL     1      -0.005   1.502   0.010  0.00  0.00    +0.048 C 
ATOM      2  C   UNL     1       0.021  -0.004   0.002  0.00  0.00    +0.009 A 
ATOM      3  C   UNL     1       0.039  -0.839  -1.123  0.00  0.00    +0.042 A 
ATOM      4  C   UNL     1       0.060  -2.138  -0.673  0.00  0.00    +0.115 A 
ATOM      5  O   UNL     1       0.059  -2.112   0.658  0.00  0.00    -0.454 OA
ATOM      6  C   UNL     1       0.039  -0.831   1.091  0.00  0.00    +0.193 A 
ATOM      7  C   UNL     1       0.078  -3.327  -1.599  0.00  0.00    +0.075 C 
ATOM      8  C   UNL     1      -0.439  -2.906  -2.977  0.00  0.00    +0.014 C 
ATOM      9  C   UNL     1       0.330  -1.685  -3.493  0.00  0.00    +0.058 C 
ATOM     10  C   UNL     1       0.040  -0.513  -2.566  0.00  0.00    +0.070 C 
ATOM     11  N   UNL     1      -0.191   0.685  -3.010  0.00  0.00    -0.184 NA
ENDROOT
BRANCH   6  12
ATOM     12  C   UNL     1       0.034  -0.400   2.493  0.00  0.00    +0.284 C 
ATOM     13  O   UNL     1       0.013   0.786   2.765  0.00  0.00    -0.266 OA
ATOM     14  N   UNL     1       0.053  -1.317   3.480  0.00  0.00    -0.278 N 
ATOM     15  H   UNL     1      -0.011  -2.261   3.266  0.00  0.00    +0.155 HD
BRANCH  14  16
ATOM     16  C   UNL     1       0.165  -0.908   4.814  0.00  0.00    +0.052 A 
ATOM     17  C   UNL     1       0.757   0.310   5.120  0.00  0.00    +0.026 A 
ATOM     18  C   UNL     1       0.866   0.711   6.437  0.00  0.00    +0.022 A 
ATOM     19  C   UNL     1       0.387  -0.099   7.451  0.00  0.00    +0.042 A 
ATOM     20  C   UNL     1      -0.202  -1.314   7.150  0.00  0.00    +0.041 A 
ATOM     21  C   UNL     1      -0.320  -1.718   5.833  0.00  0.00    +0.064 A 
ATOM     22 CL   UNL     1      -1.067  -3.239   5.455  0.00  0.00    -0.082 Cl
ATOM     23 CL   UNL     1       0.527   0.409   9.105  0.00  0.00    -0.083 Cl
ENDBRANCH  14  16
ENDBRANCH   6  12
BRANCH  11  24
ATOM     24  N   UNL     1      -0.177   0.936  -4.388  0.00  0.00    -0.203 N 
ATOM     25  C   UNL     1      -0.417   2.180  -4.848  0.00  0.00    +0.263 C 
ATOM     26  O   UNL     1      -0.644   3.084  -4.067  0.00  0.00    -0.268 OA
ATOM     27  H   UNL     1       0.004   0.215  -5.011  0.00  0.00    +0.178 HD
BRANCH  25  28
ATOM     28  C   UNL     1      -0.403   2.445  -6.300  0.00  0.00    +0.039 A 
ATOM     29  C   UNL     1      -0.147   1.406  -7.199  0.00  0.00    +0.016 A 
ATOM     30  C   UNL     1      -0.135   1.657  -8.553  0.00  0.00    +0.046 A 
ATOM     31  C   UNL     1      -0.376   2.942  -9.026  0.00  0.00    +0.117 A 
ATOM     32  C   UNL     1      -0.630   3.978  -8.134  0.00  0.00    +0.046 A 
ATOM     33  C   UNL     1      -0.651   3.734  -6.779  0.00  0.00    +0.016 A 
BRANCH  31  34
ATOM     34  O   UNL     1      -0.363   3.185 -10.361  0.00  0.00    -0.507 OA
ATOM     35  H   UNL     1      -1.223   3.079 -10.789  0.00  0.00    +0.292 HD
ENDBRANCH  31  34
ENDBRANCH  25  28
ENDBRANCH  11  24
TORSDOF 5
