REMARK  Name = ZINC45551061
REMARK  6 active torsions:
REMARK  status: ('A' for Active; 'I' for Inactive)
REMARK    1  A    between atoms: C_1  and  C_2
REMARK    2  A    between atoms: C_7  and  N_12
REMARK    3  A    between atoms: C_9  and  C_11
REMARK    4  A    between atoms: C_18  and  N_21
REMARK    5  A    between atoms: N_21  and  S_22
REMARK    6  A    between atoms: S_22  and  C_25
REMARK                            x       y       z     vdW  Elec       q    Type
REMARK                         _______ _______ _______ _____ _____    ______ ____
ROOT
ATOM      1  N   UNL     1       1.472  -2.526   2.419  0.00  0.00    -0.296 N 
ATOM      2  C   UNL     1       1.207  -3.754   2.907  0.00  0.00    +0.302 C 
ATOM      3  O   UNL     1       0.317  -4.423   2.419  0.00  0.00    -0.253 OA
ATOM      4  N   UNL     1       1.928  -4.241   3.937  0.00  0.00    -0.286 N 
ATOM      5  C   UNL     1       2.928  -3.402   4.613  0.00  0.00    +0.111 C 
ATOM      6  C   UNL     1       4.268  -4.143   4.622  0.00  0.00    +0.039 C 
ATOM      7  C   UNL     1       4.079  -5.525   5.251  0.00  0.00    +0.079 C 
ATOM      8  C   UNL     1       3.084  -6.335   4.416  0.00  0.00    +0.039 C 
ATOM      9  C   UNL     1       1.726  -5.618   4.408  0.00  0.00    +0.111 C 
ATOM     10  H   UNL     1       2.131  -1.964   2.855  0.00  0.00    +0.151 HD
ENDROOT
BRANCH   1  16
ATOM     11  C   UNL     1      -0.015   1.524   0.006  0.00  0.00    +0.008 C 
ATOM     12  C   UNL     1       0.005  -0.006  -0.002  0.00  0.00    -0.009 C 
ATOM     13  C   UNL     1       0.722  -0.500  -1.260  0.00  0.00    +0.003 C 
ATOM     14  C   UNL     1       0.743  -2.030  -1.267  0.00  0.00    +0.002 C 
ATOM     15  C   UNL     1       1.482  -2.536  -0.026  0.00  0.00    +0.022 C 
ATOM     16  C   UNL     1       0.765  -2.042   1.232  0.00  0.00    +0.078 C 
ATOM     17  C   UNL     1       0.744  -0.512   1.239  0.00  0.00    +0.009 C 
ATOM     18  C   UNL     1       0.027  -0.018   2.497  0.00  0.00    +0.009 C 
ENDBRANCH   1  16
BRANCH   7  19
ATOM     19  N   UNL     1       5.366  -6.224   5.291  0.00  0.00    -0.187 NA
ATOM     20  H   UNL     1       6.008  -6.098   4.576  0.00  0.00    +0.148 HD
BRANCH  19  21
ATOM     21  S   UNL     1       5.723  -7.228   6.559  0.00  0.00    +0.059 S 
ATOM     22  O   UNL     1       7.011  -7.768   6.298  0.00  0.00    -0.153 OA
ATOM     23  O   UNL     1       5.426  -6.506   7.746  0.00  0.00    -0.153 OA
BRANCH  21  24
ATOM     24  C   UNL     1       4.589  -8.575   6.492  0.00  0.00    +0.105 A 
ATOM     25  C   UNL     1       3.380  -8.494   7.157  0.00  0.00    +0.028 A 
ATOM     26  C   UNL     1       2.490  -9.551   7.105  0.00  0.00    +0.002 A 
ATOM     27  C   UNL     1       2.810 -10.688   6.387  0.00  0.00    +0.000 A 
ATOM     28  C   UNL     1       4.019 -10.769   5.721  0.00  0.00    +0.002 A 
ATOM     29  C   UNL     1       4.906  -9.710   5.770  0.00  0.00    +0.028 A 
ENDBRANCH  21  24
ENDBRANCH  19  21
ENDBRANCH   7  19
TORSDOF 4
