REMARK  Name = ZINC29168371
REMARK  12 active torsions:
REMARK  status: ('A' for Active; 'I' for Inactive)
REMARK    1  A    between atoms: C_1  and  C_2
REMARK    2  A    between atoms: C_5  and  C_8
REMARK    3  A    between atoms: C_8  and  C_9
REMARK    4  A    between atoms: C_9  and  C_10
REMARK    5  A    between atoms: N_13  and  C_16
REMARK    6  A    between atoms: C_16  and  C_17
REMARK    7  A    between atoms: N_19  and  C_20
REMARK    8  A    between atoms: C_20  and  C_21
REMARK    9  A    between atoms: N_23  and  C_24
REMARK   10  A    between atoms: C_25  and  C_32
REMARK   11  A    between atoms: C_27  and  C_31
REMARK   12  A    between atoms: C_29  and  C_30
REMARK                            x       y       z     vdW  Elec       q    Type
REMARK                         _______ _______ _______ _____ _____    ______ ____
ROOT
ATOM      1  C   UNL     1       2.998   5.718  -0.004  0.00  0.00    +0.197 C 
ATOM      2  O   UNL     1       3.748   4.953  -0.571  0.00  0.00    -0.278 OA
ATOM      3  N   UNL     1       3.183   7.049  -0.114  0.00  0.00    -0.308 N 
ATOM      4  H   UNL     1       2.502   7.743   0.399  0.00  0.00    +0.149 HD
ENDROOT
BRANCH   1   5
ATOM      5  C   UNL     1       1.858   5.182   0.823  0.00  0.00    +0.019 C 
BRANCH   5   9
ATOM      6  C   UNL     1       2.046   1.139   2.201  0.00  0.00    -0.014 C 
ATOM      7  C   UNL     1       0.819   1.612   1.416  0.00  0.00    -0.015 C 
ATOM      8  C   UNL     1       0.737   3.139   1.478  0.00  0.00    -0.078 C 
ATOM      9  N   UNL     1       1.959   3.719   0.907  0.00  0.00    +0.385 N 
ATOM     10  C   UNL     1       3.146   3.317   1.674  0.00  0.00    -0.078 C 
ATOM     11  C   UNL     1       3.300   1.796   1.618  0.00  0.00    -0.015 C 
ATOM     12  H   UNL     1       2.071   3.327  -0.114  0.00  0.00    -0.081 HD
BRANCH   6  13
ATOM     13  C   UNL     1       2.168  -0.382   2.092  0.00  0.00    +0.008 C 
BRANCH  13  14
ATOM     14  C   UNL     1       0.974  -1.040   2.787  0.00  0.00    +0.035 C 
BRANCH  14  19
ATOM     15  C   UNL     1       1.435  -6.786   2.375  0.00  0.00    +0.044 C 
ATOM     16  C   UNL     1       1.314  -5.288   2.483  0.00  0.00    -0.050 A 
ATOM     17  C   UNL     1       1.871  -4.625   3.561  0.00  0.00    +0.003 A 
ATOM     18  C   UNL     1       1.760  -3.251   3.659  0.00  0.00    +0.004 A 
ATOM     19  C   UNL     1       1.094  -2.539   2.679  0.00  0.00    -0.047 A 
ATOM     20  C   UNL     1       0.532  -3.202   1.604  0.00  0.00    +0.004 A 
ATOM     21  C   UNL     1       0.646  -4.576   1.504  0.00  0.00    +0.003 A 
ENDBRANCH  14  19
ENDBRANCH  13  14
ENDBRANCH   6  13
ENDBRANCH   5   9
ENDBRANCH   1   5
BRANCH   3  22
ATOM     22  C   UNL     1       4.291   7.570  -0.919  0.00  0.00    +0.200 C 
BRANCH  22  23
ATOM     23  C   UNL     1       4.276   9.076  -0.878  0.00  0.00    +0.234 C 
ATOM     24  O   UNL     1       3.423   9.658  -0.241  0.00  0.00    -0.274 OA
ATOM     25  N   UNL     1       5.209   9.778  -1.551  0.00  0.00    -0.284 N 
ATOM     26  H   UNL     1       5.932   9.255  -2.195  0.00  0.00    +0.155 HD
BRANCH  25  27
ATOM     27  C   UNL     1       5.260  11.171  -1.430  0.00  0.00    +0.039 A 
ATOM     28  C   UNL     1       4.141  11.937  -1.731  0.00  0.00    -0.029 A 
ATOM     29  C   UNL     1       4.193  13.311  -1.606  0.00  0.00    +0.008 A 
ATOM     30  C   UNL     1       5.360  13.926  -1.191  0.00  0.00    -0.050 A 
ATOM     31  C   UNL     1       6.477  13.166  -0.894  0.00  0.00    +0.008 A 
ATOM     32  C   UNL     1       6.430  11.791  -1.013  0.00  0.00    -0.029 A 
ATOM     33  C   UNL     1       7.648  10.964  -0.689  0.00  0.00    +0.045 C 
ATOM     34  C   UNL     1       5.415  15.426  -1.061  0.00  0.00    +0.044 C 
ATOM     35  C   UNL     1       2.871  11.268  -2.190  0.00  0.00    +0.045 C 
ENDBRANCH  25  27
ENDBRANCH  22  23
ENDBRANCH   3  22
TORSDOF 8
