REMARK  Name = ZINC37538465
REMARK  15 active torsions:
REMARK  status: ('A' for Active; 'I' for Inactive)
REMARK    1  A    between atoms: C_1  and  C_2
REMARK    2  A    between atoms: C_6  and  C_30
REMARK    3  A    between atoms: C_9  and  C_29
REMARK    4  A    between atoms: C_10  and  O_19
REMARK    5  A    between atoms: O_19  and  C_20
REMARK    6  A    between atoms: C_20  and  C_22
REMARK    7  A    between atoms: C_23  and  C_24
REMARK    8  A    between atoms: C_25  and  C_26
REMARK    9  A    between atoms: C_30  and  O_31
REMARK   10  A    between atoms: O_31  and  C_32
REMARK   11  A    between atoms: C_32  and  C_34
REMARK   12  A    between atoms: C_35  and  C_36
REMARK   13  A    between atoms: C_35  and  C_37
REMARK   14  A    between atoms: C_37  and  C_38
REMARK   15  A    between atoms: C_38  and  O_39
REMARK                            x       y       z     vdW  Elec       q    Type
REMARK                         _______ _______ _______ _____ _____    ______ ____
ROOT
ATOM      1  C   UNL     1      -0.565   2.208   1.519  0.00  0.00    +0.039 C 
ATOM      2  C   UNL     1      -0.205   0.792   1.149  0.00  0.00    -0.074 C 
ATOM      3  C   UNL     1       0.081   0.546  -0.089  0.00  0.00    +0.004 C 
ATOM      4  C   UNL     1       0.445  -0.817  -0.610  0.00  0.00    +0.152 C 
ATOM      5  C   UNL     1       0.839  -1.722   0.557  0.00  0.00    +0.046 C 
ATOM      6  C   UNL     1      -0.253  -1.651   1.627  0.00  0.00    +0.018 C 
ATOM      7  C   UNL     1      -0.198  -0.236   2.241  0.00  0.00    +0.031 C 
ATOM      8  C   UNL     1       0.978  -3.173   0.059  0.00  0.00    +0.050 C 
ATOM      9  C   UNL     1       1.878  -3.117  -1.204  0.00  0.00    +0.189 C 
ATOM     10  C   UNL     1       0.936  -2.799  -2.382  0.00  0.00    +0.080 C 
ATOM     11  C   UNL     1      -0.490  -2.705  -1.781  0.00  0.00    +0.157 C 
ATOM     12  C   UNL     1      -0.396  -3.571  -0.512  0.00  0.00    +0.128 C 
ATOM     13  C   UNL     1      -0.934  -4.984  -0.442  0.00  0.00    +0.199 C 
ATOM     14  O   UNL     1      -1.507  -3.895   0.292  0.00  0.00    -0.365 OA
ATOM     15  O   UNL     1      -0.675  -1.359  -1.312  0.00  0.00    -0.366 OA
ATOM     16  C   UNL     1       1.482  -4.132   1.139  0.00  0.00    +0.019 C 
ENDROOT
BRANCH   9  17
ATOM     17  O   UNL     1       2.858  -2.087  -1.064  0.00  0.00    -0.458 OA
BRANCH  17  18
ATOM     18  C   UNL     1       4.037  -2.274  -1.692  0.00  0.00    +0.332 C 
ATOM     19  O   UNL     1       4.226  -3.284  -2.341  0.00  0.00    -0.246 OA
BRANCH  18  20
ATOM     20  C   UNL     1       5.092  -1.256  -1.593  0.00  0.00    +0.091 C 
ATOM     21  C   UNL     1       6.272  -1.444  -2.222  0.00  0.00    +0.007 C 
BRANCH  21  22
ATOM     22  C   UNL     1       7.323  -0.430  -2.123  0.00  0.00    +0.007 C 
ATOM     23  C   UNL     1       8.505  -0.618  -2.752  0.00  0.00    +0.096 C 
BRANCH  23  24
ATOM     24  C   UNL     1       9.558   0.396  -2.653  0.00  0.00    +0.380 C 
ATOM     25  O   UNL     1       9.367   1.414  -2.000  0.00  0.00    -0.241 OA
ATOM     26  O   UNL     1      10.627   0.227  -3.223  0.00  0.00    -0.241 OA
ENDBRANCH  23  24
ENDBRANCH  21  22
ENDBRANCH  18  20
ENDBRANCH  17  18
ENDBRANCH   9  17
BRANCH   5  27
ATOM     27  C   UNL     1       2.168  -1.247   1.148  0.00  0.00    +0.243 C 
BRANCH  27  28
ATOM     28  O   UNL     1       2.461  -1.999   2.327  0.00  0.00    -0.461 OA
BRANCH  28  29
ATOM     29  C   UNL     1       3.606  -1.702   2.974  0.00  0.00    +0.332 C 
ATOM     30  O   UNL     1       4.335  -0.828   2.548  0.00  0.00    -0.246 OA
BRANCH  29  31
ATOM     31  C   UNL     1       3.972  -2.435   4.194  0.00  0.00    +0.090 C 
ATOM     32  C   UNL     1       5.153  -2.222   4.768  0.00  0.00    -0.064 C 
ATOM     33  C   UNL     1       6.176  -1.350   4.087  0.00  0.00    +0.039 C 
BRANCH  32  34
ATOM     34  C   UNL     1       5.467  -2.852   6.101  0.00  0.00    +0.058 C 
BRANCH  34  35
ATOM     35  C   UNL     1       6.222  -4.164   5.879  0.00  0.00    +0.160 C 
BRANCH  35  36
ATOM     36  O   UNL     1       6.520  -4.762   7.143  0.00  0.00    -0.395 OA
ATOM     37  H   UNL     1       6.999  -5.599   7.078  0.00  0.00    +0.209 HD
ENDBRANCH  35  36
ENDBRANCH  34  35
ENDBRANCH  32  34
ENDBRANCH  29  31
ENDBRANCH  28  29
ENDBRANCH  27  28
ENDBRANCH   5  27
TORSDOF 12
