REMARK  Name = ZINC39540246
REMARK  13 active torsions:
REMARK  status: ('A' for Active; 'I' for Inactive)
REMARK    1  A    between atoms: C_1  and  C_2
REMARK    2  A    between atoms: C_2  and  C_3
REMARK    3  A    between atoms: C_2  and  S_4
REMARK    4  A    between atoms: S_4  and  C_7
REMARK    5  A    between atoms: C_10  and  C_13
REMARK    6  A    between atoms: C_13  and  C_15
REMARK    7  A    between atoms: C_13  and  N_19
REMARK    8  A    between atoms: C_15  and  N_16
REMARK    9  A    between atoms: N_16  and  O_17
REMARK   10  A    between atoms: O_17  and  C_18
REMARK   11  A    between atoms: C_23  and  S_26
REMARK   12  A    between atoms: S_26  and  O_29
REMARK   13  A    between atoms: O_29  and  C_30
REMARK                            x       y       z     vdW  Elec       q    Type
REMARK                         _______ _______ _______ _____ _____    ______ ____
ROOT
ATOM      1  C   UNL     1       6.401   1.776  -1.129  0.00  0.00    +0.103 C 
ENDROOT
BRANCH   1   2
ATOM      2  N   UNL     1       7.394   0.709  -1.312  0.00  0.00    -0.296 NA
ATOM      3  C   UNL     1       7.608  -0.032  -0.061  0.00  0.00    +0.066 C 
ATOM      4  C   UNL     1       8.602  -1.169  -0.308  0.00  0.00    -0.064 C 
ATOM      5  N   UNL     1       9.872  -0.612  -0.790  0.00  0.00    +0.398 N 
ATOM      6  C   UNL     1       9.648   0.104  -2.053  0.00  0.00    +0.130 C 
ATOM      7  C   UNL     1       8.662   1.252  -1.820  0.00  0.00    +0.095 C 
ATOM      8  H   UNL     1      10.242   0.027  -0.102  0.00  0.00    -0.083 HD
ATOM      9  H   UNL     1      10.532  -1.361  -0.942  0.00  0.00    -0.083 HD
BRANCH   6  10
ATOM     10  S   UNL     1      11.222   0.772  -2.657  0.00  0.00    +0.109 S 
ATOM     11  O   UNL     1      11.056   1.313  -3.961  0.00  0.00    -0.138 OA
ATOM     12  O   UNL     1      11.857   1.528  -1.636  0.00  0.00    -0.138 OA
BRANCH  10  13
ATOM     13  O   UNL     1      12.114  -0.445  -2.852  0.00  0.00    -0.347 OA
BRANCH  13  14
ATOM     14  C   UNL     1      11.811  -1.183  -3.952  0.00  0.00    +0.156 A 
ATOM     15  C   UNL     1      10.892  -2.218  -3.863  0.00  0.00    +0.048 A 
ATOM     16  C   UNL     1      10.584  -2.966  -4.983  0.00  0.00    +0.004 A 
ATOM     17  C   UNL     1      11.193  -2.684  -6.192  0.00  0.00    +0.000 A 
ATOM     18  C   UNL     1      12.109  -1.653  -6.284  0.00  0.00    +0.004 A 
ATOM     19  C   UNL     1      12.415  -0.898  -5.168  0.00  0.00    +0.048 A 
ENDBRANCH  13  14
ENDBRANCH  10  13
ENDBRANCH   6  10
ENDBRANCH   1   2
BRANCH   1  23
ATOM     20  C   UNL     1       2.475   0.163  -1.610  0.00  0.00    +0.088 A 
ATOM     21  C   UNL     1       2.682   1.525  -1.728  0.00  0.00    +0.027 A 
ATOM     22  C   UNL     1       3.953   2.047  -1.572  0.00  0.00    +0.007 A 
ATOM     23  C   UNL     1       5.016   1.207  -1.298  0.00  0.00    -0.029 A 
ATOM     24  C   UNL     1       4.809  -0.154  -1.178  0.00  0.00    +0.007 A 
ATOM     25  C   UNL     1       3.537  -0.676  -1.330  0.00  0.00    +0.027 A 
BRANCH  20  26
ATOM     26  S   UNL     1       0.856  -0.502  -1.809  0.00  0.00    -0.001 S 
ATOM     27  O   UNL     1       1.064  -1.843  -2.232  0.00  0.00    -0.169 OA
ATOM     28  O   UNL     1       0.183   0.426  -2.648  0.00  0.00    -0.169 OA
BRANCH  26  30
ATOM     29  C   UNL     1       0.095   0.963   0.373  0.00  0.00    +0.032 C 
ATOM     30  C   UNL     1       0.134  -0.477  -0.144  0.00  0.00    +0.130 C 
ATOM     31  C   UNL     1      -1.288  -1.038  -0.197  0.00  0.00    +0.032 C 
ENDBRANCH  26  30
ENDBRANCH  20  26
ENDBRANCH   1  23
BRANCH   1  32
ATOM     32  C   UNL     1       6.542   2.368   0.275  0.00  0.00    +0.134 C 
BRANCH  32  33
ATOM     33  N   UNL     1       7.890   2.928   0.438  0.00  0.00    -0.200 NA
ATOM     34  H   UNL     1       8.591   2.205   0.373  0.00  0.00    +0.154 HD
BRANCH  33  35
ATOM     35  O   UNL     1       8.006   3.658   1.700  0.00  0.00    -0.303 OA
ATOM     36  C   UNL     1       9.296   4.231   1.924  0.00  0.00    +0.221 C 
ENDBRANCH  33  35
ENDBRANCH  32  33
ENDBRANCH   1  32
TORSDOF 10
