REMARK  Name = ZINC14065390
REMARK  6 active torsions:
REMARK  status: ('A' for Active; 'I' for Inactive)
REMARK    1  A    between atoms: C_2  and  C_3
REMARK    2  A    between atoms: C_3  and  N_4
REMARK    3  A    between atoms: C_5  and  C_18
REMARK    4  A    between atoms: C_8  and  S_9
REMARK    5  A    between atoms: S_9  and  C_10
REMARK    6  A    between atoms: C_10  and  C_11
REMARK                            x       y       z     vdW  Elec       q    Type
REMARK                         _______ _______ _______ _____ _____    ______ ____
ROOT
ATOM      1  N   UNL     1       1.367  -1.676   1.111  0.00  0.00    -0.302 N 
ATOM      2  C   UNL     1       1.833  -1.425   2.373  0.00  0.00    +0.137 A 
ATOM      3  N   UNL     1       1.697  -2.523   3.061  0.00  0.00    -0.133 NA
ATOM      4  N   UNL     1       1.181  -3.444   2.327  0.00  0.00    -0.122 NA
ATOM      5  C   UNL     1       0.954  -2.977   1.121  0.00  0.00    +0.192 A 
ENDROOT
BRANCH   2   6
ATOM      6  C   UNL     1       2.398  -0.122   2.874  0.00  0.00    +0.057 C 
ATOM      7  C   UNL     1       3.045  -0.119   4.260  0.00  0.00    +0.012 C 
ATOM      8  C   UNL     1       1.686   0.552   4.049  0.00  0.00    +0.012 C 
ENDBRANCH   2   6
BRANCH   1   9
ATOM      9  C   UNL     1       1.317  -0.740  -0.015  0.00  0.00    +0.152 C 
BRANCH   9  11
ATOM     10  C   UNL     1      -0.016   1.306   0.009  0.00  0.00    +0.005 C 
ATOM     11  C   UNL     1       0.002  -0.004   0.002  0.00  0.00    -0.013 C 
ENDBRANCH   9  11
ENDBRANCH   1   9
BRANCH   5  12
ATOM     12  S   UNL     1       0.251  -3.863  -0.230  0.00  0.00    -0.081 S 
BRANCH  12  13
ATOM     13  C   UNL     1      -0.067  -5.515   0.447  0.00  0.00    +0.112 C 
BRANCH  13  14
ATOM     14  C   UNL     1      -0.677  -6.386  -0.621  0.00  0.00    -0.037 A 
ATOM     15  C   UNL     1      -2.050  -6.432  -0.775  0.00  0.00    +0.006 A 
ATOM     16  C   UNL     1      -2.610  -7.231  -1.754  0.00  0.00    +0.020 A 
ATOM     17  C   UNL     1      -1.796  -7.985  -2.580  0.00  0.00    +0.041 A 
ATOM     18  C   UNL     1      -0.422  -7.939  -2.426  0.00  0.00    +0.020 A 
ATOM     19  C   UNL     1       0.137  -7.136  -1.450  0.00  0.00    +0.006 A 
ATOM     20 CL   UNL     1      -2.499  -8.989  -3.810  0.00  0.00    -0.084 Cl
ENDBRANCH  13  14
ENDBRANCH  12  13
ENDBRANCH   5  12
TORSDOF 6
