REMARK  Name = ZINC03043176
REMARK  3 active torsions:
REMARK  status: ('A' for Active; 'I' for Inactive)
REMARK    1  A    between atoms: C_1  and  C_2
REMARK    2  A    between atoms: N_10  and  C_11
REMARK    3  A    between atoms: C_14  and  O_17
REMARK                            x       y       z     vdW  Elec       q    Type
REMARK                         _______ _______ _______ _____ _____    ______ ____
ROOT
ATOM      1  C   UNL     1       4.098   4.575  -0.066  0.00  0.00    +0.045 C 
ATOM      2  C   UNL     1       3.414   3.232  -0.072  0.00  0.00    -0.036 A 
ATOM      3  C   UNL     1       4.170   2.072  -0.112  0.00  0.00    +0.006 A 
ATOM      4  C   UNL     1       3.559   0.834  -0.118  0.00  0.00    +0.024 A 
ATOM      5  C   UNL     1       2.172   0.738  -0.085  0.00  0.00    +0.044 A 
ATOM      6  C   UNL     1       1.410   1.914  -0.045  0.00  0.00    +0.041 A 
ATOM      7  C   UNL     1       2.035   3.158  -0.039  0.00  0.00    +0.032 A 
ATOM      8 BR   UNL     1       1.001   4.741   0.015  0.00  0.00    -0.049 Br
ATOM      9  C   UNL     1      -0.008   1.494  -0.016  0.00  0.00    +0.136 C 
ATOM     10  N   UNL     1      -1.069   2.264   0.020  0.00  0.00    -0.242 NA
ATOM     11  C   UNL     1       0.033   0.011  -0.043  0.00  0.00    +0.267 C 
ATOM     12  O   UNL     1      -0.929  -0.732  -0.031  0.00  0.00    -0.268 OA
ATOM     13  N   UNL     1       1.323  -0.363  -0.082  0.00  0.00    -0.280 N 
ATOM     14  H   UNL     1       1.741  -1.380  -0.111  0.00  0.00    +0.155 HD
ENDROOT
BRANCH  10  15
ATOM     15  C   UNL     1      -1.034   3.438   0.700  0.00  0.00    +0.065 A 
ATOM     16  C   UNL     1      -0.411   3.506   1.955  0.00  0.00    +0.031 A 
ATOM     17  C   UNL     1      -0.372   4.696   2.634  0.00  0.00    +0.047 A 
ATOM     18  C   UNL     1      -0.960   5.832   2.087  0.00  0.00    +0.117 A 
ATOM     19  C   UNL     1      -1.585   5.770   0.846  0.00  0.00    +0.047 A 
ATOM     20  C   UNL     1      -1.624   4.587   0.154  0.00  0.00    +0.031 A 
BRANCH  18  21
ATOM     21  O   UNL     1      -0.924   7.006   2.768  0.00  0.00    -0.507 OA
ATOM     22  H   UNL     1      -1.388   7.905   2.337  0.00  0.00    +0.292 HD
ENDBRANCH  18  21
ENDBRANCH  10  15
TORSDOF 2
