REMARK  Name = ZINC51240563
REMARK  7 active torsions:
REMARK  status: ('A' for Active; 'I' for Inactive)
REMARK    1  A    between atoms: C_1  and  C_2
REMARK    2  A    between atoms: C_5  and  C_23
REMARK    3  A    between atoms: C_6  and  C_8
REMARK    4  A    between atoms: C_8  and  C_9
REMARK    5  A    between atoms: C_8  and  N_10
REMARK    6  A    between atoms: C_16  and  N_19
REMARK    7  A    between atoms: C_20  and  C_22
REMARK                            x       y       z     vdW  Elec       q    Type
REMARK                         _______ _______ _______ _____ _____    ______ ____
ROOT
ATOM      1  N   UNL     1       0.631  -2.003   3.539  0.00  0.00    -0.293 N 
ATOM      2  C   UNL     1       1.300  -2.568   4.564  0.00  0.00    +0.303 C 
ATOM      3  O   UNL     1       1.502  -3.767   4.571  0.00  0.00    -0.253 OA
ATOM      4  N   UNL     1       1.744  -1.804   5.582  0.00  0.00    -0.286 N 
ATOM      5  C   UNL     1       2.382  -2.417   6.755  0.00  0.00    +0.111 C 
ATOM      6  C   UNL     1       1.664  -1.931   8.017  0.00  0.00    +0.041 C 
ATOM      7  C   UNL     1       1.653  -0.400   8.035  0.00  0.00    +0.076 C 
ATOM      8  C   UNL     1       0.891   0.121   6.815  0.00  0.00    +0.041 C 
ATOM      9  C   UNL     1       1.606  -0.342   5.536  0.00  0.00    +0.111 C 
ATOM     10  H   UNL     1       0.533  -1.039   3.497  0.00  0.00    +0.151 HD
ENDROOT
BRANCH   7  11
ATOM     11  N   UNL     1       0.996   0.069   9.258  0.00  0.00    -0.313 N 
ATOM     12  C   UNL     1       1.288   1.287   9.755  0.00  0.00    +0.210 C 
ATOM     13  O   UNL     1       2.095   1.995   9.191  0.00  0.00    -0.276 OA
ATOM     14  C   UNL     1       0.612   1.770  11.013  0.00  0.00    +0.109 C 
ATOM     15  H   UNL     1       0.351  -0.497   9.709  0.00  0.00    +0.149 HD
ENDBRANCH   7  11
BRANCH   1  16
ATOM     16  C   UNL     1       0.052  -2.845   2.490  0.00  0.00    +0.102 C 
ATOM     17  C   UNL     1      -1.372  -3.242   2.883  0.00  0.00    +0.033 C 
BRANCH  16  23
ATOM     18  C   UNL     1      -0.188   1.507   0.031  0.00  0.00    +0.044 C 
ATOM     19  C   UNL     1      -0.096   0.003   0.016  0.00  0.00    -0.050 A 
ATOM     20  C   UNL     1      -0.041  -0.674  -1.188  0.00  0.00    +0.003 A 
ATOM     21  C   UNL     1       0.044  -2.053  -1.202  0.00  0.00    +0.004 A 
ATOM     22  C   UNL     1       0.074  -2.756  -0.011  0.00  0.00    -0.046 A 
ATOM     23  C   UNL     1       0.020  -2.079   1.192  0.00  0.00    -0.024 A 
ATOM     24  C   UNL     1      -0.061  -0.699   1.206  0.00  0.00    +0.009 A 
ATOM     25  C   UNL     1       0.165  -4.260  -0.026  0.00  0.00    +0.044 C 
ENDBRANCH  16  23
ENDBRANCH   1  16
TORSDOF 3
