REMARK  Name = ZINC08961279
REMARK  7 active torsions:
REMARK  status: ('A' for Active; 'I' for Inactive)
REMARK    1  A    between atoms: C_1  and  C_2
REMARK    2  A    between atoms: C_2  and  C_3
REMARK    3  A    between atoms: C_3  and  C_4
REMARK    4  A    between atoms: C_7  and  S_10
REMARK    5  A    between atoms: S_10  and  N_13
REMARK    6  A    between atoms: N_13  and  C_14
REMARK    7  A    between atoms: C_25  and  C_30
REMARK                            x       y       z     vdW  Elec       q    Type
REMARK                         _______ _______ _______ _____ _____    ______ ____
ROOT
ATOM      1  C   UNL     1       3.363  -0.406  -3.668  0.00  0.00    +0.049 A 
ATOM      2  C   UNL     1       4.186   0.693  -3.447  0.00  0.00    +0.028 A 
ATOM      3  C   UNL     1       4.040   1.452  -2.303  0.00  0.00    +0.049 A 
ATOM      4  C   UNL     1       3.069   1.125  -1.367  0.00  0.00    +0.141 A 
ATOM      5  C   UNL     1       2.253   0.007  -1.570  0.00  0.00    +0.081 A 
ATOM      6  C   UNL     1       2.400  -0.751  -2.736  0.00  0.00    +0.041 A 
ATOM      7  C   UNL     1       1.249  -0.382  -0.570  0.00  0.00    +0.252 C 
ATOM      8  O   UNL     1       1.091  -1.570  -0.366  0.00  0.00    -0.270 OA
ATOM      9  N   UNL     1       0.502   0.464   0.127  0.00  0.00    -0.278 N 
ATOM     10  C   UNL     1       0.515   1.855   0.021  0.00  0.00    +0.077 A 
ATOM     11  C   UNL     1      -0.689   2.546   0.092  0.00  0.00    +0.030 A 
ATOM     12  C   UNL     1      -0.704   3.926   0.023  0.00  0.00    -0.048 A 
ATOM     13  C   UNL     1       0.480   4.625  -0.116  0.00  0.00    +0.007 A 
ATOM     14  C   UNL     1       1.679   3.944  -0.200  0.00  0.00    +0.048 A 
ATOM     15  C   UNL     1       1.701   2.557  -0.147  0.00  0.00    +0.150 A 
ATOM     16  O   UNL     1       2.889   1.917  -0.284  0.00  0.00    -0.453 OA
ATOM     17  C   UNL     1      -2.013   4.669   0.098  0.00  0.00    +0.044 C 
ATOM     18  H   UNL     1      -0.112   0.078   0.772  0.00  0.00    +0.155 HD
ENDROOT
BRANCH   1  19
ATOM     19  N   UNL     1       3.508  -1.163  -4.837  0.00  0.00    -0.216 N 
ATOM     20  H   UNL     1       4.260  -1.769  -4.931  0.00  0.00    +0.174 HD
BRANCH  19  21
ATOM     21  S   UNL     1       2.397  -1.024  -6.057  0.00  0.00    +0.072 S 
ATOM     22  O   UNL     1       2.845  -1.865  -7.111  0.00  0.00    -0.150 OA
ATOM     23  O   UNL     1       1.116  -1.171  -5.458  0.00  0.00    -0.150 OA
BRANCH  21  27
ATOM     24  C   UNL     1       2.626   3.225  -7.601  0.00  0.00    -0.047 A 
ATOM     25  C   UNL     1       3.380   2.231  -8.197  0.00  0.00    +0.005 A 
ATOM     26  C   UNL     1       3.310   0.933  -7.725  0.00  0.00    +0.029 A 
ATOM     27  C   UNL     1       2.486   0.629  -6.657  0.00  0.00    +0.109 A 
ATOM     28  C   UNL     1       1.728   1.622  -6.065  0.00  0.00    +0.029 A 
ATOM     29  C   UNL     1       1.802   2.921  -6.533  0.00  0.00    +0.005 A 
BRANCH  24  30
ATOM     30  C   UNL     1       2.703   4.639  -8.114  0.00  0.00    +0.035 C 
BRANCH  30  32
ATOM     31  C   UNL     1       1.726   6.282  -9.723  0.00  0.00    +0.004 C 
ATOM     32  C   UNL     1       1.647   4.846  -9.201  0.00  0.00    +0.001 C 
ENDBRANCH  30  32
ENDBRANCH  24  30
ENDBRANCH  21  27
ENDBRANCH  19  21
ENDBRANCH   1  19
TORSDOF 5
