REMARK  Name = ZINC36310846
REMARK  7 active torsions:
REMARK  status: ('A' for Active; 'I' for Inactive)
REMARK    1  A    between atoms: C_1  and  C_2
REMARK    2  A    between atoms: C_2  and  C_3
REMARK    3  A    between atoms: C_2  and  C_4
REMARK    4  A    between atoms: C_2  and  N_5
REMARK    5  A    between atoms: N_11  and  C_14
REMARK    6  A    between atoms: C_14  and  C_16
REMARK    7  A    between atoms: C_14  and  C_21
REMARK                            x       y       z     vdW  Elec       q    Type
REMARK                         _______ _______ _______ _____ _____    ______ ____
ROOT
ATOM      1  C   UNL     1       4.896  -3.643  -4.354  0.00  0.00    +0.146 C 
ENDROOT
BRANCH   1   2
ATOM      2  C   UNL     1       4.213  -4.317  -5.516  0.00  0.00    +0.233 C 
ATOM      3  O   UNL     1       3.980  -3.692  -6.528  0.00  0.00    -0.274 OA
ATOM      4  N   UNL     1       3.862  -5.616  -5.430  0.00  0.00    -0.296 N 
ATOM      5  C   UNL     1       3.296  -6.333  -6.584  0.00  0.00    +0.113 C 
ATOM      6  C   UNL     1       4.275  -7.438  -6.977  0.00  0.00    +0.054 C 
ATOM      7  C   UNL     1       4.719  -8.217  -5.767  0.00  0.00    -0.041 A 
ATOM      8  C   UNL     1       5.249  -9.485  -5.975  0.00  0.00    +0.004 A 
ATOM      9  C   UNL     1       5.683 -10.247  -4.911  0.00  0.00    +0.000 A 
ATOM     10  C   UNL     1       5.593  -9.747  -3.625  0.00  0.00    +0.000 A 
ATOM     11  C   UNL     1       5.064  -8.491  -3.415  0.00  0.00    +0.005 A 
ATOM     12  C   UNL     1       4.621  -7.725  -4.485  0.00  0.00    -0.027 A 
ATOM     13  C   UNL     1       4.035  -6.372  -4.185  0.00  0.00    +0.143 C 
ENDBRANCH   1   2
BRANCH   1  20
ATOM     14  N   UNL     1       1.347   0.851  -2.147  0.00  0.00    -0.294 N 
ATOM     15  C   UNL     1       2.690   0.852  -2.263  0.00  0.00    +0.303 C 
ATOM     16  O   UNL     1       3.360   1.580  -1.557  0.00  0.00    -0.253 OA
ATOM     17  N   UNL     1       3.289   0.047  -3.163  0.00  0.00    -0.283 N 
ATOM     18  C   UNL     1       2.494  -0.755  -4.106  0.00  0.00    +0.124 C 
ATOM     19  C   UNL     1       2.972  -2.209  -4.031  0.00  0.00    +0.104 C 
ATOM     20  N   UNL     1       4.424  -2.256  -4.246  0.00  0.00    -0.288 NA
ATOM     21  C   UNL     1       5.143  -1.536  -3.187  0.00  0.00    +0.104 C 
ATOM     22  C   UNL     1       4.755  -0.050  -3.231  0.00  0.00    +0.124 C 
ATOM     23  H   UNL     1       0.808   0.327  -2.760  0.00  0.00    +0.151 HD
BRANCH  14  25
ATOM     24  C   UNL     1       1.056   3.118  -1.277  0.00  0.00    +0.031 C 
ATOM     25  C   UNL     1       0.702   1.640  -1.095  0.00  0.00    +0.028 C 
ATOM     26  C   UNL     1       1.192   1.163   0.274  0.00  0.00    +0.031 C 
ATOM     27  C   UNL     1      -0.815   1.465  -1.183  0.00  0.00    +0.031 C 
ENDBRANCH  14  25
ENDBRANCH   1  20
BRANCH   1  28
ATOM     28  C   UNL     1       6.409  -3.651  -4.577  0.00  0.00    +0.015 C 
ATOM     29  C   UNL     1       6.760  -2.856  -5.851  0.00  0.00    +0.005 C 
ATOM     30  C   UNL     1       7.932  -3.648  -6.483  0.00  0.00    +0.000 C 
ATOM     31  C   UNL     1       7.532  -5.120  -6.215  0.00  0.00    +0.000 C 
ATOM     32  C   UNL     1       6.900  -5.091  -4.808  0.00  0.00    +0.005 C 
ENDBRANCH   1  28
TORSDOF 4
