REMARK  Name = ZINC13123868
REMARK  4 active torsions:
REMARK  status: ('A' for Active; 'I' for Inactive)
REMARK    1  A    between atoms: C_1  and  C_2
REMARK    2  A    between atoms: C_9  and  C_17
REMARK    3  A    between atoms: C_14  and  C_16
REMARK    4  A    between atoms: C_18  and  C_22
REMARK                            x       y       z     vdW  Elec       q    Type
REMARK                         _______ _______ _______ _____ _____    ______ ____
ROOT
ATOM      1  C   UNL     1      -0.018   1.503   0.010  0.00  0.00    +0.045 C 
ATOM      2  C   UNL     1       0.002  -0.004   0.002  0.00  0.00    -0.029 A 
ATOM      3  C   UNL     1       0.006  -0.691  -1.199  0.00  0.00    +0.005 A 
ATOM      4  C   UNL     1       0.024  -2.074  -1.222  0.00  0.00    +0.001 A 
ATOM      5  C   UNL     1       0.032  -2.791  -0.039  0.00  0.00    +0.012 A 
ATOM      6  C   UNL     1       0.026  -2.113   1.168  0.00  0.00    +0.021 A 
ATOM      7  C   UNL     1       0.023  -0.704   1.195  0.00  0.00    +0.041 A 
ATOM      8  N   UNL     1       0.052  -0.048   2.426  0.00  0.00    -0.318 N 
ATOM      9  C   UNL     1      -0.537  -0.660   3.625  0.00  0.00    +0.229 C 
ATOM     10  N   UNL     1      -0.233  -2.092   3.631  0.00  0.00    -0.238 N 
ATOM     11  C   UNL     1       0.018  -2.794   2.476  0.00  0.00    +0.073 A 
ATOM     12  C   UNL     1       0.238  -4.081   2.822  0.00  0.00    +0.052 A 
ATOM     13  C   UNL     1       0.114  -4.175   4.213  0.00  0.00    +0.061 A 
ATOM     14  N   UNL     1      -0.151  -2.987   4.691  0.00  0.00    -0.174 NA
ATOM     15  C   UNL     1       0.283  -5.432   5.027  0.00  0.00    +0.067 C 
ATOM     16  H   UNL     1       0.469   0.826   2.491  0.00  0.00    +0.148 HD
ENDROOT
BRANCH   9  17
ATOM     17  C   UNL     1      -2.031  -0.461   3.609  0.00  0.00    +0.035 A 
ATOM     18  C   UNL     1      -2.850  -0.064   4.614  0.00  0.00    -0.037 A 
ATOM     19  C   UNL     1      -4.205   0.052   4.369  0.00  0.00    +0.011 A 
ATOM     20  C   UNL     1      -4.675  -0.234   3.130  0.00  0.00    +0.046 A 
ATOM     21  S   UNL     1      -3.180  -0.678   2.261  0.00  0.00    -0.098 S 
ATOM     22  C   UNL     1      -2.291   0.245   5.979  0.00  0.00    +0.045 C 
ENDBRANCH   9  17
TORSDOF 1
