REMARK  Name = ZINC09482137
REMARK  9 active torsions:
REMARK  status: ('A' for Active; 'I' for Inactive)
REMARK    1  A    between atoms: C_1  and  C_2
REMARK    2  A    between atoms: C_2  and  C_4
REMARK    3  A    between atoms: C_2  and  S_15
REMARK    4  A    between atoms: N_6  and  C_7
REMARK    5  A    between atoms: C_7  and  C_8
REMARK    6  A    between atoms: C_8  and  C_9
REMARK    7  A    between atoms: S_15  and  C_16
REMARK    8  A    between atoms: C_20  and  S_25
REMARK    9  A    between atoms: S_25  and  N_28
REMARK                            x       y       z     vdW  Elec       q    Type
REMARK                         _______ _______ _______ _____ _____    ______ ____
ROOT
ATOM      1  C   UNL     1      -2.416   0.827  -1.275  0.00  0.00    +0.259 A 
ATOM      2  N   UNL     1      -3.432   0.919  -2.096  0.00  0.00    -0.203 NA
ATOM      3  C   UNL     1      -4.434   0.118  -1.642  0.00  0.00    +0.112 A 
ATOM      4  C   UNL     1      -5.718  -0.175  -2.104  0.00  0.00    +0.060 A 
ATOM      5  C   UNL     1      -6.516  -1.047  -1.396  0.00  0.00    +0.108 A 
ATOM      6  C   UNL     1      -6.052  -1.634  -0.230  0.00  0.00    +0.032 A 
ATOM      7  C   UNL     1      -4.784  -1.353   0.238  0.00  0.00    +0.050 A 
ATOM      8  C   UNL     1      -3.967  -0.479  -0.461  0.00  0.00    +0.156 A 
ATOM      9  O   UNL     1      -2.712  -0.013  -0.267  0.00  0.00    -0.431 OA
ENDROOT
BRANCH   5  10
ATOM     10  S   UNL     1      -8.138  -1.417  -1.978  0.00  0.00    +0.061 S 
ATOM     11  O   UNL     1      -8.135  -1.166  -3.376  0.00  0.00    -0.153 OA
ATOM     12  O   UNL     1      -8.486  -2.682  -1.432  0.00  0.00    -0.153 OA
BRANCH  10  13
ATOM     13  N   UNL     1      -9.166  -0.310  -1.300  0.00  0.00    -0.177 NA
ATOM     14  C   UNL     1      -9.814  -0.582  -0.009  0.00  0.00    +0.109 C 
ATOM     15  C   UNL     1      -9.523   0.590   0.940  0.00  0.00    +0.017 C 
ATOM     16  C   UNL     1      -9.966   1.897   0.277  0.00  0.00    +0.003 C 
ATOM     17  C   UNL     1      -9.171   2.113  -1.012  0.00  0.00    +0.017 C 
ATOM     18  C   UNL     1      -9.453   0.960  -1.980  0.00  0.00    +0.109 C 
ENDBRANCH  10  13
ENDBRANCH   5  10
BRANCH   1  19
ATOM     19  S   UNL     1      -0.888   1.685  -1.458  0.00  0.00    -0.055 S 
BRANCH  19  21
ATOM     20  C   UNL     1      -0.729   1.579   1.267  0.00  0.00    +0.029 C 
ATOM     21  C   UNL     1      -0.013   1.086   0.008  0.00  0.00    +0.138 C 
BRANCH  21  22
ATOM     22  C   UNL     1       1.401   1.607  -0.003  0.00  0.00    +0.226 C 
ATOM     23  O   UNL     1       1.667   2.628  -0.602  0.00  0.00    -0.275 OA
ATOM     24  N   UNL     1       2.371   0.940   0.654  0.00  0.00    -0.314 N 
ATOM     25  H   UNL     1       2.158   0.124   1.133  0.00  0.00    +0.149 HD
BRANCH  24  26
ATOM     26  C   UNL     1       3.745   1.447   0.644  0.00  0.00    +0.108 C 
BRANCH  26  27
ATOM     27  C   UNL     1       4.640   0.511   1.457  0.00  0.00    +0.049 C 
BRANCH  27  28
ATOM     28  C   UNL     1       6.054   1.032   1.447  0.00  0.00    -0.072 C 
ATOM     29  C   UNL     1       6.435   1.773   2.437  0.00  0.00    -0.028 C 
ATOM     30  C   UNL     1       7.806   2.372   2.561  0.00  0.00    +0.027 C 
ATOM     31  C   UNL     1       8.779   1.659   1.620  0.00  0.00    +0.004 C 
ATOM     32  C   UNL     1       8.144   1.593   0.225  0.00  0.00    +0.005 C 
ATOM     33  C   UNL     1       6.934   0.655   0.291  0.00  0.00    +0.030 C 
ENDBRANCH  27  28
ENDBRANCH  26  27
ENDBRANCH  24  26
ENDBRANCH  21  22
ENDBRANCH  19  21
ENDBRANCH   1  19
TORSDOF 8
