REMARK  Name = ZINC27697102
REMARK  11 active torsions:
REMARK  status: ('A' for Active; 'I' for Inactive)
REMARK    1  A    between atoms: C_1  and  N_2
REMARK    2  A    between atoms: N_2  and  C_3
REMARK    3  A    between atoms: N_2  and  C_10
REMARK    4  A    between atoms: C_3  and  C_4
REMARK    5  A    between atoms: C_10  and  C_11
REMARK    6  A    between atoms: C_11  and  C_13
REMARK    7  A    between atoms: C_11  and  O_36
REMARK    8  A    between atoms: C_13  and  N_14
REMARK    9  A    between atoms: C_22  and  C_23
REMARK   10  A    between atoms: C_23  and  C_24
REMARK   11  A    between atoms: C_27  and  C_30
REMARK                            x       y       z     vdW  Elec       q    Type
REMARK                         _______ _______ _______ _____ _____    ______ ____
ROOT
ATOM      1  N   UNL     1       7.724  -0.148   2.333  0.00  0.00    -0.325 N 
ATOM      2  C   UNL     1       8.169  -0.596   3.561  0.00  0.00    +0.069 A 
ATOM      3  C   UNL     1       9.001  -0.069   4.539  0.00  0.00    +0.028 A 
ATOM      4  C   UNL     1       9.257  -0.795   5.682  0.00  0.00    +0.002 A 
ATOM      5  C   UNL     1       8.690  -2.049   5.861  0.00  0.00    +0.002 A 
ATOM      6  C   UNL     1       7.870  -2.585   4.909  0.00  0.00    +0.030 A 
ATOM      7  C   UNL     1       7.595  -1.866   3.742  0.00  0.00    +0.089 A 
ATOM      8  N   UNL     1       6.841  -2.119   2.642  0.00  0.00    -0.232 NA
ATOM      9  C   UNL     1       6.914  -1.113   1.820  0.00  0.00    +0.115 A 
ENDROOT
BRANCH   1  10
ATOM     10  C   UNL     1       8.059   1.131   1.702  0.00  0.00    +0.153 C 
BRANCH  10  11
ATOM     11  C   UNL     1       9.234   0.933   0.742  0.00  0.00    +0.118 C 
BRANCH  11  12
ATOM     12  O   UNL     1      10.398   0.562   1.483  0.00  0.00    -0.392 OA
ATOM     13  H   UNL     1      10.393  -0.356   2.090  0.00  0.00    +0.210 HD
ENDBRANCH  11  12
BRANCH  11  14
ATOM     14  C   UNL     1       9.503   2.239  -0.010  0.00  0.00    -0.045 C 
BRANCH  14  16
ATOM     15  C   UNL     1      11.182   3.301  -1.393  0.00  0.00    -0.096 C 
ATOM     16  N   UNL     1      10.573   2.026  -0.993  0.00  0.00    +0.382 N 
ATOM     17  H   UNL     1      11.353   1.414  -0.516  0.00  0.00    -0.082 HD
BRANCH  16  18
ATOM     18  C   UNL     1      10.075   1.290  -2.163  0.00  0.00    -0.043 C 
BRANCH  18  19
ATOM     19  C   UNL     1      11.237   0.877  -3.029  0.00  0.00    -0.064 A 
ATOM     20  C   UNL     1      11.678   1.712  -4.038  0.00  0.00    +0.002 A 
ATOM     21  C   UNL     1      12.748   1.336  -4.829  0.00  0.00    +0.000 A 
ATOM     22  C   UNL     1      13.369   0.119  -4.618  0.00  0.00    +0.000 A 
ATOM     23  C   UNL     1      12.924  -0.719  -3.612  0.00  0.00    +0.000 A 
ATOM     24  C   UNL     1      11.858  -0.340  -2.818  0.00  0.00    +0.002 A 
ENDBRANCH  18  19
ENDBRANCH  16  18
ENDBRANCH  14  16
ENDBRANCH  11  14
ENDBRANCH  10  11
ENDBRANCH   1  10
BRANCH   9  25
ATOM     25  C   UNL     1       6.209  -1.031   0.491  0.00  0.00    +0.109 C 
BRANCH  25  26
ATOM     26  C   UNL     1       4.797  -0.547   0.700  0.00  0.00    -0.040 A 
ATOM     27  C   UNL     1       4.512   0.803   0.614  0.00  0.00    +0.004 A 
ATOM     28  C   UNL     1       3.220   1.252   0.804  0.00  0.00    +0.009 A 
ATOM     29  C   UNL     1       2.203   0.341   1.083  0.00  0.00    -0.018 A 
ATOM     30  C   UNL     1       2.498  -1.018   1.174  0.00  0.00    +0.009 A 
ATOM     31  C   UNL     1       3.791  -1.456   0.976  0.00  0.00    +0.004 A 
BRANCH  29  32
ATOM     32  C   UNL     1       0.813   0.817   1.289  0.00  0.00    -0.018 A 
ATOM     33  C   UNL     1      -0.204  -0.093   1.568  0.00  0.00    +0.008 A 
ATOM     34  C   UNL     1      -1.496   0.355   1.754  0.00  0.00    +0.001 A 
ATOM     35  C   UNL     1      -1.781   1.706   1.674  0.00  0.00    +0.000 A 
ATOM     36  C   UNL     1      -0.775   2.614   1.397  0.00  0.00    +0.001 A 
ATOM     37  C   UNL     1       0.520   2.177   1.204  0.00  0.00    +0.008 A 
ENDBRANCH  29  32
ENDBRANCH  25  26
ENDBRANCH   9  25
TORSDOF 10
