REMARK  Name = ZINC14955795
REMARK  9 active torsions:
REMARK  status: ('A' for Active; 'I' for Inactive)
REMARK    1  A    between atoms: C_1  and  O_2
REMARK    2  A    between atoms: O_2  and  C_3
REMARK    3  A    between atoms: C_8  and  C_9
REMARK    4  A    between atoms: C_9  and  N_10
REMARK    5  A    between atoms: C_15  and  C_23
REMARK    6  A    between atoms: C_24  and  C_25
REMARK    7  A    between atoms: C_28  and  O_33
REMARK    8  A    between atoms: C_29  and  O_31
REMARK    9  A    between atoms: O_31  and  C_32
REMARK                            x       y       z     vdW  Elec       q    Type
REMARK                         _______ _______ _______ _____ _____    ______ ____
ROOT
ATOM      1  N   UNL     1      -2.834   0.473  -1.315  0.00  0.00    -0.298 N 
ATOM      2  C   UNL     1      -2.441   1.773  -1.869  0.00  0.00    +0.110 C 
ATOM      3  C   UNL     1      -3.285   1.977  -3.136  0.00  0.00    +0.003 C 
ATOM      4  C   UNL     1      -4.569   2.756  -2.805  0.00  0.00    -0.007 C 
ATOM      5  C   UNL     1      -5.655   2.030  -3.625  0.00  0.00    -0.043 C 
ATOM      6  C   UNL     1      -3.775   0.551  -3.457  0.00  0.00    +0.018 C 
ATOM      7  C   UNL     1      -3.540  -0.246  -2.204  0.00  0.00    +0.206 C 
ATOM      8  O   UNL     1      -3.933  -1.379  -2.022  0.00  0.00    -0.277 OA
ATOM      9  C   UNL     1      -3.053  -0.033  -4.674  0.00  0.00    -0.004 C 
ATOM     10  C   UNL     1      -4.194  -0.755  -5.442  0.00  0.00    -0.019 C 
ATOM     11  C   UNL     1      -5.402   0.175  -5.163  0.00  0.00    -0.077 C 
ATOM     12  N   UNL     1      -5.202   0.630  -3.774  0.00  0.00    +0.394 N 
ATOM     13  H   UNL     1      -5.734   0.028  -3.135  0.00  0.00    -0.079 HD
ENDROOT
BRANCH   5  14
ATOM     14  C   UNL     1      -5.791   2.669  -4.983  0.00  0.00    -0.041 C 
ATOM     15  C   UNL     1      -6.963   3.146  -5.378  0.00  0.00    +0.002 C 
BRANCH  15  16
ATOM     16  C   UNL     1      -7.096   3.772  -6.709  0.00  0.00    -0.022 A 
ATOM     17  C   UNL     1      -5.987   3.868  -7.551  0.00  0.00    +0.012 A 
ATOM     18  C   UNL     1      -6.114   4.448  -8.796  0.00  0.00    +0.050 A 
ATOM     19  C   UNL     1      -7.340   4.948  -9.210  0.00  0.00    +0.158 A 
ATOM     20  C   UNL     1      -8.450   4.861  -8.373  0.00  0.00    +0.162 A 
ATOM     21  C   UNL     1      -8.330   4.275  -7.126  0.00  0.00    +0.057 A 
BRANCH  20  22
ATOM     22  O   UNL     1      -9.650   5.352  -8.781  0.00  0.00    -0.491 OA
ATOM     23  C   UNL     1     -10.745   5.229  -7.871  0.00  0.00    +0.277 C 
ENDBRANCH  20  22
BRANCH  19  24
ATOM     24  O   UNL     1      -7.459   5.524 -10.436  0.00  0.00    -0.503 OA
ATOM     25  H   UNL     1      -7.291   6.477 -10.440  0.00  0.00    +0.292 HD
ENDBRANCH  19  24
ENDBRANCH  15  16
ENDBRANCH   5  14
BRANCH   1  26
ATOM     26  C   UNL     1      -2.505   0.019   0.038  0.00  0.00    +0.146 C 
BRANCH  26  32
ATOM     27  C   UNL     1       0.002  -0.004   0.002  0.00  0.00    +0.125 A 
ATOM     28  C   UNL     1       1.212  -0.683  -0.013  0.00  0.00    +0.046 A 
ATOM     29  C   UNL     1       1.228  -2.064  -0.021  0.00  0.00    +0.004 A 
ATOM     30  C   UNL     1       0.040  -2.770  -0.013  0.00  0.00    +0.001 A 
ATOM     31  C   UNL     1      -1.167  -2.096   0.003  0.00  0.00    +0.009 A 
ATOM     32  C   UNL     1      -1.189  -0.715   0.015  0.00  0.00    +0.011 A 
BRANCH  27  34
ATOM     33  C   UNL     1       1.248   2.021   0.001  0.00  0.00    +0.277 C 
ATOM     34  O   UNL     1      -0.016   1.355   0.009  0.00  0.00    -0.495 OA
ENDBRANCH  27  34
ENDBRANCH  26  32
ENDBRANCH   1  26
TORSDOF 7
