REMARK  Name = ZINC62574320
REMARK  7 active torsions:
REMARK  status: ('A' for Active; 'I' for Inactive)
REMARK    1  A    between atoms: C_1  and  C_2
REMARK    2  A    between atoms: C_5  and  N_8
REMARK    3  A    between atoms: C_11  and  C_14
REMARK    4  A    between atoms: C_14  and  N_15
REMARK    5  A    between atoms: N_15  and  S_16
REMARK    6  A    between atoms: S_16  and  C_19
REMARK    7  A    between atoms: C_23  and  N_25
REMARK                            x       y       z     vdW  Elec       q    Type
REMARK                         _______ _______ _______ _____ _____    ______ ____
ROOT
ATOM      1  N   UNL     1       1.060  -8.715   1.062  0.00  0.00    -0.190 NA
ATOM      2  H   UNL     1       0.385  -9.015   0.434  0.00  0.00    +0.148 HD
ENDROOT
BRANCH   1   3
ATOM      3  S   UNL     1       2.237  -9.761   1.575  0.00  0.00    +0.058 S 
ATOM      4  O   UNL     1       1.974 -11.008   0.947  0.00  0.00    -0.153 OA
ATOM      5  O   UNL     1       3.477  -9.081   1.429  0.00  0.00    -0.153 OA
BRANCH   3   6
ATOM      6  C   UNL     1       1.999 -10.007   3.303  0.00  0.00    +0.107 A 
ATOM      7  C   UNL     1       2.623  -9.173   4.213  0.00  0.00    +0.028 A 
ATOM      8  C   UNL     1       2.436  -9.366   5.568  0.00  0.00    +0.004 A 
ATOM      9  C   UNL     1       1.624 -10.393   6.015  0.00  0.00    +0.033 A 
ATOM     10  C   UNL     1       1.000 -11.225   5.106  0.00  0.00    +0.128 A 
ATOM     11  C   UNL     1       1.183 -11.030   3.749  0.00  0.00    +0.061 A 
BRANCH  10  12
ATOM     12  N   UNL     1       0.131 -12.324   5.584  0.00  0.00    +0.056 N 
ATOM     13  O   UNL     1      -0.032 -12.494   6.770  0.00  0.00    -0.126 OA
ATOM     14  O   UNL     1      -0.415 -13.053   4.788  0.00  0.00    -0.126 OA
ENDBRANCH  10  12
ENDBRANCH   3   6
ENDBRANCH   1   3
BRANCH   1  15
ATOM     15  C   UNL     1       1.039  -7.336   1.557  0.00  0.00    +0.111 C 
BRANCH  15  19
ATOM     16  N   UNL     1       0.058  -4.167  -0.021  0.00  0.00    -0.330 N 
ATOM     17  C   UNL     1       0.070  -5.020  -1.224  0.00  0.00    +0.105 C 
ATOM     18  C   UNL     1       0.700  -6.356  -0.757  0.00  0.00    +0.025 C 
ATOM     19  C   UNL     1       0.117  -6.492   0.675  0.00  0.00    +0.023 C 
ATOM     20  C   UNL     1       0.075  -5.031   1.169  0.00  0.00    +0.110 C 
BRANCH  16  25
ATOM     21  C   UNL     1      -0.018   1.503   0.010  0.00  0.00    +0.044 C 
ATOM     22  C   UNL     1       0.002  -0.004   0.002  0.00  0.00    -0.050 A 
ATOM     23  C   UNL     1       0.006  -0.687  -1.200  0.00  0.00    +0.005 A 
ATOM     24  C   UNL     1       0.024  -2.068  -1.212  0.00  0.00    +0.023 A 
ATOM     25  C   UNL     1       0.040  -2.771  -0.013  0.00  0.00    +0.030 A 
ATOM     26  C   UNL     1       0.036  -2.081   1.193  0.00  0.00    +0.023 A 
ATOM     27  C   UNL     1       0.023  -0.700   1.197  0.00  0.00    +0.005 A 
ENDBRANCH  16  25
ENDBRANCH  15  19
ENDBRANCH   1  15
TORSDOF 6
