REMARK  Name = ZINC48703558
REMARK  4 active torsions:
REMARK  status: ('A' for Active; 'I' for Inactive)
REMARK    1  A    between atoms: C_1  and  C_2
REMARK    2  A    between atoms: C_2  and  C_3
REMARK    3  A    between atoms: C_3  and  C_4
REMARK    4  A    between atoms: C_4  and  C_5
REMARK                            x       y       z     vdW  Elec       q    Type
REMARK                         _______ _______ _______ _____ _____    ______ ____
ROOT
ATOM      1  C   UNL     1       1.492  -2.540   2.454  0.00  0.00    +0.216 C 
ATOM      2  O   UNL     1       1.950  -1.750   3.252  0.00  0.00    -0.276 OA
ATOM      3  N   UNL     1       1.635  -3.864   2.659  0.00  0.00    -0.297 N 
ATOM      4  C   UNL     1       1.093  -4.840   1.701  0.00  0.00    +0.114 C 
ATOM      5  C   UNL     1       2.252  -5.621   1.072  0.00  0.00    +0.072 C 
ATOM      6  C   UNL     1       3.209  -6.045   2.162  0.00  0.00    +0.023 A 
ATOM      7  C   UNL     1       3.250  -5.489   3.392  0.00  0.00    -0.002 A 
ATOM      8  C   UNL     1       4.295  -6.162   4.133  0.00  0.00    +0.006 A 
ATOM      9  C   UNL     1       4.784  -6.012   5.434  0.00  0.00    +0.030 A 
ATOM     10  C   UNL     1       5.810  -6.844   5.812  0.00  0.00    +0.042 A 
ATOM     11  C   UNL     1       6.342  -7.793   4.953  0.00  0.00    +0.022 A 
ATOM     12  C   UNL     1       5.877  -7.962   3.661  0.00  0.00    +0.027 A 
ATOM     13  C   UNL     1       4.837  -7.131   3.250  0.00  0.00    +0.047 A 
ATOM     14  N   UNL     1       4.156  -7.032   2.071  0.00  0.00    -0.358 N 
ATOM     15  H   UNL     1       4.318  -7.578   1.286  0.00  0.00    +0.166 HD
ATOM     16 CL   UNL     1       6.459  -6.704   7.416  0.00  0.00    -0.084 Cl
ATOM     17  C   UNL     1       2.344  -4.375   3.846  0.00  0.00    +0.145 C 
ENDROOT
BRANCH   1  18
ATOM     18  C   UNL     1       0.763  -2.041   1.233  0.00  0.00    +0.096 C 
BRANCH  18  19
ATOM     19  C   UNL     1       0.742  -0.511   1.242  0.00  0.00    +0.009 C 
BRANCH  19  21
ATOM     20  C   UNL     1      -0.019   1.526   0.010  0.00  0.00    +0.004 C 
ATOM     21  C   UNL     1       0.002  -0.004   0.002  0.00  0.00    -0.003 C 
ENDBRANCH  19  21
ENDBRANCH  18  19
ENDBRANCH   1  18
TORSDOF 3
