REMARK  Name = ZINC08758618
REMARK  12 active torsions:
REMARK  status: ('A' for Active; 'I' for Inactive)
REMARK    1  A    between atoms: C_1  and  C_2
REMARK    2  A    between atoms: C_4  and  C_41
REMARK    3  A    between atoms: N_10  and  C_11
REMARK    4  A    between atoms: C_11  and  C_13
REMARK    5  A    between atoms: C_13  and  S_14
REMARK    6  A    between atoms: S_14  and  C_15
REMARK    7  A    between atoms: N_19  and  C_20
REMARK    8  A    between atoms: N_26  and  C_27
REMARK    9  A    between atoms: C_27  and  C_28
REMARK   10  A    between atoms: C_28  and  C_29
REMARK   11  A    between atoms: C_37  and  O_39
REMARK   12  A    between atoms: O_39  and  C_40
REMARK                            x       y       z     vdW  Elec       q    Type
REMARK                         _______ _______ _______ _____ _____    ______ ____
ROOT
ATOM      1  C   UNL     1      -5.812   2.938   1.139  0.00  0.00    +0.066 C 
ATOM      2  C   UNL     1      -4.548   3.679   0.789  0.00  0.00    +0.044 A 
ATOM      3  C   UNL     1      -4.544   5.063   0.714  0.00  0.00    +0.046 A 
ATOM      4  C   UNL     1      -3.359   5.705   0.389  0.00  0.00    +0.044 A 
ATOM      5  N   UNL     1      -2.275   4.982   0.162  0.00  0.00    -0.217 NA
ATOM      6  C   UNL     1      -2.313   3.661   0.242  0.00  0.00    +0.231 A 
ATOM      7  N   UNL     1      -3.429   3.016   0.545  0.00  0.00    -0.217 NA
ATOM      8  N   UNL     1      -1.155   2.933  -0.003  0.00  0.00    -0.297 N 
ATOM      9  C   UNL     1      -1.200   1.568  -0.030  0.00  0.00    +0.196 C 
ATOM     10  N   UNL     1      -2.363   0.940   0.073  0.00  0.00    -0.146 NA
ATOM     11  N   UNL     1      -0.049   0.852  -0.162  0.00  0.00    -0.357 N 
ATOM     12  C   UNL     1      -3.307   7.208   0.296  0.00  0.00    +0.066 C 
ATOM     13  H   UNL     1      -0.316   3.395  -0.154  0.00  0.00    +0.171 HD
ATOM     14  H   UNL     1      -0.086  -0.110  -0.276  0.00  0.00    +0.162 HD
ENDROOT
BRANCH  10  15
ATOM     15  C   UNL     1      -2.394  -0.377   0.265  0.00  0.00    +0.249 C 
ATOM     16  O   UNL     1      -1.361  -0.988   0.458  0.00  0.00    -0.273 OA
BRANCH  15  17
ATOM     17  C   UNL     1      -3.710  -1.111   0.244  0.00  0.00    +0.175 C 
BRANCH  17  18
ATOM     18  S   UNL     1      -3.423  -2.874   0.534  0.00  0.00    -0.075 S 
BRANCH  18  19
ATOM     19  C   UNL     1      -5.079  -3.471   0.459  0.00  0.00    +0.214 A 
ATOM     20  N   UNL     1      -6.160  -2.753   0.245  0.00  0.00    -0.101 NA
ATOM     21  N   UNL     1      -7.205  -3.499   0.253  0.00  0.00    -0.022 NA
ATOM     22  N   UNL     1      -6.878  -4.728   0.467  0.00  0.00    -0.038 NA
ATOM     23  N   UNL     1      -5.480  -4.759   0.605  0.00  0.00    -0.187 N 
BRANCH  23  24
ATOM     24  C   UNL     1      -4.673  -5.881   0.844  0.00  0.00    +0.070 A 
ATOM     25  C   UNL     1      -3.409  -5.963   0.274  0.00  0.00    +0.028 A 
ATOM     26  C   UNL     1      -2.614  -7.066   0.515  0.00  0.00    +0.002 A 
ATOM     27  C   UNL     1      -3.080  -8.093   1.315  0.00  0.00    +0.000 A 
ATOM     28  C   UNL     1      -4.340  -8.017   1.880  0.00  0.00    +0.002 A 
ATOM     29  C   UNL     1      -5.137  -6.914   1.646  0.00  0.00    +0.028 A 
ENDBRANCH  23  24
ENDBRANCH  18  19
ENDBRANCH  17  18
ENDBRANCH  15  17
ENDBRANCH  10  15
BRANCH  11  30
ATOM     30  C   UNL     1       1.247   1.536  -0.139  0.00  0.00    +0.120 C 
BRANCH  30  31
ATOM     31  C   UNL     1       2.372   0.500  -0.187  0.00  0.00    +0.058 C 
BRANCH  31  32
ATOM     32  C   UNL     1       3.701   1.195  -0.040  0.00  0.00    -0.021 A 
ATOM     33  C   UNL     1       4.549   1.514  -1.030  0.00  0.00    +0.087 A 
ATOM     34  N   UNL     1       5.655   2.137  -0.514  0.00  0.00    -0.360 N 
ATOM     35  H   UNL     1       6.406   2.460  -1.036  0.00  0.00    +0.165 HD
ATOM     36  C   UNL     1       5.540   2.236   0.854  0.00  0.00    +0.050 A 
ATOM     37  C   UNL     1       4.309   1.657   1.211  0.00  0.00    +0.003 A 
ATOM     38  C   UNL     1       3.923   1.608   2.552  0.00  0.00    +0.014 A 
ATOM     39  C   UNL     1       4.738   2.135   3.514  0.00  0.00    +0.046 A 
ATOM     40  C   UNL     1       5.955   2.715   3.167  0.00  0.00    +0.122 A 
ATOM     41  C   UNL     1       6.358   2.768   1.846  0.00  0.00    +0.071 A 
BRANCH  40  42
ATOM     42  O   UNL     1       6.755   3.234   4.137  0.00  0.00    -0.495 OA
ATOM     43  C   UNL     1       6.282   3.149   5.482  0.00  0.00    +0.277 C 
ENDBRANCH  40  42
ENDBRANCH  31  32
ENDBRANCH  30  31
ENDBRANCH  11  30
TORSDOF 9
