REMARK  Name = ZINC38545561
REMARK  15 active torsions:
REMARK  status: ('A' for Active; 'I' for Inactive)
REMARK    1  A    between atoms: C_1  and  C_2
REMARK    2  A    between atoms: C_2  and  C_3
REMARK    3  A    between atoms: C_8  and  N_9
REMARK    4  A    between atoms: C_10  and  C_12
REMARK    5  A    between atoms: C_12  and  S_13
REMARK    6  A    between atoms: S_13  and  C_14
REMARK    7  A    between atoms: C_18  and  C_21
REMARK    8  A    between atoms: C_21  and  C_23
REMARK    9  A    between atoms: C_21  and  N_33
REMARK   10  A    between atoms: C_23  and  C_24
REMARK   11  A    between atoms: C_34  and  O_36
REMARK   12  A    between atoms: O_36  and  C_37
REMARK   13  A    between atoms: C_37  and  C_38
REMARK   14  A    between atoms: C_37  and  C_39
REMARK   15  A    between atoms: C_37  and  C_40
REMARK                            x       y       z     vdW  Elec       q    Type
REMARK                         _______ _______ _______ _____ _____    ______ ____
ROOT
ATOM      1  C   UNL     1       0.657  -0.387  -9.830  0.00  0.00    +0.133 C 
ENDROOT
BRANCH   1   5
ATOM      2  C   UNL     1      -1.592  -0.314  -7.719  0.00  0.00    +0.319 C 
ATOM      3  N   UNL     1      -1.153   1.087  -7.693  0.00  0.00    -0.146 NA
ATOM      4  N   UNL     1       0.038   1.165  -8.023  0.00  0.00    -0.155 NA
ATOM      5  C   UNL     1       0.569  -0.172  -8.318  0.00  0.00    +0.280 C 
ATOM      6  O   UNL     1      -0.379  -1.094  -7.735  0.00  0.00    -0.316 OA
BRANCH   2   7
ATOM      7  S   UNL     1      -2.566  -0.695  -6.237  0.00  0.00    -0.095 S 
BRANCH   7   8
ATOM      8  C   UNL     1      -1.450  -0.294  -4.864  0.00  0.00    +0.169 C 
BRANCH   8  10
ATOM      9  N   UNL     1      -1.504  -0.343  -2.391  0.00  0.00    -0.285 N 
ATOM     10  C   UNL     1      -2.145  -0.569  -3.555  0.00  0.00    +0.227 C 
ATOM     11  O   UNL     1      -3.281  -0.994  -3.549  0.00  0.00    -0.275 OA
ATOM     12  H   UNL     1      -0.620   0.057  -2.394  0.00  0.00    +0.155 HD
BRANCH   9  18
ATOM     13  C   UNL     1      -1.344  -1.150  -0.121  0.00  0.00    -0.026 A 
ATOM     14  C   UNL     1      -1.948  -1.482   1.077  0.00  0.00    +0.005 A 
ATOM     15  C   UNL     1      -3.317  -1.355   1.220  0.00  0.00    +0.000 A 
ATOM     16  C   UNL     1      -4.087  -0.897   0.166  0.00  0.00    +0.002 A 
ATOM     17  C   UNL     1      -3.489  -0.564  -1.033  0.00  0.00    +0.023 A 
ATOM     18  C   UNL     1      -2.113  -0.685  -1.179  0.00  0.00    +0.037 A 
BRANCH  13  20
ATOM     19  C   UNL     1       0.819   0.055   0.020  0.00  0.00    +0.009 C 
ATOM     20  C   UNL     1       0.149  -1.288  -0.276  0.00  0.00    +0.033 C 
ENDBRANCH  13  20
ENDBRANCH   9  18
ENDBRANCH   8  10
ENDBRANCH   7   8
ENDBRANCH   2   7
ENDBRANCH   1   5
BRANCH   1  21
ATOM     21  N   UNL     1      -0.645  -0.107 -10.439  0.00  0.00    -0.274 N 
ATOM     22  C   UNL     1      -1.246  -1.040 -11.205  0.00  0.00    +0.401 C 
ATOM     23  O   UNL     1      -0.752  -2.144 -11.316  0.00  0.00    -0.226 OA
ATOM     24  H   UNL     1      -1.076   0.750 -10.292  0.00  0.00    +0.152 HD
BRANCH  22  25
ATOM     25  O   UNL     1      -2.392  -0.747 -11.847  0.00  0.00    -0.445 OA
BRANCH  25  26
ATOM     26  C   UNL     1      -2.974  -1.783 -12.642  0.00  0.00    +0.107 C 
ATOM     27  C   UNL     1      -3.295  -2.987 -11.753  0.00  0.00    +0.055 C 
ATOM     28  C   UNL     1      -4.261  -1.268 -13.289  0.00  0.00    +0.055 C 
ATOM     29  C   UNL     1      -1.987  -2.204 -13.733  0.00  0.00    +0.055 C 
ENDBRANCH  25  26
ENDBRANCH  22  25
ENDBRANCH   1  21
BRANCH   1  30
ATOM     30  C   UNL     1       1.709   0.555 -10.418  0.00  0.00    +0.064 C 
BRANCH  30  31
ATOM     31  C   UNL     1       1.884   0.259 -11.886  0.00  0.00    -0.020 A 
ATOM     32  C   UNL     1       1.074   0.791 -12.984  0.00  0.00    +0.003 A 
ATOM     33  C   UNL     1      -0.017   1.659 -13.054  0.00  0.00    +0.010 A 
ATOM     34  C   UNL     1      -0.562   1.968 -14.268  0.00  0.00    +0.001 A 
ATOM     35  C   UNL     1      -0.040   1.425 -15.434  0.00  0.00    +0.002 A 
ATOM     36  C   UNL     1       1.036   0.566 -15.388  0.00  0.00    +0.026 A 
ATOM     37  C   UNL     1       1.607   0.238 -14.163  0.00  0.00    +0.047 A 
ATOM     38  N   UNL     1       2.661  -0.567 -13.793  0.00  0.00    -0.360 N 
ATOM     39  C   UNL     1       2.814  -0.538 -12.434  0.00  0.00    +0.087 A 
ATOM     40  H   UNL     1       3.215  -1.076 -14.406  0.00  0.00    +0.165 HD
ENDBRANCH  30  31
ENDBRANCH   1  30
TORSDOF 11
