REMARK  Name = ZINC06669079
REMARK  8 active torsions:
REMARK  status: ('A' for Active; 'I' for Inactive)
REMARK    1  A    between atoms: C_1  and  C_2
REMARK    2  A    between atoms: C_5  and  C_8
REMARK    3  A    between atoms: C_14  and  C_16
REMARK    4  A    between atoms: C_16  and  C_18
REMARK    5  A    between atoms: C_16  and  N_21
REMARK    6  A    between atoms: C_18  and  C_19
REMARK    7  A    between atoms: C_18  and  C_20
REMARK    8  A    between atoms: C_22  and  C_24
REMARK                            x       y       z     vdW  Elec       q    Type
REMARK                         _______ _______ _______ _____ _____    ______ ____
ROOT
ATOM      1  C   UNL     1       1.517  -4.563  -0.188  0.00  0.00    +0.134 A 
ATOM      2  N   UNL     1       1.105  -5.392  -1.140  0.00  0.00    -0.140 NA
ATOM      3  N   UNL     1       0.897  -6.603  -0.846  0.00  0.00    -0.125 NA
ATOM      4  C   UNL     1       1.078  -7.066   0.377  0.00  0.00    +0.188 A 
ATOM      5  S   UNL     1       1.593  -5.687   1.199  0.00  0.00    -0.030 S 
ATOM      6  N   UNL     1       0.897  -8.356   0.860  0.00  0.00    -0.262 N 
ATOM      7  C   UNL     1       0.479  -9.333   0.031  0.00  0.00    +0.239 C 
ATOM      8  O   UNL     1       0.176  -9.069  -1.114  0.00  0.00    -0.273 OA
ATOM      9  H   UNL     1       1.070  -8.553   1.793  0.00  0.00    +0.157 HD
ENDROOT
BRANCH   1  14
ATOM     10  C   UNL     1       2.738   1.054  -0.459  0.00  0.00    +0.044 C 
ATOM     11  C   UNL     1       2.418  -0.417  -0.388  0.00  0.00    -0.050 A 
ATOM     12  C   UNL     1       1.993  -1.085  -1.523  0.00  0.00    +0.004 A 
ATOM     13  C   UNL     1       1.699  -2.432  -1.465  0.00  0.00    +0.011 A 
ATOM     14  C   UNL     1       1.831  -3.120  -0.258  0.00  0.00    +0.009 A 
ATOM     15  C   UNL     1       2.261  -2.441   0.883  0.00  0.00    +0.011 A 
ATOM     16  C   UNL     1       2.557  -1.095   0.810  0.00  0.00    +0.004 A 
ENDBRANCH   1  14
BRANCH   7  17
ATOM     17  C   UNL     1       0.389 -10.754   0.525  0.00  0.00    +0.162 C 
BRANCH  17  18
ATOM     18  N   UNL     1       0.561 -11.675  -0.601  0.00  0.00    -0.304 N 
ATOM     19  C   UNL     1       1.016 -12.925  -0.385  0.00  0.00    +0.217 C 
ATOM     20  O   UNL     1       1.284 -13.287   0.741  0.00  0.00    -0.275 OA
ATOM     21  H   UNL     1       0.347 -11.385  -1.501  0.00  0.00    +0.149 HD
BRANCH  19  22
ATOM     22  C   UNL     1       1.193 -13.873  -1.543  0.00  0.00    +0.075 C 
ATOM     23  C   UNL     1      -0.153 -14.084  -2.239  0.00  0.00    +0.013 C 
ATOM     24  C   UNL     1       0.027 -15.046  -3.415  0.00  0.00    +0.001 C 
ATOM     25  C   UNL     1       0.552 -16.388  -2.901  0.00  0.00    +0.000 C 
ATOM     26  C   UNL     1       1.898 -16.177  -2.205  0.00  0.00    +0.001 C 
ATOM     27  C   UNL     1       1.718 -15.214  -1.029  0.00  0.00    +0.013 C 
ENDBRANCH  19  22
ENDBRANCH  17  18
BRANCH  17  28
ATOM     28  C   UNL     1      -0.980 -10.984   1.168  0.00  0.00    +0.012 C 
ATOM     29  C   UNL     1      -1.070 -12.425   1.673  0.00  0.00    +0.009 C 
ATOM     30  C   UNL     1      -1.161 -10.020   2.342  0.00  0.00    +0.009 C 
ENDBRANCH  17  28
ENDBRANCH   7  17
TORSDOF 5
