REMARK  Name = ZINC39464524
REMARK  5 active torsions:
REMARK  status: ('A' for Active; 'I' for Inactive)
REMARK    1  A    between atoms: C_4  and  O_7
REMARK    2  A    between atoms: O_7  and  S_8
REMARK    3  A    between atoms: S_8  and  C_11
REMARK    4  A    between atoms: P_22  and  C_28
REMARK    5  A    between atoms: C_33  and  O_34
REMARK                            x       y       z     vdW  Elec       q    Type
REMARK                         _______ _______ _______ _____ _____    ______ ____
ROOT
ATOM      1  C   UNL     1       3.192  -2.273   2.002  0.00  0.00    +0.163 A 
ATOM      2  C   UNL     1       2.052  -2.017   2.736  0.00  0.00    +0.037 A 
ATOM      3  C   UNL     1       1.302  -3.061   3.255  0.00  0.00    -0.039 A 
ATOM      4  C   UNL     1       1.694  -4.365   3.037  0.00  0.00    -0.021 A 
ATOM      5  C   UNL     1       2.840  -4.623   2.299  0.00  0.00    +0.046 A 
ATOM      6  C   UNL     1       3.585  -3.582   1.778  0.00  0.00    +0.152 A 
ATOM      7  F   UNL     1       4.697  -3.841   1.056  0.00  0.00    -0.203 F 
ATOM      8  C   UNL     1       0.914  -5.535   3.576  0.00  0.00    +0.129 C 
ATOM      9  C   UNL     1       1.892  -6.573   4.135  0.00  0.00    +0.194 C 
ATOM     10  O   UNL     1       1.147  -7.738   4.540  0.00  0.00    -0.311 OA
ATOM     11  P   UNL     1      -0.153  -7.529   5.494  0.00  0.00    +0.318 P 
ATOM     12  O   UNL     1      -1.079  -8.675   5.356  0.00  0.00    -0.266 OA
ATOM     13  N   UNL     1      -0.877  -6.142   4.960  0.00  0.00    -0.175 NA
ATOM     14  N   UNL     1      -0.026  -5.112   4.614  0.00  0.00    -0.225 NA
ATOM     15  C   UNL     1      -0.822  -3.960   4.163  0.00  0.00    +0.108 C 
ATOM     16  C   UNL     1       0.066  -2.734   4.053  0.00  0.00    +0.052 C 
ATOM     17  H   UNL     1      -1.842  -6.059   4.904  0.00  0.00    +0.151 HD
ENDROOT
BRANCH  11  18
ATOM     18  C   UNL     1       0.362  -7.345   7.224  0.00  0.00    +0.094 A 
ATOM     19  C   UNL     1       0.634  -6.090   7.735  0.00  0.00    +0.018 A 
ATOM     20  C   UNL     1       1.027  -5.950   9.053  0.00  0.00    +0.001 A 
ATOM     21  C   UNL     1       1.148  -7.064   9.863  0.00  0.00    +0.004 A 
ATOM     22  C   UNL     1       0.877  -8.320   9.357  0.00  0.00    +0.046 A 
ATOM     23  C   UNL     1       0.478  -8.463   8.036  0.00  0.00    +0.131 A 
BRANCH  23  24
ATOM     24  O   UNL     1       0.205  -9.698   7.537  0.00  0.00    -0.506 OA
ATOM     25  H   UNL     1       0.971 -10.144   7.151  0.00  0.00    +0.292 HD
ENDBRANCH  23  24
ENDBRANCH  11  18
BRANCH   1  26
ATOM     26  S   UNL     1       4.140  -0.941   1.346  0.00  0.00    +0.154 S 
ATOM     27  O   UNL     1       5.458  -1.436   1.154  0.00  0.00    -0.131 OA
ATOM     28  O   UNL     1       3.863   0.192   2.158  0.00  0.00    -0.131 OA
BRANCH  26  29
ATOM     29  O   UNL     1       3.586  -0.632  -0.037  0.00  0.00    -0.342 OA
BRANCH  29  33
ATOM     30  C   UNL     1      -0.017   1.378   0.010  0.00  0.00    +0.000 A 
ATOM     31  C   UNL     1       1.170   2.088   0.002  0.00  0.00    +0.004 A 
ATOM     32  C   UNL     1       2.377   1.417  -0.013  0.00  0.00    +0.048 A 
ATOM     33  C   UNL     1       2.399   0.030  -0.021  0.00  0.00    +0.157 A 
ATOM     34  C   UNL     1       1.207  -0.680  -0.013  0.00  0.00    +0.048 A 
ATOM     35  C   UNL     1       0.002  -0.004   0.002  0.00  0.00    +0.004 A 
ENDBRANCH  29  33
ENDBRANCH  26  29
ENDBRANCH   1  26
TORSDOF 5
