REMARK  Name = ZINC54726208
REMARK  8 active torsions:
REMARK  status: ('A' for Active; 'I' for Inactive)
REMARK    1  A    between atoms: C_1  and  C_2
REMARK    2  A    between atoms: C_5  and  C_30
REMARK    3  A    between atoms: N_8  and  C_10
REMARK    4  A    between atoms: C_10  and  C_11
REMARK    5  A    between atoms: C_10  and  C_12
REMARK    6  A    between atoms: C_10  and  C_13
REMARK    7  A    between atoms: C_13  and  N_14
REMARK    8  A    between atoms: N_17  and  N_18
REMARK                            x       y       z     vdW  Elec       q    Type
REMARK                         _______ _______ _______ _____ _____    ______ ____
ROOT
ATOM      1  N   UNL     1       2.001   1.661   3.436  0.00  0.00    -0.300 N 
ATOM      2  C   UNL     1       1.527   2.460   4.412  0.00  0.00    +0.316 C 
ATOM      3  O   UNL     1       1.211   1.985   5.486  0.00  0.00    -0.251 OA
ATOM      4  N   UNL     1       1.403   3.785   4.198  0.00  0.00    -0.219 N 
ATOM      5  H   UNL     1       2.253   2.039   2.579  0.00  0.00    +0.150 HD
ATOM      6  H   UNL     1       1.062   4.359   4.901  0.00  0.00    +0.174 HD
ENDROOT
BRANCH   4   7
ATOM      7  N   UNL     1       1.767   4.331   2.961  0.00  0.00    -0.246 N 
ATOM      8  C   UNL     1       1.639   5.699   2.740  0.00  0.00    +0.158 A 
ATOM      9  C   UNL     1       1.996   6.245   1.506  0.00  0.00    +0.050 A 
ATOM     10  C   UNL     1       1.850   7.611   1.334  0.00  0.00    +0.053 A 
ATOM     11  C   UNL     1       1.356   8.356   2.405  0.00  0.00    +0.176 A 
ATOM     12  N   UNL     1       1.044   7.753   3.539  0.00  0.00    -0.128 NA
ATOM     13  N   UNL     1       1.173   6.486   3.698  0.00  0.00    -0.131 NA
ATOM     14  N   UNL     1       1.192   9.741   2.278  0.00  0.00    -0.220 N 
ATOM     15  C   UNL     1       0.729  10.582   3.238  0.00  0.00    +0.116 A 
ATOM     16  C   UNL     1       0.722  11.832   2.719  0.00  0.00    +0.041 A 
ATOM     17  C   UNL     1       1.195  11.755   1.404  0.00  0.00    +0.135 A 
ATOM     18  N   UNL     1       1.482  10.506   1.141  0.00  0.00    -0.173 NA
ATOM     19  H   UNL     1       2.109   3.756   2.258  0.00  0.00    +0.172 HD
ENDBRANCH   4   7
BRANCH   1  20
ATOM     20  C   UNL     1       2.136   0.221   3.668  0.00  0.00    +0.093 C 
BRANCH  20  21
ATOM     21  C   UNL     1       2.570  -0.467   2.372  0.00  0.00    -0.055 C 
ATOM     22  C   UNL     1       2.629  -1.980   2.592  0.00  0.00    -0.008 C 
ATOM     23  C   UNL     1       3.953   0.043   1.963  0.00  0.00    -0.008 C 
BRANCH  21  29
ATOM     24  C   UNL     1      -0.774   1.282   0.483  0.00  0.00    +0.005 C 
ATOM     25  C   UNL     1      -0.757  -0.239   0.650  0.00  0.00    -0.031 C 
ATOM     26  C   UNL     1      -0.373  -0.895  -0.679  0.00  0.00    +0.003 C 
ATOM     27  C   UNL     1       1.047  -0.466  -1.058  0.00  0.00    -0.031 C 
ATOM     28  C   UNL     1       2.007  -0.843   0.073  0.00  0.00    -0.075 C 
ATOM     29  N   UNL     1       1.602  -0.164   1.310  0.00  0.00    +0.384 N 
ATOM     30  C   UNL     1       0.269  -0.624   1.718  0.00  0.00    -0.075 C 
ATOM     31  C   UNL     1       1.470  -1.177  -2.345  0.00  0.00    +0.005 C 
ATOM     32  H   UNL     1       1.579   0.833   1.153  0.00  0.00    -0.081 HD
ENDBRANCH  21  29
ENDBRANCH  20  21
ENDBRANCH   1  20
TORSDOF 4
