REMARK  Name = ZINC59098284
REMARK  7 active torsions:
REMARK  status: ('A' for Active; 'I' for Inactive)
REMARK    1  A    between atoms: C_4  and  N_11
REMARK    2  A    between atoms: C_5  and  C_7
REMARK    3  A    between atoms: N_11  and  C_12
REMARK    4  A    between atoms: C_12  and  N_14
REMARK    5  A    between atoms: N_14  and  C_15
REMARK    6  A    between atoms: N_14  and  C_21
REMARK    7  A    between atoms: C_15  and  C_16
REMARK                            x       y       z     vdW  Elec       q    Type
REMARK                         _______ _______ _______ _____ _____    ______ ____
ROOT
ATOM      1  C   UNL     1       4.746   0.027  -0.161  0.00  0.00    +0.138 C 
ATOM      2  S   UNL     1       4.711   1.738  -0.152  0.00  0.00    -0.018 S 
ENDROOT
BRANCH   1   3
ATOM      3  N   UNL     1       3.597  -0.672  -0.068  0.00  0.00    -0.296 N 
ATOM      4  H   UNL     1       3.620  -1.641  -0.029  0.00  0.00    +0.154 HD
BRANCH   3   8
ATOM      5  C   UNL     1      -0.054   1.331   0.048  0.00  0.00    +0.001 A 
ATOM      6  C   UNL     1       0.958   1.787  -0.778  0.00  0.00    +0.002 A 
ATOM      7  C   UNL     1       2.169   1.126  -0.819  0.00  0.00    +0.024 A 
ATOM      8  C   UNL     1       2.371   0.001  -0.029  0.00  0.00    +0.044 A 
ATOM      9  C   UNL     1       1.354  -0.454   0.799  0.00  0.00    +0.076 A 
ATOM     10  C   UNL     1       0.145   0.212   0.835  0.00  0.00    +0.014 A 
BRANCH   9  11
ATOM     11  C   UNL     1       1.569  -1.675   1.657  0.00  0.00    +0.419 C 
ATOM     12  F   UNL     1       0.411  -1.934   2.397  0.00  0.00    -0.166 F 
ATOM     13  F   UNL     1       1.857  -2.773   0.841  0.00  0.00    -0.166 F 
ATOM     14  F   UNL     1       2.639  -1.448   2.530  0.00  0.00    -0.166 F 
ENDBRANCH   9  11
ENDBRANCH   3   8
ENDBRANCH   1   3
BRANCH   1  15
ATOM     15  N   UNL     1       5.923  -0.623  -0.260  0.00  0.00    -0.302 N 
BRANCH  15  16
ATOM     16  C   UNL     1       7.179   0.132  -0.249  0.00  0.00    +0.076 C 
ATOM     17  C   UNL     1       7.877  -0.020  -1.603  0.00  0.00    +0.022 C 
ATOM     18  C   UNL     1       9.188   0.768  -1.592  0.00  0.00    +0.002 C 
ATOM     19  C   UNL     1      10.098   0.228  -0.486  0.00  0.00    +0.000 C 
ATOM     20  C   UNL     1       9.400   0.379   0.867  0.00  0.00    +0.002 C 
ATOM     21  C   UNL     1       8.089  -0.408   0.856  0.00  0.00    +0.022 C 
ENDBRANCH  15  16
BRANCH  15  22
ATOM     22  C   UNL     1       5.947  -2.083  -0.379  0.00  0.00    +0.181 C 
BRANCH  22  23
ATOM     23  C   UNL     1       5.747  -2.473  -1.821  0.00  0.00    +0.122 A 
ATOM     24  C   UNL     1       6.723  -2.760  -2.701  0.00  0.00    +0.046 A 
ATOM     25  C   UNL     1       6.091  -3.070  -3.927  0.00  0.00    +0.041 A 
ATOM     26  C   UNL     1       4.766  -2.955  -3.723  0.00  0.00    +0.195 A 
ATOM     27  O   UNL     1       4.563  -2.598  -2.444  0.00  0.00    -0.466 OA
ENDBRANCH  22  23
ENDBRANCH  15  22
ENDBRANCH   1  15
TORSDOF 7
