REMARK  Name = ZINC19972900
REMARK  12 active torsions:
REMARK  status: ('A' for Active; 'I' for Inactive)
REMARK    1  A    between atoms: C_1  and  C_2
REMARK    2  A    between atoms: C_9  and  C_14
REMARK    3  A    between atoms: C_14  and  C_16
REMARK    4  A    between atoms: C_14  and  N_25
REMARK    5  A    between atoms: N_20  and  C_21
REMARK    6  A    between atoms: C_21  and  C_22
REMARK    7  A    between atoms: C_22  and  O_23
REMARK    8  A    between atoms: O_23  and  C_24
REMARK    9  A    between atoms: N_25  and  C_26
REMARK   10  A    between atoms: N_25  and  C_33
REMARK   11  A    between atoms: C_26  and  C_27
REMARK   12  A    between atoms: C_33  and  C_34
REMARK                            x       y       z     vdW  Elec       q    Type
REMARK                         _______ _______ _______ _____ _____    ______ ____
ROOT
ATOM      1  C   UNL     1       3.151  -2.379  -1.633  0.00  0.00    +0.163 C 
ENDROOT
BRANCH   1  10
ATOM      2  C   UNL     1      -1.430  -0.416  -7.181  0.00  0.00    +0.044 C 
ATOM      3  C   UNL     1      -1.164  -0.648  -5.715  0.00  0.00    -0.050 A 
ATOM      4  C   UNL     1      -2.177  -0.435  -4.790  0.00  0.00    +0.005 A 
ATOM      5  C   UNL     1      -1.956  -0.642  -3.446  0.00  0.00    +0.026 A 
ATOM      6  C   UNL     1      -0.706  -1.067  -3.009  0.00  0.00    +0.049 A 
ATOM      7  C   UNL     1       0.319  -1.282  -3.950  0.00  0.00    -0.001 A 
ATOM      8  C   UNL     1       0.071  -1.066  -5.309  0.00  0.00    +0.013 A 
ATOM      9  C   UNL     1       1.633  -1.723  -3.479  0.00  0.00    +0.021 A 
ATOM     10  C   UNL     1       1.812  -1.920  -2.150  0.00  0.00    +0.042 A 
ATOM     11  C   UNL     1       0.752  -1.690  -1.247  0.00  0.00    +0.254 A 
ATOM     12  O   UNL     1       0.936  -1.867  -0.056  0.00  0.00    -0.268 OA
ATOM     13  N   UNL     1      -0.457  -1.280  -1.669  0.00  0.00    -0.322 N 
ATOM     14  H   UNL     1      -1.254  -1.115  -0.929  0.00  0.00    +0.169 HD
ENDBRANCH   1  10
BRANCH   1  15
ATOM     15  C   UNL     1       3.015  -3.757  -1.039  0.00  0.00    +0.173 A 
ATOM     16  N   UNL     1       2.679  -4.048   0.195  0.00  0.00    -0.111 NA
ATOM     17  N   UNL     1       2.672  -5.331   0.313  0.00  0.00    -0.023 NA
ATOM     18  N   UNL     1       2.994  -5.866  -0.813  0.00  0.00    -0.044 NA
ATOM     19  N   UNL     1       3.208  -4.928  -1.673  0.00  0.00    -0.225 N 
BRANCH  19  20
ATOM     20  C   UNL     1       3.593  -5.106  -3.075  0.00  0.00    +0.175 C 
BRANCH  20  21
ATOM     21  C   UNL     1       5.108  -5.303  -3.167  0.00  0.00    +0.183 C 
BRANCH  21  22
ATOM     22  O   UNL     1       5.467  -5.608  -4.516  0.00  0.00    -0.381 OA
ATOM     23  C   UNL     1       6.868  -5.812  -4.713  0.00  0.00    +0.194 C 
ENDBRANCH  21  22
ENDBRANCH  20  21
ENDBRANCH  19  20
ENDBRANCH   1  15
BRANCH   1  24
ATOM     24  N   UNL     1       3.625  -1.446  -0.602  0.00  0.00    -0.280 NA
BRANCH  24  25
ATOM     25  C   UNL     1       5.036  -1.691  -0.278  0.00  0.00    +0.121 C 
BRANCH  25  26
ATOM     26  C   UNL     1       5.137  -2.837   0.695  0.00  0.00    -0.033 A 
ATOM     27  C   UNL     1       5.401  -4.114   0.234  0.00  0.00    +0.005 A 
ATOM     28  C   UNL     1       5.493  -5.166   1.126  0.00  0.00    +0.000 A 
ATOM     29  C   UNL     1       5.321  -4.941   2.479  0.00  0.00    +0.000 A 
ATOM     30  C   UNL     1       5.057  -3.665   2.940  0.00  0.00    +0.000 A 
ATOM     31  C   UNL     1       4.965  -2.613   2.048  0.00  0.00    +0.005 A 
ENDBRANCH  25  26
ENDBRANCH  24  25
BRANCH  24  32
ATOM     32  C   UNL     1       3.413  -0.052  -1.016  0.00  0.00    +0.121 C 
BRANCH  32  33
ATOM     33  C   UNL     1       3.678   0.864   0.151  0.00  0.00    -0.033 A 
ATOM     34  C   UNL     1       2.647   1.210   1.005  0.00  0.00    +0.008 A 
ATOM     35  C   UNL     1       2.889   2.046   2.078  0.00  0.00    +0.038 A 
ATOM     36  C   UNL     1       4.163   2.546   2.292  0.00  0.00    +0.123 A 
ATOM     37  C   UNL     1       5.193   2.203   1.433  0.00  0.00    +0.038 A 
ATOM     38  C   UNL     1       4.950   1.363   0.364  0.00  0.00    +0.008 A 
ATOM     39  F   UNL     1       4.400   3.368   3.338  0.00  0.00    -0.205 F 
ENDBRANCH  32  33
ENDBRANCH  24  32
ENDBRANCH   1  24
TORSDOF 10
