REMARK  Name = ZINC40826792
REMARK  8 active torsions:
REMARK  status: ('A' for Active; 'I' for Inactive)
REMARK    1  A    between atoms: C_1  and  C_2
REMARK    2  A    between atoms: C_6  and  C_12
REMARK    3  A    between atoms: C_10  and  C_11
REMARK    4  A    between atoms: C_12  and  C_13
REMARK    5  A    between atoms: N_15  and  N_16
REMARK    6  A    between atoms: C_23  and  C_39
REMARK    7  A    between atoms: C_24  and  C_26
REMARK    8  A    between atoms: N_28  and  C_29
REMARK                            x       y       z     vdW  Elec       q    Type
REMARK                         _______ _______ _______ _____ _____    ______ ____
ROOT
ATOM      1  N   UNL     1       3.064  -6.923  -2.315  0.00  0.00    -0.184 NA
ATOM      2  C   UNL     1       3.309  -7.894  -3.139  0.00  0.00    +0.070 C 
ATOM      3  C   UNL     1       2.209  -8.775  -3.714  0.00  0.00    +0.058 C 
ATOM      4  C   UNL     1       2.697 -10.227  -3.692  0.00  0.00    +0.014 C 
ATOM      5  C   UNL     1       3.901 -10.406  -4.621  0.00  0.00    +0.075 C 
ATOM      6  C   UNL     1       4.956  -9.386  -4.274  0.00  0.00    +0.115 A 
ATOM      7  C   UNL     1       4.679  -8.223  -3.592  0.00  0.00    +0.042 A 
ATOM      8  C   UNL     1       5.882  -7.520  -3.451  0.00  0.00    +0.009 A 
ATOM      9  C   UNL     1       6.842  -8.280  -4.059  0.00  0.00    +0.193 A 
ATOM     10  O   UNL     1       6.260  -9.404  -4.543  0.00  0.00    -0.454 OA
ATOM     11  C   UNL     1       6.078  -6.193  -2.765  0.00  0.00    +0.048 C 
ENDROOT
BRANCH   1  14
ATOM     12  C   UNL     1       1.492  -5.646  -1.063  0.00  0.00    +0.237 C 
ATOM     13  O   UNL     1       2.403  -4.969  -0.635  0.00  0.00    -0.274 OA
ATOM     14  N   UNL     1       1.747  -6.656  -1.919  0.00  0.00    -0.206 N 
ATOM     15  H   UNL     1       1.019  -7.198  -2.260  0.00  0.00    +0.177 HD
BRANCH  12  16
ATOM     16  C   UNL     1       0.075  -5.360  -0.636  0.00  0.00    +0.136 C 
BRANCH  16  22
ATOM     17  C   UNL     1      -0.035   1.500  -0.017  0.00  0.00    +0.044 C 
ATOM     18  C   UNL     1      -0.010  -0.006  -0.016  0.00  0.00    -0.044 A 
ATOM     19  C   UNL     1      -0.008  -0.694  -1.221  0.00  0.00    +0.004 A 
ATOM     20  C   UNL     1       0.014  -2.061  -1.239  0.00  0.00    +0.012 A 
ATOM     21  C   UNL     1       0.036  -2.767  -0.037  0.00  0.00    +0.024 A 
ATOM     22  C   UNL     1       0.064  -4.191   0.316  0.00  0.00    +0.007 A 
ATOM     23  C   UNL     1       0.077  -4.244   1.654  0.00  0.00    +0.200 A 
ATOM     24  O   UNL     1       0.060  -3.002   2.167  0.00  0.00    -0.462 OA
ATOM     25  C   UNL     1       0.036  -2.077   1.186  0.00  0.00    +0.138 A 
ATOM     26  C   UNL     1       0.018  -0.688   1.182  0.00  0.00    -0.005 A 
ATOM     27  C   UNL     1       0.022   0.072   2.483  0.00  0.00    +0.048 C 
ENDBRANCH  16  22
ENDBRANCH  12  16
ENDBRANCH   1  14
BRANCH   9  28
ATOM     28  C   UNL     1       8.265  -7.940  -4.161  0.00  0.00    +0.284 C 
ATOM     29  O   UNL     1       8.680  -6.902  -3.678  0.00  0.00    -0.266 OA
ATOM     30  N   UNL     1       9.115  -8.777  -4.790  0.00  0.00    -0.279 N 
ATOM     31  H   UNL     1       8.799  -9.634  -5.116  0.00  0.00    +0.155 HD
BRANCH  30  32
ATOM     32  C   UNL     1      10.453  -8.409  -4.972  0.00  0.00    +0.037 A 
ATOM     33  C   UNL     1      11.126  -8.785  -6.127  0.00  0.00    +0.027 A 
ATOM     34  C   UNL     1      12.447  -8.423  -6.307  0.00  0.00    +0.051 A 
ATOM     35  C   UNL     1      13.105  -7.683  -5.336  0.00  0.00    +0.162 A 
ATOM     36  C   UNL     1      12.434  -7.303  -4.180  0.00  0.00    +0.164 A 
ATOM     37  C   UNL     1      11.107  -7.663  -4.001  0.00  0.00    +0.072 A 
ATOM     38  O   UNL     1      13.061  -6.570  -3.220  0.00  0.00    -0.485 OA
ATOM     39  C   UNL     1      14.491  -6.541  -3.263  0.00  0.00    +0.270 C 
ATOM     40  C   UNL     1      14.923  -6.282  -4.712  0.00  0.00    +0.270 C 
ATOM     41  O   UNL     1      14.409  -7.339  -5.529  0.00  0.00    -0.485 OA
ENDBRANCH  30  32
ENDBRANCH   9  28
TORSDOF 5
