REMARK  Name = ZINC17220568
REMARK  5 active torsions:
REMARK  status: ('A' for Active; 'I' for Inactive)
REMARK    1  A    between atoms: C_1  and  O_2
REMARK    2  A    between atoms: O_2  and  C_3
REMARK    3  A    between atoms: C_3  and  C_14
REMARK    4  A    between atoms: N_4  and  N_5
REMARK    5  A    between atoms: C_6  and  C_7
REMARK                            x       y       z     vdW  Elec       q    Type
REMARK                         _______ _______ _______ _____ _____    ______ ____
ROOT
ATOM      1  C   UNL     1       3.473   7.219   0.007  0.00  0.00    +0.241 C 
ATOM      2  N   UNL     1       3.496   5.906   0.002  0.00  0.00    -0.111 NA
ENDROOT
BRANCH   1   3
ATOM      3  C   UNL     1       4.734   7.978   0.109  0.00  0.00    +0.041 A 
ATOM      4  C   UNL     1       4.734   9.379   0.110  0.00  0.00    +0.033 A 
ATOM      5  C   UNL     1       5.936  10.048   0.211  0.00  0.00    +0.111 A 
ATOM      6  N   UNL     1       7.074   9.387   0.296  0.00  0.00    -0.263 NA
ATOM      7  C   UNL     1       7.121   8.069   0.294  0.00  0.00    +0.111 A 
ATOM      8  C   UNL     1       5.967   7.319   0.201  0.00  0.00    +0.033 A 
ENDBRANCH   1   3
BRANCH   1  10
ATOM      9  C   UNL     1       1.106   7.080  -0.068  0.00  0.00    +0.279 C 
ATOM     10  O   UNL     1       2.293   7.875  -0.081  0.00  0.00    -0.478 OA
ENDBRANCH   1  10
BRANCH   2  11
ATOM     11  N   UNL     1       2.391   5.242   0.043  0.00  0.00    -0.154 NA
ATOM     12  C   UNL     1       2.414   3.935   0.038  0.00  0.00    +0.145 C 
BRANCH  12  13
ATOM     13  C   UNL     1       1.154   3.178   0.084  0.00  0.00    +0.030 A 
ATOM     14  C   UNL     1       1.174   1.779   0.079  0.00  0.00    +0.012 A 
ATOM     15  C   UNL     1      -0.011   1.076   0.123  0.00  0.00    +0.001 A 
ATOM     16  C   UNL     1      -1.220   1.749   0.166  0.00  0.00    +0.003 A 
ATOM     17  C   UNL     1      -1.250   3.132   0.177  0.00  0.00    +0.039 A 
ATOM     18  C   UNL     1      -0.072   3.853   0.133  0.00  0.00    +0.132 A 
ATOM     19  F   UNL     1      -0.103   5.203   0.138  0.00  0.00    -0.205 F 
ENDBRANCH  12  13
ENDBRANCH   2  11
TORSDOF 4
