REMARK  Name = ZINC18043362
REMARK  3 active torsions:
REMARK  status: ('A' for Active; 'I' for Inactive)
REMARK    1  A    between atoms: N_12  and  N_13
REMARK    2  A    between atoms: N_13  and  C_14
REMARK    3  A    between atoms: C_19  and  O_20
REMARK                            x       y       z     vdW  Elec       q    Type
REMARK                         _______ _______ _______ _____ _____    ______ ____
ROOT
ATOM      1  C   UNL     1       0.015   1.294  -0.744  0.00  0.00    +0.001 A 
ATOM      2  C   UNL     1       1.197   2.022  -0.767  0.00  0.00    +0.001 A 
ATOM      3  C   UNL     1       2.406   1.401  -0.538  0.00  0.00    +0.011 A 
ATOM      4  C   UNL     1       2.439   0.031  -0.282  0.00  0.00    +0.013 A 
ATOM      5  C   UNL     1       1.236  -0.708  -0.258  0.00  0.00    -0.016 A 
ATOM      6  C   UNL     1       0.023  -0.049  -0.495  0.00  0.00    +0.008 A 
ATOM      7  C   UNL     1       1.268  -2.141   0.009  0.00  0.00    +0.012 C 
ATOM      8  C   UNL     1       2.430  -2.789   0.237  0.00  0.00    +0.054 C 
ATOM      9  C   UNL     1       3.670  -2.114   0.229  0.00  0.00    +0.206 C 
ATOM     10  O   UNL     1       4.704  -2.729   0.439  0.00  0.00    -0.286 OA
ATOM     11  C   UNL     1       3.711  -0.668  -0.033  0.00  0.00    +0.136 C 
ATOM     12  N   UNL     1       4.859  -0.013  -0.046  0.00  0.00    -0.178 NA
ENDROOT
BRANCH  12  13
ATOM     13  N   UNL     1       5.972  -0.660   0.036  0.00  0.00    -0.234 N 
ATOM     14  H   UNL     1       5.970  -1.630   0.031  0.00  0.00    +0.175 HD
BRANCH  13  15
ATOM     15  C   UNL     1       7.177   0.034   0.133  0.00  0.00    +0.090 A 
ATOM     16  C   UNL     1       7.181   1.424   0.146  0.00  0.00    +0.028 A 
ATOM     17  C   UNL     1       8.377   2.109   0.243  0.00  0.00    +0.002 A 
ATOM     18  C   UNL     1       9.571   1.415   0.326  0.00  0.00    +0.004 A 
ATOM     19  C   UNL     1       9.576   0.033   0.313  0.00  0.00    +0.047 A 
ATOM     20  C   UNL     1       8.382  -0.663   0.222  0.00  0.00    +0.139 A 
BRANCH  20  21
ATOM     21  O   UNL     1       8.384  -2.022   0.215  0.00  0.00    -0.505 OA
ATOM     22  H   UNL     1       8.453  -2.411  -0.668  0.00  0.00    +0.292 HD
ENDBRANCH  20  21
ENDBRANCH  13  15
ENDBRANCH  12  13
TORSDOF 3
