REMARK  Name = ZINC30882829
REMARK  11 active torsions:
REMARK  status: ('A' for Active; 'I' for Inactive)
REMARK    1  A    between atoms: C_1  and  C_2
REMARK    2  A    between atoms: C_4  and  C_26
REMARK    3  A    between atoms: C_6  and  C_23
REMARK    4  A    between atoms: C_9  and  C_11
REMARK    5  A    between atoms: C_11  and  C_12
REMARK    6  A    between atoms: C_15  and  C_17
REMARK    7  A    between atoms: C_23  and  C_24
REMARK    8  A    between atoms: C_23  and  C_25
REMARK    9  A    between atoms: C_26  and  N_27
REMARK   10  A    between atoms: N_27  and  C_28
REMARK   11  A    between atoms: C_28  and  C_29
REMARK                            x       y       z     vdW  Elec       q    Type
REMARK                         _______ _______ _______ _____ _____    ______ ____
ROOT
ATOM      1  C   UNL     1       0.651  -1.590  -3.351  0.00  0.00    +0.039 C 
ATOM      2  C   UNL     1       0.027  -1.280  -2.015  0.00  0.00    -0.073 C 
ATOM      3  C   UNL     1       0.391  -0.193  -1.413  0.00  0.00    -0.026 C 
ATOM      4  C   UNL     1      -0.133   0.244  -0.077  0.00  0.00    -0.002 C 
ATOM      5  C   UNL     1      -1.421  -0.512   0.257  0.00  0.00    -0.003 C 
ATOM      6  C   UNL     1      -1.176  -2.010   0.033  0.00  0.00    +0.012 C 
ATOM      7  C   UNL     1      -0.978  -2.249  -1.465  0.00  0.00    +0.024 C 
ENDROOT
BRANCH   5   8
ATOM      8  C   UNL     1      -1.798  -0.266   1.719  0.00  0.00    -0.014 C 
ATOM      9  C   UNL     1      -3.157  -0.904   2.010  0.00  0.00    +0.007 C 
ATOM     10  C   UNL     1      -0.737  -0.887   2.631  0.00  0.00    +0.007 C 
ENDBRANCH   5   8
BRANCH   7  11
ATOM     11  C   UNL     1      -2.312  -2.061  -2.189  0.00  0.00    +0.105 C 
BRANCH  11  12
ATOM     12  C   UNL     1      -2.148  -2.416  -3.645  0.00  0.00    +0.218 A 
ATOM     13  N   UNL     1      -2.321  -3.594  -4.175  0.00  0.00    -0.112 NA
ATOM     14  N   UNL     1      -2.097  -3.534  -5.440  0.00  0.00    -0.107 NA
ATOM     15  C   UNL     1      -1.770  -2.305  -5.764  0.00  0.00    +0.248 A 
ATOM     16  O   UNL     1      -1.803  -1.572  -4.633  0.00  0.00    -0.420 OA
BRANCH  15  17
ATOM     17  C   UNL     1      -1.436  -1.814  -7.118  0.00  0.00    +0.038 A 
ATOM     18  C   UNL     1      -1.111  -0.471  -7.316  0.00  0.00    +0.013 A 
ATOM     19  C   UNL     1      -0.793  -0.021  -8.581  0.00  0.00    +0.001 A 
ATOM     20  C   UNL     1      -0.809  -0.894  -9.653  0.00  0.00    +0.000 A 
ATOM     21  C   UNL     1      -1.136  -2.225  -9.465  0.00  0.00    +0.001 A 
ATOM     22  C   UNL     1      -1.449  -2.690  -8.204  0.00  0.00    +0.013 A 
ENDBRANCH  15  17
ENDBRANCH  11  12
ENDBRANCH   7  11
BRANCH   4  23
ATOM     23  C   UNL     1      -0.422   1.746  -0.112  0.00  0.00    -0.074 C 
BRANCH  23  24
ATOM     24  N   UNL     1       0.829   2.480  -0.350  0.00  0.00    +0.383 N 
ATOM     25  H   UNL     1       1.541   2.262   0.459  0.00  0.00    -0.085 HD
ATOM     26  H   UNL     1       1.260   2.167  -1.312  0.00  0.00    -0.085 HD
BRANCH  24  27
ATOM     27  C   UNL     1       0.590   3.929  -0.390  0.00  0.00    -0.026 C 
BRANCH  27  28
ATOM     28  C   UNL     1       1.892   4.646  -0.636  0.00  0.00    +0.024 A 
ATOM     29  C   UNL     1       2.245   4.999  -1.925  0.00  0.00    +0.021 A 
ATOM     30  C   UNL     1       3.445   5.659  -2.140  0.00  0.00    +0.003 A 
ATOM     31  C   UNL     1       4.248   5.941  -1.045  0.00  0.00    +0.020 A 
ATOM     32  C   UNL     1       3.830   5.556   0.214  0.00  0.00    +0.111 A 
ATOM     33  N   UNL     1       2.679   4.934   0.382  0.00  0.00    -0.262 NA
ENDBRANCH  27  28
ENDBRANCH  24  27
ENDBRANCH  23  24
ENDBRANCH   4  23
TORSDOF 8
