REMARK  Name = ZINC62564174
REMARK  5 active torsions:
REMARK  status: ('A' for Active; 'I' for Inactive)
REMARK    1  A    between atoms: C_1  and  C_2
REMARK    2  A    between atoms: C_7  and  C_16
REMARK    3  A    between atoms: C_16  and  C_17
REMARK    4  A    between atoms: C_16  and  C_18
REMARK    5  A    between atoms: C_16  and  C_19
REMARK                            x       y       z     vdW  Elec       q    Type
REMARK                         _______ _______ _______ _____ _____    ______ ____
ROOT
ATOM      1  C   UNL     1      -0.056   1.802  -0.033  0.00  0.00    +0.020 C 
ATOM      2  C   UNL     1       0.147   0.293   0.119  0.00  0.00    +0.110 C 
ATOM      3  C   UNL     1      -1.209  -0.382   0.320  0.00  0.00    +0.241 C 
ATOM      4  O   UNL     1      -1.677  -0.174   1.650  0.00  0.00    -0.489 OA
ATOM      5  C   UNL     1      -1.546   1.076   2.167  0.00  0.00    +0.145 A 
ATOM      6  C   UNL     1      -2.647   1.907   2.284  0.00  0.00    +0.003 A 
ATOM      7  C   UNL     1      -2.501   3.179   2.807  0.00  0.00    +0.023 A 
ATOM      8  C   UNL     1      -1.256   3.625   3.215  0.00  0.00    +0.020 A 
ATOM      9  C   UNL     1      -0.151   2.801   3.102  0.00  0.00    +0.042 A 
ATOM     10  C   UNL     1      -0.293   1.525   2.581  0.00  0.00    +0.077 A 
ATOM     11  N   UNL     1       0.814   0.672   2.470  0.00  0.00    -0.282 N 
ATOM     12  C   UNL     1       1.036   0.026   1.306  0.00  0.00    +0.223 C 
ATOM     13  O   UNL     1       1.951  -0.765   1.216  0.00  0.00    -0.275 OA
ATOM     14 BR   UNL     1      -1.066   5.366   3.927  0.00  0.00    -0.050 Br
ATOM     15  H   UNL     1       1.412   0.546   3.223  0.00  0.00    +0.155 HD
ENDROOT
BRANCH   6  16
ATOM     16  C   UNL     1      -4.005   1.426   1.840  0.00  0.00    -0.009 C 
ATOM     17  C   UNL     1      -5.045   2.516   2.108  0.00  0.00    +0.015 C 
ATOM     18  C   UNL     1      -3.971   1.110   0.344  0.00  0.00    +0.015 C 
ATOM     19  C   UNL     1      -4.378   0.163   2.620  0.00  0.00    +0.015 C 
ENDBRANCH   6  16
TORSDOF 1
