REMARK  Name = ZINC06251843
REMARK  3 active torsions:
REMARK  status: ('A' for Active; 'I' for Inactive)
REMARK    1  A    between atoms: C_4  and  N_25
REMARK    2  A    between atoms: C_5  and  N_7
REMARK    3  A    between atoms: C_8  and  C_10
REMARK                            x       y       z     vdW  Elec       q    Type
REMARK                         _______ _______ _______ _____ _____    ______ ____
ROOT
ATOM      1  N   UNL     1       3.476   4.051  -1.969  0.00  0.00    -0.283 N 
ATOM      2  C   UNL     1       3.030   3.181  -1.042  0.00  0.00    +0.220 C 
ATOM      3  O   UNL     1       3.730   2.891  -0.095  0.00  0.00    -0.275 OA
ATOM      4  H   UNL     1       2.881   4.244  -2.874  0.00  0.00    +0.155 HD
ENDROOT
BRANCH   2   5
ATOM      5  C   UNL     1       1.653   2.564  -1.182  0.00  0.00    +0.076 C 
ATOM      6  C   UNL     1       1.416   1.628  -0.002  0.00  0.00    +0.018 C 
ATOM      7  C   UNL     1      -0.017   1.099   0.016  0.00  0.00    +0.016 C 
ATOM      8  C   UNL     1      -0.706   1.586   1.300  0.00  0.00    +0.006 C 
ATOM      9  C   UNL     1      -0.758   3.113   1.310  0.00  0.00    +0.001 C 
ATOM     10  C   UNL     1      -1.500   3.636   0.081  0.00  0.00    +0.006 C 
ATOM     11  C   UNL     1      -0.805   3.135  -1.195  0.00  0.00    +0.016 C 
ATOM     12  C   UNL     1       0.620   3.684  -1.225  0.00  0.00    +0.018 C 
ATOM     13  C   UNL     1      -0.798   1.618  -1.177  0.00  0.00    +0.068 C 
ATOM     14  S   UNL     1      -2.519   0.982  -1.127  0.00  0.00    -0.142 S 
ATOM     15  C   UNL     1      -2.865   0.633  -2.896  0.00  0.00    +0.081 C 
ATOM     16  C   UNL     1      -1.569  -0.022  -3.438  0.00  0.00    +0.081 C 
ATOM     17  S   UNL     1      -0.169   0.928  -2.744  0.00  0.00    -0.142 S 
ENDBRANCH   2   5
BRANCH   1  22
ATOM     18  C   UNL     1       6.400   5.548  -0.316  0.00  0.00    +0.002 A 
ATOM     19  C   UNL     1       7.110   6.010  -1.409  0.00  0.00    +0.002 A 
ATOM     20  C   UNL     1       6.617   5.824  -2.687  0.00  0.00    +0.034 A 
ATOM     21  C   UNL     1       5.412   5.174  -2.876  0.00  0.00    +0.147 A 
ATOM     22  C   UNL     1       4.697   4.708  -1.781  0.00  0.00    +0.064 A 
ATOM     23  C   UNL     1       5.192   4.902  -0.498  0.00  0.00    +0.025 A 
BRANCH  21  24
ATOM     24  N   UNL     1       4.884   4.976  -4.245  0.00  0.00    +0.058 N 
ATOM     25  O   UNL     1       5.553   5.303  -5.209  0.00  0.00    -0.126 OA
ATOM     26  O   UNL     1       3.781   4.485  -4.407  0.00  0.00    -0.126 OA
ENDBRANCH  21  24
ENDBRANCH   1  22
TORSDOF 3
