REMARK  Name = ZINC33724027
REMARK  8 active torsions:
REMARK  status: ('A' for Active; 'I' for Inactive)
REMARK    1  A    between atoms: C_1  and  C_2
REMARK    2  A    between atoms: C_3  and  C_31
REMARK    3  A    between atoms: C_4  and  C_22
REMARK    4  A    between atoms: C_7  and  N_21
REMARK    5  A    between atoms: C_8  and  C_12
REMARK    6  A    between atoms: C_12  and  C_14
REMARK    7  A    between atoms: C_27  and  N_28
REMARK    8  A    between atoms: C_31  and  C_33
REMARK                            x       y       z     vdW  Elec       q    Type
REMARK                         _______ _______ _______ _____ _____    ______ ____
ROOT
ATOM      1  C   UNL     1       3.856   2.285   5.236  0.00  0.00    +0.061 C 
ATOM      2  C   UNL     1       3.782   2.128   3.739  0.00  0.00    +0.013 C 
ATOM      3  C   UNL     1       2.980   2.947   3.035  0.00  0.00    +0.023 C 
ATOM      4  C   UNL     1       2.794   2.889   1.547  0.00  0.00    +0.090 C 
ATOM      5  C   UNL     1       3.870   2.003   0.932  0.00  0.00    +0.014 A 
ATOM      6  C   UNL     1       4.140   1.925  -0.421  0.00  0.00    +0.049 A 
ATOM      7  C   UNL     1       5.153   1.068  -0.864  0.00  0.00    +0.082 A 
ATOM      8  S   UNL     1       5.739   0.358   0.667  0.00  0.00    -0.068 S 
ATOM      9  C   UNL     1       4.647   1.209   1.767  0.00  0.00    +0.076 A 
ATOM     10  N   UNL     1       4.534   1.153   3.133  0.00  0.00    -0.312 N 
ATOM     11  H   UNL     1       5.014   0.372   3.740  0.00  0.00    +0.152 HD
ENDROOT
BRANCH   4  12
ATOM     12  C   UNL     1       1.435   2.320   1.233  0.00  0.00    -0.005 A 
ATOM     13  C   UNL     1       1.268   0.953   1.119  0.00  0.00    +0.007 A 
ATOM     14  C   UNL     1       0.021   0.430   0.831  0.00  0.00    +0.000 A 
ATOM     15  C   UNL     1      -1.058   1.276   0.652  0.00  0.00    +0.002 A 
ATOM     16  C   UNL     1      -0.892   2.643   0.770  0.00  0.00    +0.033 A 
ATOM     17  C   UNL     1       0.355   3.165   1.058  0.00  0.00    +0.130 A 
BRANCH  17  18
ATOM     18  N   UNL     1       0.534   4.630   1.181  0.00  0.00    +0.057 N 
ATOM     19  O   UNL     1      -0.325   5.305   1.718  0.00  0.00    -0.126 OA
ATOM     20  O   UNL     1       1.540   5.159   0.744  0.00  0.00    -0.126 OA
ENDBRANCH  17  18
ENDBRANCH   4  12
BRANCH   6  21
ATOM     21  N   UNL     1       3.414   2.687  -1.330  0.00  0.00    -0.357 N 
ATOM     22  H   UNL     1       3.635   2.618  -2.405  0.00  0.00    +0.142 HD
ATOM     23  H   UNL     1       2.619   3.358  -0.973  0.00  0.00    +0.142 HD
ENDBRANCH   6  21
BRANCH   3  24
ATOM     24  C   UNL     1       2.266   3.925   3.743  0.00  0.00    +0.159 C 
ATOM     25  O   UNL     1       1.272   3.616   4.371  0.00  0.00    -0.293 OA
ATOM     26  C   UNL     1       2.731   5.358   3.725  0.00  0.00    +0.091 C 
ENDBRANCH   3  24
BRANCH   7  27
ATOM     27  C   UNL     1       5.597   0.828  -2.178  0.00  0.00    +0.202 C 
ATOM     28  O   UNL     1       4.992   1.306  -3.123  0.00  0.00    -0.286 OA
BRANCH  27  29
ATOM     29  C   UNL     1       6.797  -0.005  -2.413  0.00  0.00    +0.023 A 
ATOM     30  C   UNL     1       7.842  -0.005  -1.488  0.00  0.00    +0.013 A 
ATOM     31  C   UNL     1       8.955  -0.788  -1.709  0.00  0.00    +0.016 A 
ATOM     32  C   UNL     1       9.043  -1.564  -2.853  0.00  0.00    +0.018 A 
ATOM     33  C   UNL     1       8.012  -1.564  -3.777  0.00  0.00    +0.016 A 
ATOM     34  C   UNL     1       6.891  -0.790  -3.564  0.00  0.00    +0.013 A 
ATOM     35 BR   UNL     1      10.577  -2.629  -3.153  0.00  0.00    -0.050 Br
ENDBRANCH  27  29
ENDBRANCH   7  27
TORSDOF 6
