REMARK  Name = ZINC18956407
REMARK  6 active torsions:
REMARK  status: ('A' for Active; 'I' for Inactive)
REMARK    1  A    between atoms: C_5  and  N_7
REMARK    2  A    between atoms: N_12  and  C_15
REMARK    3  A    between atoms: C_15  and  C_16
REMARK    4  A    between atoms: N_18  and  C_19
REMARK    5  A    between atoms: C_19  and  C_21
REMARK    6  A    between atoms: C_19  and  C_28
REMARK                            x       y       z     vdW  Elec       q    Type
REMARK                         _______ _______ _______ _____ _____    ______ ____
ROOT
ATOM      1  C   UNL     1       4.464   1.038   1.413  0.00  0.00    +0.232 C 
ATOM      2  O   UNL     1       4.596  -0.143   1.173  0.00  0.00    -0.274 OA
ATOM      3  N   UNL     1       3.442   1.726   0.866  0.00  0.00    -0.303 N 
ATOM      4  H   UNL     1       3.336   2.671   1.058  0.00  0.00    +0.150 HD
ENDROOT
BRANCH   1   5
ATOM      5  C   UNL     1       5.443   1.737   2.320  0.00  0.00    +0.212 C 
BRANCH   5  14
ATOM      6  C   UNL     1      10.001  -2.059   3.674  0.00  0.00    +0.003 A 
ATOM      7  C   UNL     1       9.580  -1.120   2.744  0.00  0.00    +0.014 A 
ATOM      8  C   UNL     1       8.358  -0.489   2.910  0.00  0.00    +0.052 A 
ATOM      9  C   UNL     1       7.551  -0.805   4.022  0.00  0.00    +0.080 A 
ATOM     10  C   UNL     1       7.985  -1.744   4.943  0.00  0.00    +0.139 A 
ATOM     11  C   UNL     1       9.210  -2.368   4.764  0.00  0.00    +0.033 A 
ATOM     12  C   UNL     1       6.343   0.038   3.898  0.00  0.00    +0.256 C 
ATOM     13  O   UNL     1       5.409   0.056   4.673  0.00  0.00    -0.269 OA
ATOM     14  N   UNL     1       6.452   0.780   2.780  0.00  0.00    -0.225 N 
ATOM     15  C   UNL     1       7.611   0.531   2.144  0.00  0.00    +0.254 C 
ATOM     16  O   UNL     1       7.980   1.055   1.113  0.00  0.00    -0.270 OA
BRANCH  10  17
ATOM     17  N   UNL     1       7.144  -2.081   6.114  0.00  0.00    +0.057 N 
ATOM     18  O   UNL     1       7.527  -2.907   6.922  0.00  0.00    -0.126 OA
ATOM     19  O   UNL     1       6.068  -1.531   6.269  0.00  0.00    -0.126 OA
ENDBRANCH  10  17
ENDBRANCH   5  14
ENDBRANCH   1   5
BRANCH   3  20
ATOM     20  C   UNL     1       2.490   1.046  -0.016  0.00  0.00    +0.140 C 
BRANCH  20  21
ATOM     21  C   UNL     1       1.175   1.783   0.000  0.00  0.00    -0.022 A 
ATOM     22  C   UNL     1      -0.013   1.076   0.008  0.00  0.00    +0.008 A 
ATOM     23  C   UNL     1      -1.219   1.750   0.017  0.00  0.00    +0.038 A 
ATOM     24  C   UNL     1      -1.237   3.135   0.029  0.00  0.00    +0.123 A 
ATOM     25  C   UNL     1      -0.047   3.842   0.022  0.00  0.00    +0.038 A 
ATOM     26  C   UNL     1       1.158   3.165   0.007  0.00  0.00    +0.008 A 
ATOM     27  F   UNL     1      -2.416   3.795   0.043  0.00  0.00    -0.205 F 
ENDBRANCH  20  21
BRANCH  20  28
ATOM     28  C   UNL     1       3.035   1.024  -1.421  0.00  0.00    +0.014 A 
ATOM     29  C   UNL     1       2.994   0.025  -2.336  0.00  0.00    +0.013 A 
ATOM     30  C   UNL     1       3.563   0.231  -3.579  0.00  0.00    +0.008 A 
ATOM     31  C   UNL     1       4.156   1.422  -3.841  0.00  0.00    +0.045 A 
ATOM     32  S   UNL     1       3.910   2.302  -2.308  0.00  0.00    -0.099 S 
ENDBRANCH  20  28
ENDBRANCH   3  20
TORSDOF 6
