REMARK  Name = ZINC63491418
REMARK  13 active torsions:
REMARK  status: ('A' for Active; 'I' for Inactive)
REMARK    1  A    between atoms: C_1  and  C_2
REMARK    2  A    between atoms: C_4  and  C_37
REMARK    3  A    between atoms: C_9  and  N_23
REMARK    4  A    between atoms: N_10  and  C_11
REMARK    5  A    between atoms: C_11  and  C_13
REMARK    6  A    between atoms: C_14  and  C_15
REMARK    7  A    between atoms: C_20  and  O_21
REMARK    8  A    between atoms: O_21  and  C_22
REMARK    9  A    between atoms: N_23  and  C_24
REMARK   10  A    between atoms: C_24  and  C_25
REMARK   11  A    between atoms: C_25  and  C_26
REMARK   12  A    between atoms: C_29  and  O_35
REMARK   13  A    between atoms: O_35  and  C_36
REMARK                            x       y       z     vdW  Elec       q    Type
REMARK                         _______ _______ _______ _____ _____    ______ ____
ROOT
ATOM      1  C   UNL     1      -0.502  -6.725   5.038  0.00  0.00    +0.066 C 
ATOM      2  C   UNL     1      -0.508  -6.037   3.697  0.00  0.00    +0.044 A 
ATOM      3  C   UNL     1      -0.510  -6.781   2.528  0.00  0.00    +0.046 A 
ATOM      4  C   UNL     1      -0.515  -6.109   1.315  0.00  0.00    +0.044 A 
ATOM      5  N   UNL     1      -0.518  -4.787   1.311  0.00  0.00    -0.217 NA
ATOM      6  C   UNL     1      -0.516  -4.106   2.447  0.00  0.00    +0.231 A 
ATOM      7  N   UNL     1      -0.517  -4.717   3.622  0.00  0.00    -0.217 NA
ATOM      8  N   UNL     1      -0.519  -2.718   2.405  0.00  0.00    -0.295 N 
ATOM      9  C   UNL     1      -0.407  -1.998   3.563  0.00  0.00    +0.218 C 
ATOM     10  N   UNL     1      -0.190  -2.620   4.710  0.00  0.00    -0.142 NA
ATOM     11  C   UNL     1      -0.517  -6.877   0.018  0.00  0.00    +0.066 C 
ATOM     12  H   UNL     1      -0.601  -2.259   1.554  0.00  0.00    +0.172 HD
ENDROOT
BRANCH  10  13
ATOM     13  C   UNL     1      -0.080  -1.913   5.847  0.00  0.00    +0.263 C 
ATOM     14  O   UNL     1      -0.181  -0.698   5.822  0.00  0.00    -0.269 OA
BRANCH  13  15
ATOM     15  C   UNL     1       0.162  -2.603   7.119  0.00  0.00    +0.070 C 
ATOM     16  C   UNL     1       0.272  -1.894   8.260  0.00  0.00    +0.016 C 
BRANCH  16  17
ATOM     17  C   UNL     1       0.514  -2.585   9.535  0.00  0.00    +0.017 A 
ATOM     18  C   UNL     1       0.636  -3.978   9.568  0.00  0.00    +0.011 A 
ATOM     19  C   UNL     1       0.863  -4.620  10.766  0.00  0.00    +0.001 A 
ATOM     20  C   UNL     1       0.971  -3.891  11.939  0.00  0.00    +0.004 A 
ATOM     21  C   UNL     1       0.853  -2.515  11.922  0.00  0.00    +0.046 A 
ATOM     22  C   UNL     1       0.629  -1.851  10.726  0.00  0.00    +0.127 A 
BRANCH  22  23
ATOM     23  O   UNL     1       0.518  -0.499  10.706  0.00  0.00    -0.495 OA
ATOM     24  C   UNL     1       0.647   0.180  11.957  0.00  0.00    +0.277 C 
ENDBRANCH  22  23
ENDBRANCH  16  17
ENDBRANCH  13  15
ENDBRANCH  10  13
BRANCH   9  25
ATOM     25  N   UNL     1      -0.520  -0.639   3.535  0.00  0.00    -0.252 NA
BRANCH  25  26
ATOM     26  C   UNL     1      -0.650   0.059   2.254  0.00  0.00    +0.149 C 
BRANCH  26  27
ATOM     27  C   UNL     1      -0.634   1.571   2.493  0.00  0.00    +0.056 C 
BRANCH  27  28
ATOM     28  C   UNL     1      -0.890   2.287   1.192  0.00  0.00    -0.040 C 
ATOM     29  C   UNL     1      -2.080   2.733   0.729  0.00  0.00    +0.002 A 
ATOM     30  C   UNL     1      -3.441   2.686   1.275  0.00  0.00    +0.055 A 
ATOM     31  C   UNL     1      -4.462   3.228   0.568  0.00  0.00    +0.121 A 
ATOM     32  C   UNL     1      -4.267   3.840  -0.682  0.00  0.00    +0.047 A 
ATOM     33  C   UNL     1      -3.053   3.931  -1.266  0.00  0.00    +0.029 A 
ATOM     34  C   UNL     1      -1.876   3.378  -0.588  0.00  0.00    +0.043 A 
ATOM     35  N   UNL     1      -0.612   3.333  -0.926  0.00  0.00    -0.380 N 
ATOM     36  C   UNL     1       0.134   2.659   0.143  0.00  0.00    +0.144 C 
ATOM     37  H   UNL     1      -0.231   3.690  -1.744  0.00  0.00    +0.160 HD
BRANCH  31  38
ATOM     38  O   UNL     1      -5.717   3.177   1.086  0.00  0.00    -0.495 OA
ATOM     39  C   UNL     1      -6.764   3.760   0.308  0.00  0.00    +0.277 C 
ENDBRANCH  31  38
ENDBRANCH  27  28
ENDBRANCH  26  27
ENDBRANCH  25  26
ENDBRANCH   9  25
TORSDOF 9
