REMARK  Name = ZINC13064513
REMARK  17 active torsions:
REMARK  status: ('A' for Active; 'I' for Inactive)
REMARK    1  A    between atoms: C_1  and  C_2
REMARK    2  A    between atoms: C_2  and  C_3
REMARK    3  A    between atoms: C_3  and  C_5
REMARK    4  A    between atoms: C_3  and  N_71
REMARK    5  A    between atoms: N_9  and  C_10
REMARK    6  A    between atoms: C_10  and  C_11
REMARK    7  A    between atoms: C_11  and  O_12
REMARK    8  A    between atoms: O_12  and  C_13
REMARK    9  A    between atoms: C_14  and  C_15
REMARK   10  A    between atoms: C_14  and  N_71
REMARK   11  A    between atoms: C_18  and  C_21
REMARK   12  A    between atoms: C_22  and  C_23
REMARK   13  A    between atoms: C_22  and  N_71
REMARK   14  A    between atoms: C_27  and  O_37
REMARK   15  A    between atoms: C_28  and  O_35
REMARK   16  A    between atoms: O_35  and  C_36
REMARK   17  A    between atoms: O_37  and  C_38
REMARK                            x       y       z     vdW  Elec       q    Type
REMARK                         _______ _______ _______ _____ _____    ______ ____
ROOT
ATOM      1  N   UNL     1      -5.496   3.703  -0.928  0.00  0.00    +0.392 N 
ATOM      2  H   UNL     1      -5.558   2.768  -1.348  0.00  0.00    -0.080 HD
ENDROOT
BRANCH   1   3
ATOM      3  C   UNL     1      -6.829   4.339  -0.973  0.00  0.00    +0.003 C 
BRANCH   3   4
ATOM      4  C   UNL     1      -6.832   5.617  -0.173  0.00  0.00    +0.138 A 
ATOM      5  N   UNL     1      -6.314   5.796   1.017  0.00  0.00    -0.115 NA
ATOM      6  N   UNL     1      -6.520   7.021   1.361  0.00  0.00    -0.023 NA
ATOM      7  N   UNL     1      -7.157   7.627   0.421  0.00  0.00    -0.044 NA
ATOM      8  N   UNL     1      -7.364   6.796  -0.545  0.00  0.00    -0.229 N 
BRANCH   8   9
ATOM      9  C   UNL     1      -8.050   7.082  -1.807  0.00  0.00    +0.175 C 
BRANCH   9  10
ATOM     10  C   UNL     1      -9.556   6.883  -1.625  0.00  0.00    +0.183 C 
BRANCH  10  11
ATOM     11  O   UNL     1     -10.226   7.162  -2.856  0.00  0.00    -0.381 OA
ATOM     12  C   UNL     1     -11.645   7.005  -2.794  0.00  0.00    +0.194 C 
ENDBRANCH  10  11
ENDBRANCH   9  10
ENDBRANCH   8   9
ENDBRANCH   3   4
BRANCH   3  14
ATOM     13  C   UNL     1      -7.958   2.133  -1.284  0.00  0.00    +0.002 C 
ATOM     14  C   UNL     1      -7.858   3.369  -0.389  0.00  0.00    -0.011 C 
ENDBRANCH   3  14
ENDBRANCH   1   3
BRANCH   1  15
ATOM     15  C   UNL     1      -4.524   4.511  -1.695  0.00  0.00    -0.042 C 
BRANCH  15  16
ATOM     16  C   UNL     1      -4.792   4.321  -3.166  0.00  0.00    -0.064 A 
ATOM     17  C   UNL     1      -4.247   3.239  -3.833  0.00  0.00    +0.002 A 
ATOM     18  C   UNL     1      -4.496   3.062  -5.181  0.00  0.00    +0.003 A 
ATOM     19  C   UNL     1      -5.282   3.972  -5.864  0.00  0.00    -0.050 A 
ATOM     20  C   UNL     1      -5.822   5.056  -5.198  0.00  0.00    +0.003 A 
ATOM     21  C   UNL     1      -5.577   5.231  -3.849  0.00  0.00    +0.002 A 
ATOM     22  C   UNL     1      -5.549   3.781  -7.335  0.00  0.00    +0.044 C 
ENDBRANCH  15  16
ENDBRANCH   1  15
BRANCH   1  23
ATOM     23  C   UNL     1      -5.046   3.571   0.474  0.00  0.00    -0.036 C 
BRANCH  23  24
ATOM     24  C   UNL     1      -3.910   2.583   0.526  0.00  0.00    +0.001 A 
ATOM     25  C   UNL     1      -2.627   3.027   0.515  0.00  0.00    +0.017 A 
ATOM     26  C   UNL     1      -1.546   2.043   0.561  0.00  0.00    +0.002 A 
ATOM     27  C   UNL     1      -0.204   2.443   0.535  0.00  0.00    +0.059 A 
ATOM     28  C   UNL     1       0.792   1.492   0.580  0.00  0.00    +0.162 A 
ATOM     29  C   UNL     1       0.467   0.134   0.651  0.00  0.00    +0.163 A 
ATOM     30  C   UNL     1      -0.855  -0.272   0.677  0.00  0.00    +0.075 A 
ATOM     31  C   UNL     1      -1.871   0.674   0.627  0.00  0.00    +0.053 A 
ATOM     32  N   UNL     1      -3.196   0.289   0.646  0.00  0.00    -0.322 N 
ATOM     33  H   UNL     1      -3.420  -0.653   0.695  0.00  0.00    +0.169 HD
ATOM     34  C   UNL     1      -4.183   1.202   0.598  0.00  0.00    +0.251 A 
ATOM     35  O   UNL     1      -5.342   0.826   0.616  0.00  0.00    -0.268 OA
BRANCH  29  36
ATOM     36  O   UNL     1       1.457  -0.795   0.694  0.00  0.00    -0.491 OA
ATOM     37  C   UNL     1       1.059  -2.165   0.765  0.00  0.00    +0.277 C 
ENDBRANCH  29  36
BRANCH  28  38
ATOM     38  O   UNL     1       2.096   1.876   0.555  0.00  0.00    -0.491 OA
ATOM     39  C   UNL     1       2.359   3.279   0.483  0.00  0.00    +0.277 C 
ENDBRANCH  28  38
ENDBRANCH  23  24
ENDBRANCH   1  23
TORSDOF 12
