REMARK  Name = ZINC01172707
REMARK  5 active torsions:
REMARK  status: ('A' for Active; 'I' for Inactive)
REMARK    1  A    between atoms: C_1  and  C_2
REMARK    2  A    between atoms: C_6  and  N_9
REMARK    3  A    between atoms: C_7  and  C_8
REMARK    4  A    between atoms: C_13  and  C_14
REMARK    5  A    between atoms: C_17  and  C_19
REMARK                            x       y       z     vdW  Elec       q    Type
REMARK                         _______ _______ _______ _____ _____    ______ ____
ROOT
ATOM      1  N   UNL     1       1.220   2.948   0.173  0.00  0.00    -0.190 N 
ATOM      2  C   UNL     1       0.112   3.712   0.262  0.00  0.00    +0.264 C 
ATOM      3  O   UNL     1       0.186   4.886   0.574  0.00  0.00    -0.269 OA
ATOM      4  C   UNL     1      -1.189   3.087  -0.027  0.00  0.00    +0.103 C 
ATOM      5  C   UNL     1      -2.376   3.813   0.045  0.00  0.00    +0.064 C 
ATOM      6  C   UNL     1      -1.181   1.663  -0.401  0.00  0.00    +0.257 C 
ATOM      7  O   UNL     1      -2.217   1.079  -0.658  0.00  0.00    -0.270 OA
ATOM      8  N   UNL     1       0.004   1.021  -0.445  0.00  0.00    -0.235 N 
ATOM      9  C   UNL     1       1.154   1.653  -0.168  0.00  0.00    +0.320 C 
ATOM     10  O   UNL     1       2.189   1.020  -0.230  0.00  0.00    -0.251 OA
ATOM     11  H   UNL     1       0.026   0.082  -0.686  0.00  0.00    +0.159 HD
ENDROOT
BRANCH   1  17
ATOM     12  C   UNL     1       4.760   4.055   3.404  0.00  0.00    +0.044 C 
ATOM     13  C   UNL     1       4.209   4.071   2.001  0.00  0.00    -0.046 A 
ATOM     14  C   UNL     1       4.938   4.653   0.980  0.00  0.00    +0.004 A 
ATOM     15  C   UNL     1       4.436   4.669  -0.309  0.00  0.00    +0.002 A 
ATOM     16  C   UNL     1       3.207   4.100  -0.580  0.00  0.00    +0.024 A 
ATOM     17  C   UNL     1       2.470   3.521   0.444  0.00  0.00    +0.049 A 
ATOM     18  C   UNL     1       2.977   3.506   1.737  0.00  0.00    -0.026 A 
ATOM     19  C   UNL     1       2.183   2.873   2.851  0.00  0.00    +0.046 C 
ENDBRANCH   1  17
BRANCH   5  20
ATOM     20  C   UNL     1      -3.607   3.153  -0.053  0.00  0.00    +0.129 A 
ATOM     21  C   UNL     1      -4.739   3.630  -0.704  0.00  0.00    +0.050 A 
ATOM     22  C   UNL     1      -5.727   2.662  -0.554  0.00  0.00    +0.050 A 
ATOM     23  C   UNL     1      -5.175   1.629   0.178  0.00  0.00    +0.136 A 
ATOM     24  O   UNL     1      -3.900   1.940   0.465  0.00  0.00    -0.455 OA
BRANCH  23  25
ATOM     25  C   UNL     1      -5.868   0.389   0.574  0.00  0.00    +0.017 A 
ATOM     26  C   UNL     1      -7.202   0.184   0.210  0.00  0.00    +0.014 A 
ATOM     27  C   UNL     1      -7.843  -0.979   0.579  0.00  0.00    +0.039 A 
ATOM     28  C   UNL     1      -7.170  -1.941   1.318  0.00  0.00    +0.123 A 
ATOM     29  C   UNL     1      -5.848  -1.741   1.685  0.00  0.00    +0.039 A 
ATOM     30  C   UNL     1      -5.195  -0.584   1.318  0.00  0.00    +0.014 A 
ATOM     31  F   UNL     1      -7.804  -3.077   1.680  0.00  0.00    -0.205 F 
ENDBRANCH  23  25
ENDBRANCH   5  20
TORSDOF 3
