REMARK  Name = ZINC22917942
REMARK  10 active torsions:
REMARK  status: ('A' for Active; 'I' for Inactive)
REMARK    1  A    between atoms: C_2  and  C_3
REMARK    2  A    between atoms: C_3  and  O_9
REMARK    3  A    between atoms: O_9  and  C_10
REMARK    4  A    between atoms: C_10  and  C_11
REMARK    5  A    between atoms: C_11  and  C_13
REMARK    6  A    between atoms: C_11  and  O_37
REMARK    7  A    between atoms: C_13  and  N_14
REMARK    8  A    between atoms: N_17  and  C_20
REMARK    9  A    between atoms: C_20  and  C_21
REMARK   10  A    between atoms: C_21  and  N_22
REMARK                            x       y       z     vdW  Elec       q    Type
REMARK                         _______ _______ _______ _____ _____    ______ ____
ROOT
ATOM      1  N   UNL     1       5.739   2.146   2.027  0.00  0.00    -0.303 NA
ATOM      2  C   UNL     1       6.411   1.668   0.810  0.00  0.00    +0.066 C 
ATOM      3  C   UNL     1       7.782   2.336   0.692  0.00  0.00    -0.063 C 
ATOM      4  N   UNL     1       8.580   2.026   1.886  0.00  0.00    +0.382 N 
ATOM      5  C   UNL     1       7.909   2.504   3.103  0.00  0.00    -0.063 C 
ATOM      6  C   UNL     1       6.537   1.836   3.222  0.00  0.00    +0.066 C 
ATOM      7  H   UNL     1       8.675   0.933   1.958  0.00  0.00    -0.082 HD
ENDROOT
BRANCH   1   8
ATOM      8  C   UNL     1       4.387   1.584   2.138  0.00  0.00    +0.117 C 
BRANCH   8   9
ATOM      9  C   UNL     1       3.514   2.130   1.006  0.00  0.00    +0.154 C 
BRANCH   9  10
ATOM     10  O   UNL     1       3.447   3.555   1.101  0.00  0.00    -0.388 OA
ATOM     11  H   UNL     1       4.368   4.154   1.039  0.00  0.00    +0.210 HD
ENDBRANCH   9  10
BRANCH   9  12
ATOM     12  C   UNL     1       2.105   1.545   1.121  0.00  0.00    +0.194 C 
BRANCH  12  13
ATOM     13  O   UNL     1       1.323   1.962   0.000  0.00  0.00    -0.358 OA
BRANCH  13  14
ATOM     14  C   UNL     1      -0.018   1.468   0.010  0.00  0.00    +0.129 C 
ATOM     15  C   UNL     1      -0.734   1.961   1.269  0.00  0.00    +0.048 C 
ATOM     16  C   UNL     1      -2.169   1.432   1.280  0.00  0.00    +0.004 C 
ATOM     17  C   UNL     1      -2.909   1.938   0.040  0.00  0.00    +0.000 C 
ATOM     18  C   UNL     1      -2.193   1.445  -1.219  0.00  0.00    +0.004 C 
ATOM     19  C   UNL     1      -0.758   1.975  -1.229  0.00  0.00    +0.048 C 
BRANCH  14  21
ATOM     20  C   UNL     1       0.018  -1.178  -0.004  0.00  0.00    +0.007 C 
ATOM     21  C   UNL     1       0.002  -0.004   0.002  0.00  0.00    -0.071 C 
ENDBRANCH  14  21
ENDBRANCH  13  14
ENDBRANCH  12  13
ENDBRANCH   9  12
ENDBRANCH   8   9
ENDBRANCH   1   8
BRANCH   4  22
ATOM     22  C   UNL     1       9.933   2.588   1.776  0.00  0.00    -0.059 C 
BRANCH  22  23
ATOM     23  C   UNL     1      10.504   2.275   0.391  0.00  0.00    +0.098 C 
BRANCH  23  24
ATOM     24  N   UNL     1      11.853   2.835   0.281  0.00  0.00    -0.236 N 
ATOM     25  C   UNL     1      11.998   4.089  -0.187  0.00  0.00    +0.254 C 
ATOM     26  O   UNL     1      11.017   4.732  -0.509  0.00  0.00    -0.270 OA
ATOM     27  C   UNL     1      13.336   4.688  -0.308  0.00  0.00    +0.046 A 
ATOM     28  C   UNL     1      13.531   5.977  -0.781  0.00  0.00    +0.014 A 
ATOM     29  C   UNL     1      14.816   6.497  -0.881  0.00  0.00    +0.001 A 
ATOM     30  C   UNL     1      15.913   5.767  -0.523  0.00  0.00    +0.008 A 
ATOM     31  C   UNL     1      15.759   4.457  -0.038  0.00  0.00    -0.016 A 
ATOM     32  C   UNL     1      14.460   3.918   0.068  0.00  0.00    +0.006 A 
ATOM     33  C   UNL     1      14.272   2.603   0.551  0.00  0.00    +0.046 A 
ATOM     34  C   UNL     1      15.381   1.855   0.917  0.00  0.00    +0.014 A 
ATOM     35  C   UNL     1      16.656   2.397   0.808  0.00  0.00    +0.001 A 
ATOM     36  C   UNL     1      16.857   3.666   0.344  0.00  0.00    +0.008 A 
ATOM     37  C   UNL     1      12.903   2.075   0.647  0.00  0.00    +0.254 C 
ATOM     38  O   UNL     1      12.717   0.946   1.060  0.00  0.00    -0.270 OA
ENDBRANCH  23  24
ENDBRANCH  22  23
ENDBRANCH   4  22
TORSDOF 10
