REMARK  Name = ZINC24090708
REMARK  6 active torsions:
REMARK  status: ('A' for Active; 'I' for Inactive)
REMARK    1  A    between atoms: C_1  and  C_2
REMARK    2  A    between atoms: C_2  and  C_4
REMARK    3  A    between atoms: C_2  and  S_11
REMARK    4  A    between atoms: S_11  and  C_12
REMARK    5  A    between atoms: C_15  and  C_23
REMARK    6  A    between atoms: C_23  and  N_24
REMARK                            x       y       z     vdW  Elec       q    Type
REMARK                         _______ _______ _______ _____ _____    ______ ____
ROOT
ATOM      1  C   UNL     1      -2.211  -0.167  -1.623  0.00  0.00    +0.198 A 
ATOM      2  N   UNL     1      -1.529   0.586  -2.456  0.00  0.00    -0.122 NA
ATOM      3  N   UNL     1      -2.293   0.993  -3.405  0.00  0.00    -0.131 NA
ATOM      4  C   UNL     1      -3.502   0.538  -3.235  0.00  0.00    +0.157 A 
ATOM      5  N   UNL     1      -3.496  -0.219  -2.092  0.00  0.00    -0.257 N 
ATOM      6  C   UNL     1      -4.576  -0.901  -1.524  0.00  0.00    +0.141 A 
ATOM      7  C   UNL     1      -4.835  -0.769  -0.165  0.00  0.00    +0.047 A 
ATOM      8  C   UNL     1      -5.907  -1.450   0.385  0.00  0.00    +0.005 A 
ATOM      9  C   UNL     1      -6.687  -2.241  -0.448  0.00  0.00    +0.020 A 
ATOM     10  C   UNL     1      -6.371  -2.326  -1.790  0.00  0.00    +0.113 A 
ATOM     11  N   UNL     1      -5.345  -1.661  -2.286  0.00  0.00    -0.237 NA
ENDROOT
BRANCH   1  12
ATOM     12  S   UNL     1      -1.591  -0.954  -0.174  0.00  0.00    -0.078 S 
BRANCH  12  14
ATOM     13  C   UNL     1       0.209   1.098  -0.069  0.00  0.00    +0.024 C 
ATOM     14  C   UNL     1       0.137  -0.420  -0.241  0.00  0.00    +0.082 C 
BRANCH  14  15
ATOM     15  C   UNL     1       0.912  -1.088   0.866  0.00  0.00    -0.016 A 
ATOM     16  C   UNL     1       0.260  -1.512   2.008  0.00  0.00    +0.006 A 
ATOM     17  C   UNL     1       0.970  -2.129   3.021  0.00  0.00    +0.000 A 
ATOM     18  C   UNL     1       2.335  -2.313   2.897  0.00  0.00    +0.001 A 
ATOM     19  C   UNL     1       2.989  -1.885   1.757  0.00  0.00    +0.020 A 
ATOM     20  C   UNL     1       2.278  -1.272   0.741  0.00  0.00    +0.045 A 
ATOM     21 CL   UNL     1       3.099  -0.734  -0.691  0.00  0.00    -0.083 Cl
ENDBRANCH  14  15
ENDBRANCH  12  14
ENDBRANCH   1  12
BRANCH   4  22
ATOM     22  C   UNL     1      -4.688   0.796  -4.129  0.00  0.00    +0.184 C 
BRANCH  22  23
ATOM     23  N   UNL     1      -5.389   2.000  -3.675  0.00  0.00    -0.294 N 
ATOM     24  C   UNL     1      -5.090   3.358  -4.144  0.00  0.00    +0.109 C 
ATOM     25  C   UNL     1      -5.740   4.303  -3.109  0.00  0.00    +0.028 C 
ATOM     26  C   UNL     1      -6.869   3.416  -2.537  0.00  0.00    +0.097 C 
ATOM     27  C   UNL     1      -6.392   2.001  -2.780  0.00  0.00    +0.216 C 
ATOM     28  O   UNL     1      -6.845   1.013  -2.243  0.00  0.00    -0.276 OA
ENDBRANCH  22  23
ENDBRANCH   4  22
TORSDOF 5
