REMARK  Name = ZINC02725264
REMARK  5 active torsions:
REMARK  status: ('A' for Active; 'I' for Inactive)
REMARK    1  A    between atoms: C_1  and  C_2
REMARK    2  A    between atoms: C_5  and  C_25
REMARK    3  A    between atoms: C_6  and  N_8
REMARK    4  A    between atoms: N_11  and  C_12
REMARK    5  A    between atoms: C_12  and  C_21
REMARK                            x       y       z     vdW  Elec       q    Type
REMARK                         _______ _______ _______ _____ _____    ______ ____
ROOT
ATOM      1  N   UNL     1       2.356   3.889   0.001  0.00  0.00    -0.269 N 
ATOM      2  C   UNL     1       2.337   5.233  -0.093  0.00  0.00    +0.310 C 
ATOM      3  O   UNL     1       1.276   5.828  -0.081  0.00  0.00    -0.252 OA
ATOM      4  N   UNL     1       3.492   5.918  -0.202  0.00  0.00    -0.220 N 
ATOM      5  H   UNL     1       3.202   3.420   0.073  0.00  0.00    +0.156 HD
ATOM      6  H   UNL     1       4.338   5.443  -0.212  0.00  0.00    +0.158 HD
ENDROOT
BRANCH   4   7
ATOM      7  C   UNL     1       3.471   7.379  -0.304  0.00  0.00    +0.436 C 
ATOM      8  O   UNL     1       2.749   7.953   0.801  0.00  0.00    -0.426 OA
ATOM      9  C   UNL     1       1.457   8.064   0.374  0.00  0.00    +0.169 A 
ATOM     10  C   UNL     1       0.273   8.244   1.070  0.00  0.00    +0.049 A 
ATOM     11  C   UNL     1      -0.926   8.326   0.385  0.00  0.00    +0.004 A 
ATOM     12  C   UNL     1      -0.945   8.230  -0.994  0.00  0.00    +0.004 A 
ATOM     13  C   UNL     1       0.233   8.050  -1.694  0.00  0.00    +0.049 A 
ATOM     14  C   UNL     1       1.438   7.966  -1.015  0.00  0.00    +0.169 A 
ATOM     15  O   UNL     1       2.717   7.794  -1.458  0.00  0.00    -0.426 OA
BRANCH   7  16
ATOM     16  C   UNL     1       4.896   7.933  -0.366  0.00  0.00    +0.490 C 
ATOM     17  F   UNL     1       5.553   7.408  -1.484  0.00  0.00    -0.162 F 
ATOM     18  F   UNL     1       4.851   9.328  -0.463  0.00  0.00    -0.162 F 
ATOM     19  F   UNL     1       5.588   7.569   0.794  0.00  0.00    -0.162 F 
ENDBRANCH   7  16
ENDBRANCH   4   7
BRANCH   1  25
ATOM     20  C   UNL     1      -2.388   3.583  -1.252  0.00  0.00    +0.044 C 
ATOM     21  C   UNL     1      -1.160   2.998  -0.605  0.00  0.00    -0.049 A 
ATOM     22  C   UNL     1      -1.217   1.745  -0.021  0.00  0.00    +0.004 A 
ATOM     23  C   UNL     1      -0.093   1.207   0.579  0.00  0.00    +0.005 A 
ATOM     24  C   UNL     1       1.093   1.914   0.586  0.00  0.00    -0.029 A 
ATOM     25  C   UNL     1       1.155   3.169  -0.005  0.00  0.00    +0.038 A 
ATOM     26  C   UNL     1       0.024   3.710  -0.602  0.00  0.00    +0.027 A 
ATOM     27  C   UNL     1       2.319   1.324   1.234  0.00  0.00    +0.045 C 
ENDBRANCH   1  25
TORSDOF 3
