REMARK  Name = ZINC41016987
REMARK  10 active torsions:
REMARK  status: ('A' for Active; 'I' for Inactive)
REMARK    1  A    between atoms: C_1  and  C_2
REMARK    2  A    between atoms: C_5  and  O_9
REMARK    3  A    between atoms: C_7  and  C_8
REMARK    4  A    between atoms: O_9  and  C_10
REMARK    5  A    between atoms: C_10  and  C_12
REMARK    6  A    between atoms: C_10  and  C_13
REMARK    7  A    between atoms: N_15  and  C_16
REMARK    8  A    between atoms: N_22  and  C_29
REMARK    9  A    between atoms: C_25  and  C_28
REMARK   10  A    between atoms: C_29  and  C_30
REMARK                            x       y       z     vdW  Elec       q    Type
REMARK                         _______ _______ _______ _____ _____    ______ ____
ROOT
ATOM      1  C   UNL     1       0.727  -6.086  -1.253  0.00  0.00    +0.258 C 
ATOM      2  O   UNL     1       1.275  -6.460  -0.238  0.00  0.00    -0.271 OA
ATOM      3  N   UNL     1       0.681  -6.894  -2.331  0.00  0.00    -0.282 N 
ATOM      4  H   UNL     1       0.310  -6.568  -3.166  0.00  0.00    +0.155 HD
ENDROOT
BRANCH   3   5
ATOM      5  C   UNL     1       1.168  -8.205  -2.245  0.00  0.00    +0.035 A 
ATOM      6  C   UNL     1       1.052  -8.912  -1.055  0.00  0.00    +0.027 A 
ATOM      7  C   UNL     1       1.531 -10.206  -0.966  0.00  0.00    +0.049 A 
ATOM      8  C   UNL     1       2.128 -10.799  -2.064  0.00  0.00    +0.143 A 
ATOM      9  C   UNL     1       2.247 -10.092  -3.260  0.00  0.00    +0.080 A 
ATOM     10  C   UNL     1       1.761  -8.798  -3.351  0.00  0.00    +0.050 A 
ATOM     11  N   UNL     1       2.856 -10.707  -4.363  0.00  0.00    -0.261 N 
ATOM     12  C   UNL     1       3.026 -12.047  -4.354  0.00  0.00    +0.261 C 
ATOM     13  O   UNL     1       3.578 -12.596  -5.284  0.00  0.00    -0.271 OA
ATOM     14  C   UNL     1       2.528 -12.856  -3.184  0.00  0.00    +0.256 C 
ATOM     15  O   UNL     1       2.604 -12.072  -1.991  0.00  0.00    -0.478 OA
ATOM     16  C   UNL     1       1.075 -13.268  -3.431  0.00  0.00    +0.062 C 
BRANCH  11  17
ATOM     17  C   UNL     1       3.301  -9.908  -5.508  0.00  0.00    +0.140 C 
BRANCH  17  18
ATOM     18  C   UNL     1       4.726  -9.469  -5.290  0.00  0.00    -0.015 C 
ATOM     19  C   UNL     1       5.640  -9.740  -6.189  0.00  0.00    +0.005 C 
ENDBRANCH  17  18
ENDBRANCH  11  17
ENDBRANCH   3   5
BRANCH   1  20
ATOM     20  C   UNL     1       0.097  -4.718  -1.309  0.00  0.00    +0.256 C 
ATOM     21  C   UNL     1      -1.417  -4.860  -1.479  0.00  0.00    +0.062 C 
BRANCH  20  22
ATOM     22  O   UNL     1       0.376  -4.015  -0.097  0.00  0.00    -0.480 OA
BRANCH  22  27
ATOM     23  C   UNL     1       0.285   1.612  -0.325  0.00  0.00    +0.044 C 
ATOM     24  C   UNL     1       0.310   0.106  -0.264  0.00  0.00    -0.047 A 
ATOM     25  C   UNL     1      -0.062  -0.635  -1.371  0.00  0.00    +0.007 A 
ATOM     26  C   UNL     1      -0.040  -2.015  -1.317  0.00  0.00    +0.046 A 
ATOM     27  C   UNL     1       0.355  -2.657  -0.152  0.00  0.00    +0.122 A 
ATOM     28  C   UNL     1       0.728  -1.911   0.956  0.00  0.00    +0.049 A 
ATOM     29  C   UNL     1       0.709  -0.531   0.896  0.00  0.00    -0.044 A 
ATOM     30  C   UNL     1       1.119   0.281   2.098  0.00  0.00    +0.044 C 
ENDBRANCH  22  27
ENDBRANCH  20  22
ENDBRANCH   1  20
TORSDOF 6
