REMARK  Name = ZINC39589717
REMARK  9 active torsions:
REMARK  status: ('A' for Active; 'I' for Inactive)
REMARK    1  A    between atoms: C_1  and  C_2
REMARK    2  A    between atoms: C_2  and  N_3
REMARK    3  A    between atoms: C_4  and  S_20
REMARK    4  A    between atoms: C_8  and  C_14
REMARK    5  A    between atoms: S_20  and  C_21
REMARK    6  A    between atoms: C_21  and  C_22
REMARK    7  A    between atoms: N_24  and  C_25
REMARK    8  A    between atoms: C_28  and  C_32
REMARK    9  A    between atoms: C_29  and  C_31
REMARK                            x       y       z     vdW  Elec       q    Type
REMARK                         _______ _______ _______ _____ _____    ______ ____
ROOT
ATOM      1  N   UNL     1       0.700  -0.481   1.173  0.00  0.00    -0.266 N 
ATOM      2  C   UNL     1       2.148  -0.705   1.135  0.00  0.00    +0.255 C 
ATOM      3  N   UNL     1       2.849  -1.194   2.326  0.00  0.00    -0.248 NA
ATOM      4  C   UNL     1       2.202  -1.429   3.413  0.00  0.00    +0.101 C 
ATOM      5  C   UNL     1       2.563  -1.914   4.772  0.00  0.00    +0.027 C 
ATOM      6  C   UNL     1       1.384  -1.938   5.466  0.00  0.00    +0.122 C 
ATOM      7  N   UNL     1       0.367  -1.536   4.712  0.00  0.00    -0.248 NA
ATOM      8  C   UNL     1       0.733  -1.214   3.493  0.00  0.00    +0.151 C 
ATOM      9  C   UNL     1       0.013  -0.720   2.311  0.00  0.00    +0.269 C 
ATOM     10  O   UNL     1      -1.188  -0.532   2.356  0.00  0.00    -0.268 OA
ENDROOT
BRANCH   5  11
ATOM     11  C   UNL     1       3.902  -2.288   5.264  0.00  0.00    -0.014 A 
ATOM     12  C   UNL     1       4.908  -1.321   5.370  0.00  0.00    +0.008 A 
ATOM     13  C   UNL     1       6.157  -1.678   5.831  0.00  0.00    +0.001 A 
ATOM     14  C   UNL     1       6.417  -2.990   6.189  0.00  0.00    +0.000 A 
ATOM     15  C   UNL     1       5.427  -3.953   6.087  0.00  0.00    +0.001 A 
ATOM     16  C   UNL     1       4.172  -3.610   5.633  0.00  0.00    +0.008 A 
ENDBRANCH   5  11
BRANCH   1  18
ATOM     17  C   UNL     1      -0.014   1.538  -0.009  0.00  0.00    +0.024 C 
ATOM     18  C   UNL     1       0.001   0.008  -0.018  0.00  0.00    +0.107 C 
ENDBRANCH   1  18
BRANCH   2  19
ATOM     19  S   UNL     1       2.924   0.863   0.659  0.00  0.00    -0.106 S 
BRANCH  19  20
ATOM     20  C   UNL     1       2.419   2.017   1.964  0.00  0.00    +0.168 C 
BRANCH  20  21
ATOM     21  C   UNL     1       3.005   3.377   1.687  0.00  0.00    +0.227 C 
ATOM     22  O   UNL     1       3.695   3.552   0.704  0.00  0.00    -0.275 OA
ATOM     23  N   UNL     1       2.762   4.401   2.530  0.00  0.00    -0.285 N 
ATOM     24  H   UNL     1       2.156   4.279   3.278  0.00  0.00    +0.155 HD
BRANCH  23  25
ATOM     25  C   UNL     1       3.383   5.638   2.326  0.00  0.00    +0.034 A 
ATOM     26  C   UNL     1       3.769   6.410   3.413  0.00  0.00    +0.023 A 
ATOM     27  C   UNL     1       4.382   7.631   3.208  0.00  0.00    +0.005 A 
ATOM     28  C   UNL     1       4.610   8.085   1.922  0.00  0.00    -0.047 A 
ATOM     29  C   UNL     1       4.226   7.318   0.837  0.00  0.00    -0.046 A 
ATOM     30  C   UNL     1       3.619   6.093   1.035  0.00  0.00    +0.027 A 
ATOM     31  C   UNL     1       4.476   7.817  -0.563  0.00  0.00    +0.044 C 
ATOM     32  C   UNL     1       5.278   9.417   1.702  0.00  0.00    +0.044 C 
ENDBRANCH  23  25
ENDBRANCH  20  21
ENDBRANCH  19  20
ENDBRANCH   2  19
TORSDOF 6
