REMARK  Name = ZINC39606016
REMARK  13 active torsions:
REMARK  status: ('A' for Active; 'I' for Inactive)
REMARK    1  A    between atoms: C_1  and  C_2
REMARK    2  A    between atoms: C_2  and  C_3
REMARK    3  A    between atoms: C_3  and  C_5
REMARK    4  A    between atoms: C_3  and  C_6
REMARK    5  A    between atoms: C_6  and  N_7
REMARK    6  A    between atoms: C_8  and  C_10
REMARK    7  A    between atoms: C_21  and  C_23
REMARK    8  A    between atoms: C_25  and  O_33
REMARK    9  A    between atoms: C_26  and  O_31
REMARK   10  A    between atoms: C_27  and  O_29
REMARK   11  A    between atoms: O_29  and  C_30
REMARK   12  A    between atoms: O_31  and  C_32
REMARK   13  A    between atoms: O_33  and  C_34
REMARK                            x       y       z     vdW  Elec       q    Type
REMARK                         _______ _______ _______ _____ _____    ______ ____
ROOT
ATOM      1  C   UNL     1      -7.709  -5.273  -0.895  0.00  0.00    +0.100 C 
ATOM      2  C   UNL     1      -7.099  -5.408  -2.308  0.00  0.00    +0.121 C 
ATOM      3  N   UNL     1      -5.810  -6.106  -2.094  0.00  0.00    -0.296 N 
ATOM      4  C   UNL     1      -6.106  -7.118  -1.051  0.00  0.00    +0.115 C 
ATOM      5  C   UNL     1      -7.058  -6.399  -0.074  0.00  0.00    -0.004 C 
ATOM      6  C   UNL     1      -8.123  -7.366   0.434  0.00  0.00    -0.010 C 
ATOM      7  C   UNL     1      -7.458  -8.443   1.296  0.00  0.00    -0.082 C 
ATOM      8  N   UNL     1      -6.764  -7.811   2.424  0.00  0.00    +0.379 N 
ATOM      9  C   UNL     1      -5.680  -6.954   1.929  0.00  0.00    -0.082 C 
ATOM     10  C   UNL     1      -6.270  -5.814   1.094  0.00  0.00    -0.010 C 
ATOM     11  C   UNL     1      -4.633  -5.875  -2.708  0.00  0.00    +0.247 C 
ATOM     12  O   UNL     1      -3.671  -6.578  -2.465  0.00  0.00    -0.270 OA
ATOM     13  H   UNL     1      -7.420  -7.252   2.950  0.00  0.00    -0.086 HD
ATOM     14  H   UNL     1      -6.379  -8.525   3.023  0.00  0.00    -0.086 HD
ENDROOT
BRANCH  11  15
ATOM     15  C   UNL     1      -4.511  -4.768  -3.677  0.00  0.00    +0.044 A 
ATOM     16  C   UNL     1      -4.491  -3.445  -3.229  0.00  0.00    +0.062 A 
ATOM     17  C   UNL     1      -4.377  -2.409  -4.138  0.00  0.00    +0.166 A 
ATOM     18  C   UNL     1      -4.283  -2.684  -5.499  0.00  0.00    +0.204 A 
ATOM     19  C   UNL     1      -4.303  -4.002  -5.949  0.00  0.00    +0.166 A 
ATOM     20  C   UNL     1      -4.411  -5.041  -5.043  0.00  0.00    +0.062 A 
BRANCH  19  21
ATOM     21  O   UNL     1      -4.211  -4.267  -7.280  0.00  0.00    -0.491 OA
ATOM     22  C   UNL     1      -4.238  -5.641  -7.670  0.00  0.00    +0.277 C 
ENDBRANCH  19  21
BRANCH  18  23
ATOM     23  O   UNL     1      -4.171  -1.665  -6.391  0.00  0.00    -0.488 OA
ATOM     24  C   UNL     1      -2.849  -1.231  -6.718  0.00  0.00    +0.277 C 
ENDBRANCH  18  23
BRANCH  17  25
ATOM     25  O   UNL     1      -4.357  -1.121  -3.702  0.00  0.00    -0.491 OA
ATOM     26  C   UNL     1      -4.348  -0.915  -2.288  0.00  0.00    +0.277 C 
ENDBRANCH  17  25
ENDBRANCH  11  15
BRANCH   1  28
ATOM     27  N   UNL     1      -8.187  -3.369   0.610  0.00  0.00    -0.315 N 
ATOM     28  C   UNL     1      -7.370  -3.929  -0.303  0.00  0.00    +0.218 C 
ATOM     29  O   UNL     1      -6.361  -3.351  -0.649  0.00  0.00    -0.275 OA
ATOM     30  H   UNL     1      -9.028  -3.797   0.835  0.00  0.00    +0.149 HD
BRANCH  27  31
ATOM     31  C   UNL     1      -7.806  -2.114   1.263  0.00  0.00    +0.107 C 
BRANCH  31  32
ATOM     32  C   UNL     1      -8.860  -1.742   2.307  0.00  0.00    +0.003 C 
ATOM     33  C   UNL     1      -9.956  -0.902   1.649  0.00  0.00    +0.009 C 
BRANCH  32  35
ATOM     34  C   UNL     1      -9.229  -0.668   4.533  0.00  0.00    +0.004 C 
ATOM     35  C   UNL     1      -8.204  -0.934   3.429  0.00  0.00    +0.001 C 
ENDBRANCH  32  35
ENDBRANCH  31  32
ENDBRANCH  27  31
ENDBRANCH   1  28
TORSDOF 8
