REMARK  Name = ZINC01382112
REMARK  13 active torsions:
REMARK  status: ('A' for Active; 'I' for Inactive)
REMARK    1  A    between atoms: C_1  and  C_2
REMARK    2  A    between atoms: C_5  and  C_44
REMARK    3  A    between atoms: C_9  and  C_14
REMARK    4  A    between atoms: C_14  and  C_16
REMARK    5  A    between atoms: C_14  and  N_27
REMARK    6  A    between atoms: N_20  and  C_21
REMARK    7  A    between atoms: C_21  and  C_22
REMARK    8  A    between atoms: N_27  and  C_28
REMARK    9  A    between atoms: N_27  and  C_37
REMARK   10  A    between atoms: C_28  and  C_29
REMARK   11  A    between atoms: C_32  and  O_35
REMARK   12  A    between atoms: O_35  and  C_36
REMARK   13  A    between atoms: C_37  and  C_38
REMARK                            x       y       z     vdW  Elec       q    Type
REMARK                         _______ _______ _______ _____ _____    ______ ____
ROOT
ATOM      1  C   UNL     1       0.505  -0.758   4.841  0.00  0.00    +0.163 C 
ENDROOT
BRANCH   1  10
ATOM      2  C   UNL     1       0.682   2.815   1.057  0.00  0.00    +0.044 C 
ATOM      3  C   UNL     1       1.328   1.564   0.521  0.00  0.00    -0.041 A 
ATOM      4  C   UNL     1       1.826   1.539  -0.751  0.00  0.00    +0.004 A 
ATOM      5  C   UNL     1       2.424   0.391  -1.253  0.00  0.00    +0.005 A 
ATOM      6  C   UNL     1       2.526  -0.745  -0.480  0.00  0.00    -0.026 A 
ATOM      7  C   UNL     1       2.026  -0.744   0.818  0.00  0.00    +0.052 A 
ATOM      8  C   UNL     1       1.425   0.424   1.326  0.00  0.00    +0.002 A 
ATOM      9  C   UNL     1       0.907   0.417   2.695  0.00  0.00    +0.021 A 
ATOM     10  C   UNL     1       1.029  -0.717   3.428  0.00  0.00    +0.042 A 
ATOM     11  C   UNL     1       1.645  -1.859   2.874  0.00  0.00    +0.254 A 
ATOM     12  O   UNL     1       1.744  -2.868   3.550  0.00  0.00    -0.268 OA
ATOM     13  N   UNL     1       2.115  -1.866   1.614  0.00  0.00    -0.322 N 
ATOM     14  H   UNL     1       2.532  -2.668   1.264  0.00  0.00    +0.169 HD
ATOM     15  C   UNL     1       3.177  -1.984  -1.038  0.00  0.00    +0.046 C 
ENDBRANCH   1  10
BRANCH   1  16
ATOM     16  C   UNL     1      -0.629  -1.745   4.928  0.00  0.00    +0.174 A 
ATOM     17  N   UNL     1      -0.527  -3.050   4.998  0.00  0.00    -0.111 NA
ATOM     18  N   UNL     1      -1.717  -3.540   5.059  0.00  0.00    -0.023 NA
ATOM     19  N   UNL     1      -2.576  -2.581   5.030  0.00  0.00    -0.043 NA
ATOM     20  N   UNL     1      -1.944  -1.459   4.955  0.00  0.00    -0.220 N 
BRANCH  20  21
ATOM     21  C   UNL     1      -2.545  -0.123   4.904  0.00  0.00    +0.221 C 
BRANCH  21  22
ATOM     22  C   UNL     1      -2.795   0.260   3.468  0.00  0.00    +0.126 A 
ATOM     23  C   UNL     1      -3.923   0.020   2.775  0.00  0.00    +0.046 A 
ATOM     24  C   UNL     1      -3.726   0.546   1.477  0.00  0.00    +0.041 A 
ATOM     25  C   UNL     1      -2.490   1.076   1.455  0.00  0.00    +0.195 A 
ATOM     26  O   UNL     1      -1.933   0.905   2.665  0.00  0.00    -0.466 OA
ENDBRANCH  21  22
ENDBRANCH  20  21
ENDBRANCH   1  16
BRANCH   1  27
ATOM     27  N   UNL     1       1.583  -1.168   5.751  0.00  0.00    -0.280 NA
BRANCH  27  28
ATOM     28  C   UNL     1       1.210  -0.929   7.151  0.00  0.00    +0.121 C 
BRANCH  28  29
ATOM     29  C   UNL     1       0.262  -2.007   7.609  0.00  0.00    -0.033 A 
ATOM     30  C   UNL     1      -1.102  -1.780   7.590  0.00  0.00    +0.008 A 
ATOM     31  C   UNL     1      -1.974  -2.766   8.010  0.00  0.00    +0.046 A 
ATOM     32  C   UNL     1      -1.479  -3.985   8.451  0.00  0.00    +0.120 A 
ATOM     33  C   UNL     1      -0.111  -4.210   8.469  0.00  0.00    +0.046 A 
ATOM     34  C   UNL     1       0.756  -3.223   8.043  0.00  0.00    +0.008 A 
BRANCH  32  35
ATOM     35  O   UNL     1      -2.334  -4.957   8.865  0.00  0.00    -0.495 OA
ATOM     36  C   UNL     1      -1.755  -6.186   9.306  0.00  0.00    +0.277 C 
ENDBRANCH  32  35
ENDBRANCH  28  29
ENDBRANCH  27  28
BRANCH  27  37
ATOM     37  C   UNL     1       2.842  -0.487   5.418  0.00  0.00    +0.122 C 
BRANCH  37  38
ATOM     38  C   UNL     1       3.977  -1.137   6.166  0.00  0.00    -0.015 A 
ATOM     39  C   UNL     1       4.411  -0.614   7.375  0.00  0.00    +0.008 A 
ATOM     40  C   UNL     1       5.459  -1.244   8.028  0.00  0.00    +0.020 A 
ATOM     41  C   UNL     1       6.033  -2.364   7.456  0.00  0.00    +0.111 A 
ATOM     42  N   UNL     1       5.595  -2.833   6.304  0.00  0.00    -0.263 NA
ATOM     43  C   UNL     1       4.596  -2.263   5.658  0.00  0.00    +0.115 A 
ENDBRANCH  37  38
ENDBRANCH  27  37
ENDBRANCH   1  27
TORSDOF 10
