REMARK  Name = ZINC12741573
REMARK  15 active torsions:
REMARK  status: ('A' for Active; 'I' for Inactive)
REMARK    1  A    between atoms: C_1  and  C_2
REMARK    2  A    between atoms: C_2  and  O_3
REMARK    3  A    between atoms: O_3  and  C_4
REMARK    4  A    between atoms: C_4  and  C_6
REMARK    5  A    between atoms: C_7  and  C_20
REMARK    6  A    between atoms: C_12  and  C_14
REMARK    7  A    between atoms: C_17  and  C_19
REMARK    8  A    between atoms: C_20  and  S_21
REMARK    9  A    between atoms: S_21  and  C_22
REMARK   10  A    between atoms: C_25  and  C_30
REMARK   11  A    between atoms: N_26  and  C_27
REMARK   12  A    between atoms: C_27  and  C_28
REMARK   13  A    between atoms: C_30  and  O_31
REMARK   14  A    between atoms: O_31  and  C_32
REMARK   15  A    between atoms: C_36  and  C_38
REMARK                            x       y       z     vdW  Elec       q    Type
REMARK                         _______ _______ _______ _____ _____    ______ ____
ROOT
ATOM      1  C   UNL     1      -1.476   6.006   5.328  0.00  0.00    +0.082 C 
ATOM      2  C   UNL     1      -0.898   4.787   5.369  0.00  0.00    +0.034 C 
ATOM      3  N   UNL     1       0.391   4.632   5.793  0.00  0.00    -0.272 N 
ATOM      4  C   UNL     1       1.172   5.647   6.183  0.00  0.00    +0.304 C 
ATOM      5  O   UNL     1       2.310   5.411   6.539  0.00  0.00    -0.252 OA
ATOM      6  N   UNL     1       0.736   6.923   6.197  0.00  0.00    -0.285 N 
ATOM      7  C   UNL     1      -0.644   7.196   5.763  0.00  0.00    +0.179 C 
ATOM      8  H   UNL     1       0.763   3.736   5.809  0.00  0.00    +0.156 HD
ATOM      9  H   UNL     1       1.317   7.643   6.486  0.00  0.00    +0.151 HD
ENDROOT
BRANCH   7  10
ATOM     10  C   UNL     1      -0.586   8.167   4.612  0.00  0.00    +0.130 A 
ATOM     11  C   UNL     1      -1.334   9.277   4.480  0.00  0.00    +0.047 A 
ATOM     12  C   UNL     1      -0.954   9.885   3.261  0.00  0.00    +0.045 A 
ATOM     13  C   UNL     1       0.004   9.110   2.721  0.00  0.00    +0.102 A 
ATOM     14  O   UNL     1       0.227   8.074   3.547  0.00  0.00    -0.463 OA
ATOM     15  C   UNL     1       0.713   9.365   1.416  0.00  0.00    +0.086 C 
ENDBRANCH   7  10
BRANCH   1  16
ATOM     16  C   UNL     1      -2.813   6.168   4.894  0.00  0.00    +0.339 C 
ATOM     17  O   UNL     1      -3.703   6.321   5.709  0.00  0.00    -0.245 OA
BRANCH  16  18
ATOM     18  O   UNL     1      -3.100   6.152   3.576  0.00  0.00    -0.462 OA
BRANCH  18  20
ATOM     19  C   UNL     1      -4.601   6.276   1.685  0.00  0.00    +0.048 C 
ATOM     20  C   UNL     1      -4.471   6.321   3.209  0.00  0.00    +0.229 C 
ENDBRANCH  18  20
ENDBRANCH  16  18
ENDBRANCH   1  16
BRANCH   2  21
ATOM     21  C   UNL     1      -1.690   3.576   4.946  0.00  0.00    +0.128 C 
BRANCH  21  22
ATOM     22  S   UNL     1      -1.140   3.038   3.308  0.00  0.00    -0.080 S 
BRANCH  22  23
ATOM     23  C   UNL     1      -2.200   1.652   3.069  0.00  0.00    +0.192 A 
ATOM     24  N   UNL     1      -3.108   1.210   3.909  0.00  0.00    -0.122 NA
ATOM     25  N   UNL     1      -3.697   0.181   3.413  0.00  0.00    -0.130 NA
ATOM     26  C   UNL     1      -3.209  -0.090   2.235  0.00  0.00    +0.172 A 
ATOM     27  N   UNL     1      -2.234   0.834   1.977  0.00  0.00    -0.299 N 
BRANCH  27  28
ATOM     28  C   UNL     1      -1.403   0.929   0.774  0.00  0.00    +0.152 C 
BRANCH  28  29
ATOM     29  C   UNL     1      -0.148   0.116   0.965  0.00  0.00    -0.013 C 
ATOM     30  C   UNL     1       1.025   0.696   0.899  0.00  0.00    +0.005 C 
ENDBRANCH  28  29
ENDBRANCH  27  28
BRANCH  26  31
ATOM     31  C   UNL     1      -3.638  -1.214   1.327  0.00  0.00    +0.305 C 
BRANCH  31  32
ATOM     32  O   UNL     1      -2.857  -2.377   1.609  0.00  0.00    -0.484 OA
BRANCH  32  33
ATOM     33  C   UNL     1      -3.119  -3.489   0.873  0.00  0.00    +0.121 A 
ATOM     34  C   UNL     1      -4.111  -3.463  -0.097  0.00  0.00    +0.045 A 
ATOM     35  C   UNL     1      -4.372  -4.593  -0.848  0.00  0.00    +0.004 A 
ATOM     36  C   UNL     1      -3.652  -5.753  -0.626  0.00  0.00    +0.003 A 
ATOM     37  C   UNL     1      -2.667  -5.783   0.343  0.00  0.00    -0.047 A 
ATOM     38  C   UNL     1      -2.399  -4.654   1.093  0.00  0.00    +0.049 A 
ATOM     39  C   UNL     1      -1.885  -7.049   0.583  0.00  0.00    +0.044 C 
ENDBRANCH  32  33
ENDBRANCH  31  32
ENDBRANCH  26  31
ENDBRANCH  22  23
ENDBRANCH  21  22
ENDBRANCH   2  21
TORSDOF 12
