REMARK  Name = ZINC16934837
REMARK  9 active torsions:
REMARK  status: ('A' for Active; 'I' for Inactive)
REMARK    1  A    between atoms: C_1  and  O_2
REMARK    2  A    between atoms: O_2  and  C_3
REMARK    3  A    between atoms: C_7  and  C_11
REMARK    4  A    between atoms: C_8  and  O_9
REMARK    5  A    between atoms: O_9  and  C_10
REMARK    6  A    between atoms: N_15  and  C_26
REMARK    7  A    between atoms: N_17  and  C_18
REMARK    8  A    between atoms: C_21  and  O_24
REMARK    9  A    between atoms: C_26  and  C_27
REMARK                            x       y       z     vdW  Elec       q    Type
REMARK                         _______ _______ _______ _____ _____    ______ ____
ROOT
ATOM      1  C   UNL     1      -4.781   1.603   3.813  0.00  0.00    +0.032 C 
ATOM      2  C   UNL     1      -6.100   1.299   3.917  0.00  0.00    +0.078 C 
ATOM      3  C   UNL     1      -7.075   1.704   4.948  0.00  0.00    +0.259 C 
ATOM      4  O   UNL     1      -6.754   2.412   5.884  0.00  0.00    -0.269 OA
ATOM      5  N   UNL     1      -8.313   1.262   4.809  0.00  0.00    -0.242 N 
ATOM      6  C   UNL     1      -8.657   0.460   3.742  0.00  0.00    +0.169 C 
ATOM      7  N   UNL     1      -9.828  -0.061   3.455  0.00  0.00    -0.225 NA
ATOM      8  S   UNL     1      -7.123   0.306   2.840  0.00  0.00    -0.049 S 
ENDROOT
BRANCH   1  13
ATOM      9  C   UNL     1      -1.956   0.890   1.437  0.00  0.00    +0.162 A 
ATOM     10  C   UNL     1      -2.404  -0.279   0.841  0.00  0.00    +0.049 A 
ATOM     11  C   UNL     1      -3.619  -0.832   1.209  0.00  0.00    +0.004 A 
ATOM     12  C   UNL     1      -4.396  -0.227   2.173  0.00  0.00    +0.012 A 
ATOM     13  C   UNL     1      -3.957   0.954   2.785  0.00  0.00    +0.022 A 
ATOM     14  C   UNL     1      -2.724   1.511   2.414  0.00  0.00    +0.169 A 
BRANCH   9  16
ATOM     15  C   UNL     1      -0.021   0.732   0.062  0.00  0.00    +0.277 C 
ATOM     16  O   UNL     1      -0.761   1.426   1.069  0.00  0.00    -0.491 OA
ENDBRANCH   9  16
BRANCH  14  17
ATOM     17  O   UNL     1      -2.285   2.653   3.005  0.00  0.00    -0.491 OA
ATOM     18  C   UNL     1      -2.660   3.887   2.389  0.00  0.00    +0.277 C 
ENDBRANCH  14  17
ENDBRANCH   1  13
BRANCH   7  19
ATOM     19  C   UNL     1      -9.977  -0.840   2.338  0.00  0.00    +0.067 A 
ATOM     20  C   UNL     1      -9.427  -0.432   1.121  0.00  0.00    +0.031 A 
ATOM     21  C   UNL     1      -9.574  -1.223   0.001  0.00  0.00    +0.047 A 
ATOM     22  C   UNL     1     -10.277  -2.417   0.079  0.00  0.00    +0.117 A 
ATOM     23  C   UNL     1     -10.830  -2.824   1.286  0.00  0.00    +0.047 A 
ATOM     24  C   UNL     1     -10.683  -2.042   2.412  0.00  0.00    +0.031 A 
BRANCH  22  25
ATOM     25  O   UNL     1     -10.425  -3.191  -1.030  0.00  0.00    -0.507 OA
ATOM     26  H   UNL     1     -11.215  -2.987  -1.548  0.00  0.00    +0.292 HD
ENDBRANCH  22  25
ENDBRANCH   7  19
BRANCH   5  27
ATOM     27  C   UNL     1      -9.330   1.627   5.798  0.00  0.00    +0.142 C 
BRANCH  27  28
ATOM     28  C   UNL     1     -10.005   2.906   5.376  0.00  0.00    -0.015 C 
ATOM     29  C   UNL     1     -11.308   2.949   5.253  0.00  0.00    +0.005 C 
ENDBRANCH  27  28
ENDBRANCH   5  27
TORSDOF 7
