REMARK  Name = ZINC22238259
REMARK  10 active torsions:
REMARK  status: ('A' for Active; 'I' for Inactive)
REMARK    1  A    between atoms: C_1  and  C_2
REMARK    2  A    between atoms: C_3  and  C_33
REMARK    3  A    between atoms: C_11  and  C_13
REMARK    4  A    between atoms: C_13  and  S_14
REMARK    5  A    between atoms: S_14  and  C_15
REMARK    6  A    between atoms: C_15  and  C_17
REMARK    7  A    between atoms: C_15  and  C_18
REMARK    8  A    between atoms: C_18  and  N_20
REMARK    9  A    between atoms: C_23  and  C_26
REMARK   10  A    between atoms: C_26  and  N_27
REMARK                            x       y       z     vdW  Elec       q    Type
REMARK                         _______ _______ _______ _____ _____    ______ ____
ROOT
ATOM      1  C   UNL     1      -0.145  -6.013   6.019  0.00  0.00    +0.132 C 
ATOM      2  C   UNL     1       1.194  -5.795   6.727  0.00  0.00    +0.029 C 
ENDROOT
BRANCH   1   3
ATOM      3  C   UNL     1      -0.225  -7.435   5.525  0.00  0.00    +0.251 C 
ATOM      4  O   UNL     1       0.093  -7.701   4.381  0.00  0.00    -0.272 OA
BRANCH   3   5
ATOM      5  N   UNL     1      -0.643  -8.397   6.338  0.00  0.00    -0.156 NA
ATOM      6  C   UNL     1      -0.714  -9.656   5.901  0.00  0.00    +0.163 A 
ATOM      7  N   UNL     1      -1.119 -10.764   6.578  0.00  0.00    -0.341 N 
ATOM      8  C   UNL     1      -1.115 -11.963   5.936  0.00  0.00    +0.008 A 
ATOM      9  C   UNL     1      -0.708 -11.976   4.662  0.00  0.00    +0.067 A 
ATOM     10  S   UNL     1      -0.332 -10.256   4.377  0.00  0.00    -0.061 S 
ATOM     11  H   UNL     1      -1.405 -10.700   7.502  0.00  0.00    +0.167 HD
BRANCH   8  12
ATOM     12  C   UNL     1      -1.552 -13.226   6.632  0.00  0.00    -0.024 C 
BRANCH  12  13
ATOM     13  N   UNL     1      -0.618 -13.532   7.723  0.00  0.00    +0.383 N 
ATOM     14  C   UNL     1      -1.123 -14.676   8.492  0.00  0.00    -0.078 C 
ATOM     15  C   UNL     1      -0.195 -14.948   9.678  0.00  0.00    -0.019 C 
ATOM     16  C   UNL     1       1.211 -15.261   9.159  0.00  0.00    -0.004 C 
ATOM     17  C   UNL     1       1.698 -14.092   8.297  0.00  0.00    -0.019 C 
ATOM     18  C   UNL     1       0.700 -13.852   7.162  0.00  0.00    -0.078 C 
ATOM     19  H   UNL     1      -0.538 -12.730   8.331  0.00  0.00    -0.081 HD
ENDBRANCH  12  13
ENDBRANCH   8  12
ENDBRANCH   3   5
ENDBRANCH   1   3
BRANCH   1  20
ATOM     20  S   UNL     1      -0.277  -4.876   4.612  0.00  0.00    -0.140 S 
BRANCH  20  21
ATOM     21  C   UNL     1      -0.317  -3.233   5.379  0.00  0.00    +0.144 C 
BRANCH  21  32
ATOM     22  C   UNL     1      -0.802   2.084   1.323  0.00  0.00    +0.045 C 
ATOM     23  C   UNL     1      -0.736   0.585   1.175  0.00  0.00    -0.026 A 
ATOM     24  C   UNL     1      -0.769   0.020  -0.042  0.00  0.00    -0.008 A 
ATOM     25  S   UNL     1      -0.665  -1.725   0.310  0.00  0.00    -0.073 S 
ATOM     26  C   UNL     1      -0.580  -1.643   2.080  0.00  0.00    +0.116 A 
ATOM     27  C   UNL     1      -0.629  -0.264   2.348  0.00  0.00    +0.075 A 
ATOM     28  C   UNL     1      -0.572   0.101   3.732  0.00  0.00    +0.260 A 
ATOM     29  O   UNL     1      -0.613   1.273   4.066  0.00  0.00    -0.267 OA
ATOM     30  N   UNL     1      -0.473  -0.870   4.658  0.00  0.00    -0.310 N 
ATOM     31  H   UNL     1      -0.434  -0.629   5.597  0.00  0.00    +0.170 HD
ATOM     32  C   UNL     1      -0.428  -2.180   4.305  0.00  0.00    +0.121 A 
ATOM     33  N   UNL     1      -0.487  -2.546   3.053  0.00  0.00    -0.226 NA
ATOM     34  C   UNL     1      -0.870   0.698  -1.384  0.00  0.00    +0.052 C 
ENDBRANCH  21  32
ENDBRANCH  20  21
ENDBRANCH   1  20
TORSDOF 7
