REMARK  Name = ZINC01423369
REMARK  8 active torsions:
REMARK  status: ('A' for Active; 'I' for Inactive)
REMARK    1  A    between atoms: C_1  and  C_2
REMARK    2  A    between atoms: C_9  and  C_11
REMARK    3  A    between atoms: C_15  and  N_17
REMARK    4  A    between atoms: N_17  and  S_18
REMARK    5  A    between atoms: S_18  and  C_21
REMARK    6  A    between atoms: C_22  and  C_29
REMARK    7  A    between atoms: C_24  and  C_28
REMARK    8  A    between atoms: C_26  and  C_27
REMARK                            x       y       z     vdW  Elec       q    Type
REMARK                         _______ _______ _______ _____ _____    ______ ____
ROOT
ATOM      1  C   UNL     1       4.379   1.377   0.865  0.00  0.00    +0.004 A 
ATOM      2  C   UNL     1       3.012   1.540   1.081  0.00  0.00    +0.010 A 
ATOM      3  C   UNL     1       2.148   0.485   0.868  0.00  0.00    +0.002 A 
ATOM      4  C   UNL     1       2.634  -0.736   0.439  0.00  0.00    +0.024 A 
ATOM      5  C   UNL     1       3.996  -0.908   0.220  0.00  0.00    +0.049 A 
ATOM      6  C   UNL     1       4.870   0.148   0.433  0.00  0.00    +0.034 A 
ENDROOT
BRANCH   1  15
ATOM      7  C   UNL     1       9.569   3.365   0.564  0.00  0.00    +0.047 C 
ATOM      8  C   UNL     1       8.441   4.211   1.095  0.00  0.00    -0.008 A 
ATOM      9  C   UNL     1       8.675   5.484   1.512  0.00  0.00    +0.008 A 
ATOM     10  C   UNL     1       7.614   6.261   2.005  0.00  0.00    +0.018 A 
ATOM     11  C   UNL     1       6.366   5.751   2.065  0.00  0.00    +0.093 A 
ATOM     12  N   UNL     1       6.117   4.474   1.650  0.00  0.00    -0.306 N 
ATOM     13  C   UNL     1       7.132   3.691   1.164  0.00  0.00    +0.141 A 
ATOM     14  N   UNL     1       6.627   2.510   0.840  0.00  0.00    -0.228 NA
ATOM     15  C   UNL     1       5.309   2.510   1.094  0.00  0.00    +0.090 A 
ATOM     16  C   UNL     1       4.973   3.728   1.604  0.00  0.00    +0.121 A 
ENDBRANCH   1  15
BRANCH   5  17
ATOM     17  N   UNL     1       4.484  -2.143  -0.213  0.00  0.00    -0.216 N 
ATOM     18  H   UNL     1       5.274  -2.525   0.201  0.00  0.00    +0.174 HD
BRANCH  17  19
ATOM     19  S   UNL     1       3.714  -2.955  -1.434  0.00  0.00    +0.073 S 
ATOM     20  O   UNL     1       4.515  -4.089  -1.735  0.00  0.00    -0.150 OA
ATOM     21  O   UNL     1       2.350  -3.066  -1.050  0.00  0.00    -0.150 OA
BRANCH  19  22
ATOM     22  C   UNL     1       3.754  -1.917  -2.857  0.00  0.00    +0.114 A 
ATOM     23  C   UNL     1       2.589  -1.335  -3.321  0.00  0.00    -0.023 A 
ATOM     24  C   UNL     1       2.622  -0.516  -4.434  0.00  0.00    +0.008 A 
ATOM     25  C   UNL     1       3.817  -0.289  -5.090  0.00  0.00    -0.050 A 
ATOM     26  C   UNL     1       4.981  -0.876  -4.630  0.00  0.00    +0.008 A 
ATOM     27  C   UNL     1       4.949  -1.690  -3.513  0.00  0.00    -0.023 A 
ATOM     28  C   UNL     1       6.218  -2.330  -3.011  0.00  0.00    +0.046 C 
ATOM     29  C   UNL     1       3.851   0.599  -6.307  0.00  0.00    +0.044 C 
ATOM     30  C   UNL     1       1.285  -1.587  -2.609  0.00  0.00    +0.046 C 
ENDBRANCH  19  22
ENDBRANCH  17  19
ENDBRANCH   5  17
TORSDOF 4
