REMARK  Name = ZINC34830416
REMARK  9 active torsions:
REMARK  status: ('A' for Active; 'I' for Inactive)
REMARK    1  A    between atoms: C_1  and  C_2
REMARK    2  A    between atoms: C_2  and  C_3
REMARK    3  A    between atoms: C_3  and  C_5
REMARK    4  A    between atoms: C_3  and  C_11
REMARK    5  A    between atoms: C_20  and  C_22
REMARK    6  A    between atoms: C_22  and  C_24
REMARK    7  A    between atoms: C_22  and  N_25
REMARK    8  A    between atoms: C_33  and  C_35
REMARK    9  A    between atoms: C_40  and  C_41
REMARK                            x       y       z     vdW  Elec       q    Type
REMARK                         _______ _______ _______ _____ _____    ______ ____
ROOT
ATOM      1  C   UNL     1       0.750  -1.970  -1.364  0.00  0.00    +0.223 C 
ATOM      2  O   UNL     1       1.793  -2.570  -1.212  0.00  0.00    -0.275 OA
ATOM      3  N   UNL     1      -0.410  -2.648  -1.460  0.00  0.00    -0.299 N 
ATOM      4  C   UNL     1      -0.463  -4.057  -1.280  0.00  0.00    +0.109 C 
ATOM      5  C   UNL     1      -0.115  -4.891  -2.556  0.00  0.00    +0.038 C 
ATOM      6  C   UNL     1      -0.729  -4.140  -3.782  0.00  0.00    +0.109 C 
ATOM      7  N   UNL     1      -1.998  -3.547  -3.539  0.00  0.00    -0.301 N 
ATOM      8  C   UNL     1      -2.011  -2.107  -3.173  0.00  0.00    +0.126 C 
ATOM      9  C   UNL     1      -1.692  -1.957  -1.752  0.00  0.00    +0.126 C 
ATOM     10  C   UNL     1      -3.138  -4.259  -3.636  0.00  0.00    +0.202 C 
ATOM     11  O   UNL     1      -3.106  -5.404  -4.033  0.00  0.00    -0.277 OA
ENDROOT
BRANCH  10  12
ATOM     12  C   UNL     1      -4.453  -3.632  -3.250  0.00  0.00    +0.018 C 
ATOM     13  C   UNL     1      -4.651  -3.752  -1.738  0.00  0.00    -0.004 C 
BRANCH  12  14
ATOM     14  N   UNL     1      -5.547  -4.323  -3.945  0.00  0.00    +0.395 N 
ATOM     15  C   UNL     1      -5.664  -5.691  -3.421  0.00  0.00    -0.071 C 
ATOM     16  C   UNL     1      -6.568  -6.508  -4.360  0.00  0.00    +0.024 C 
ATOM     17  C   UNL     1      -7.784  -5.686  -4.642  0.00  0.00    -0.010 A 
ATOM     18  C   UNL     1      -7.941  -4.358  -4.378  0.00  0.00    -0.047 A 
ATOM     19  C   UNL     1      -9.168  -3.797  -4.723  0.00  0.00    +0.010 A 
ATOM     20  C   UNL     1     -10.128  -4.565  -5.291  0.00  0.00    +0.045 A 
ATOM     21  S   UNL     1      -9.325  -6.160  -5.371  0.00  0.00    -0.101 S 
ATOM     22  C   UNL     1      -6.795  -3.578  -3.741  0.00  0.00    -0.005 C 
ATOM     23  H   UNL     1      -5.341  -4.363  -4.932  0.00  0.00    -0.079 HD
BRANCH  22  24
ATOM     24  C   UNL     1      -6.685  -2.222  -4.388  0.00  0.00    -0.054 A 
ATOM     25  C   UNL     1      -5.875  -2.047  -5.494  0.00  0.00    +0.002 A 
ATOM     26  C   UNL     1      -5.774  -0.803  -6.087  0.00  0.00    +0.000 A 
ATOM     27  C   UNL     1      -6.484   0.267  -5.575  0.00  0.00    +0.000 A 
ATOM     28  C   UNL     1      -7.295   0.092  -4.470  0.00  0.00    +0.003 A 
ATOM     29  C   UNL     1      -7.399  -1.153  -3.879  0.00  0.00    -0.049 A 
ATOM     30  C   UNL     1      -8.288  -1.345  -2.677  0.00  0.00    +0.044 C 
ENDBRANCH  22  24
ENDBRANCH  12  14
ENDBRANCH  10  12
BRANCH   1  31
ATOM     31  C   UNL     1       0.751  -0.465  -1.446  0.00  0.00    +0.105 C 
BRANCH  31  32
ATOM     32  C   UNL     1       2.012  -0.000  -2.130  0.00  0.00    -0.036 A 
ATOM     33  C   UNL     1       3.246  -0.311  -1.590  0.00  0.00    +0.004 A 
ATOM     34  C   UNL     1       4.402   0.115  -2.217  0.00  0.00    +0.000 A 
ATOM     35  C   UNL     1       4.323   0.852  -3.384  0.00  0.00    +0.000 A 
ATOM     36  C   UNL     1       3.089   1.162  -3.924  0.00  0.00    +0.000 A 
ATOM     37  C   UNL     1       1.933   0.732  -3.299  0.00  0.00    +0.004 A 
ENDBRANCH  31  32
BRANCH  31  39
ATOM     38  C   UNL     1       0.566   1.645  -0.121  0.00  0.00    +0.005 C 
ATOM     39  C   UNL     1       0.691   0.123  -0.035  0.00  0.00    +0.014 C 
ENDBRANCH  31  39
ENDBRANCH   1  31
TORSDOF 6
