REMARK  Name = ZINC02662711
REMARK  8 active torsions:
REMARK  status: ('A' for Active; 'I' for Inactive)
REMARK    1  A    between atoms: C_1  and  O_2
REMARK    2  A    between atoms: O_2  and  C_3
REMARK    3  A    between atoms: C_7  and  C_11
REMARK    4  A    between atoms: C_8  and  O_9
REMARK    5  A    between atoms: O_9  and  C_10
REMARK    6  A    between atoms: C_14  and  C_26
REMARK    7  A    between atoms: C_29  and  S_32
REMARK    8  A    between atoms: S_32  and  C_33
REMARK                            x       y       z     vdW  Elec       q    Type
REMARK                         _______ _______ _______ _____ _____    ______ ____
ROOT
ATOM      1  C   UNL     1      -0.755   1.594  -1.235  0.00  0.00    +0.038 C 
ATOM      2  C   UNL     1      -0.013   1.086   0.008  0.00  0.00    -0.068 C 
ATOM      3  C   UNL     1      -1.984   0.866   1.411  0.00  0.00    +0.007 C 
ATOM      4  C   UNL     1      -2.778   0.960   0.129  0.00  0.00    +0.011 A 
ATOM      5  C   UNL     1      -2.222   1.290  -1.059  0.00  0.00    -0.015 A 
ATOM      6  C   UNL     1      -3.281   1.284  -2.043  0.00  0.00    +0.004 A 
ATOM      7  C   UNL     1      -3.305   1.543  -3.417  0.00  0.00    +0.010 A 
ATOM      8  C   UNL     1      -4.521   1.440  -4.048  0.00  0.00    +0.001 A 
ATOM      9  C   UNL     1      -5.677   1.096  -3.367  0.00  0.00    +0.002 A 
ATOM     10  C   UNL     1      -5.682   0.833  -2.008  0.00  0.00    +0.026 A 
ATOM     11  C   UNL     1      -4.463   0.930  -1.341  0.00  0.00    +0.047 A 
ATOM     12  N   UNL     1      -4.119   0.742  -0.033  0.00  0.00    -0.359 N 
ATOM     13  H   UNL     1      -4.732   0.490   0.675  0.00  0.00    +0.166 HD
ATOM     14  N   UNL     1      -0.696   1.569   1.225  0.00  0.00    +0.388 N 
ATOM     15  H   UNL     1      -0.871   2.577   1.137  0.00  0.00    -0.084 HD
ATOM     16  H   UNL     1      -0.096   1.396   2.041  0.00  0.00    -0.084 HD
ENDROOT
BRANCH   1  21
ATOM     17  C   UNL     1       0.821   0.978  -4.622  0.00  0.00    +0.162 A 
ATOM     18  C   UNL     1       0.728  -0.401  -4.717  0.00  0.00    +0.049 A 
ATOM     19  C   UNL     1       0.157  -1.128  -3.689  0.00  0.00    +0.004 A 
ATOM     20  C   UNL     1      -0.318  -0.483  -2.562  0.00  0.00    +0.008 A 
ATOM     21  C   UNL     1      -0.233   0.894  -2.463  0.00  0.00    +0.004 A 
ATOM     22  C   UNL     1       0.339   1.628  -3.490  0.00  0.00    +0.165 A 
BRANCH  17  24
ATOM     23  C   UNL     1       1.855   0.961  -6.763  0.00  0.00    +0.277 C 
ATOM     24  O   UNL     1       1.382   1.695  -5.632  0.00  0.00    -0.491 OA
ENDBRANCH  17  24
BRANCH  22  25
ATOM     25  O   UNL     1       0.427   2.982  -3.392  0.00  0.00    -0.491 OA
ATOM     26  C   UNL     1       1.611   3.513  -2.792  0.00  0.00    +0.277 C 
ENDBRANCH  22  25
ENDBRANCH   1  21
BRANCH   3  27
ATOM     27  C   UNL     1      -2.753   1.519   2.531  0.00  0.00    -0.056 A 
ATOM     28  C   UNL     1      -2.736   2.895   2.669  0.00  0.00    +0.003 A 
ATOM     29  C   UNL     1      -3.443   3.496   3.692  0.00  0.00    +0.015 A 
ATOM     30  C   UNL     1      -4.164   2.717   4.588  0.00  0.00    +0.008 A 
ATOM     31  C   UNL     1      -4.175   1.334   4.449  0.00  0.00    +0.015 A 
ATOM     32  C   UNL     1      -3.470   0.740   3.421  0.00  0.00    +0.003 A 
BRANCH  30  33
ATOM     33  S   UNL     1      -5.062   3.479   5.898  0.00  0.00    -0.129 S 
ATOM     34  C   UNL     1      -4.750   5.252   5.670  0.00  0.00    +0.090 C 
ENDBRANCH  30  33
ENDBRANCH   3  27
TORSDOF 5
