REMARK  Name = ZINC51171232
REMARK  3 active torsions:
REMARK  status: ('A' for Active; 'I' for Inactive)
REMARK    1  A    between atoms: C_6  and  N_7
REMARK    2  A    between atoms: C_10  and  C_14
REMARK    3  A    between atoms: C_14  and  C_16
REMARK                            x       y       z     vdW  Elec       q    Type
REMARK                         _______ _______ _______ _____ _____    ______ ____
ROOT
ATOM      1  C   UNL     1      -0.017   1.383   0.010  0.00  0.00    +0.035 A 
ATOM      2  C   UNL     1       1.159   2.101   0.002  0.00  0.00    +0.028 A 
ATOM      3  C   UNL     1       2.380   1.434  -0.013  0.00  0.00    +0.047 A 
ATOM      4  C   UNL     1       2.397   0.030  -0.021  0.00  0.00    +0.013 A 
ATOM      5  C   UNL     1       1.201  -0.683  -0.013  0.00  0.00    +0.043 A 
ATOM      6  C   UNL     1       0.002  -0.004   0.002  0.00  0.00    +0.127 A 
ATOM      7  C   UNL     1       3.820  -0.356  -0.037  0.00  0.00    +0.048 A 
ATOM      8  C   UNL     1       4.536   0.805  -0.037  0.00  0.00    +0.095 A 
ATOM      9  N   UNL     1       3.691   1.864  -0.024  0.00  0.00    -0.360 N 
ATOM     10  H   UNL     1       3.968   2.794  -0.022  0.00  0.00    +0.165 HD
ENDROOT
BRANCH   6  11
ATOM     11  N   UNL     1      -1.272  -0.758   0.011  0.00  0.00    +0.056 N 
ATOM     12  O   UNL     1      -2.325  -0.165   0.024  0.00  0.00    -0.126 OA
ATOM     13  O   UNL     1      -1.258  -1.967   0.004  0.00  0.00    -0.126 OA
ENDBRANCH   6  11
BRANCH   7  14
ATOM     14  C   UNL     1       4.360  -1.724  -0.049  0.00  0.00    +0.202 C 
ATOM     15  O   UNL     1       3.603  -2.679  -0.046  0.00  0.00    -0.286 OA
BRANCH  14  16
ATOM     16  C   UNL     1       5.809  -1.939  -0.064  0.00  0.00    +0.061 A 
ATOM     17  C   UNL     1       6.516  -3.133  -0.083  0.00  0.00    +0.021 A 
ATOM     18  C   UNL     1       7.885  -3.016  -0.094  0.00  0.00    +0.028 A 
ATOM     19  C   UNL     1       8.441  -1.777  -0.087  0.00  0.00    +0.079 A 
ATOM     20  S   UNL     1       7.124  -0.734  -0.072  0.00  0.00    -0.074 S 
ATOM     21 CL   UNL     1      10.127  -1.364  -0.098  0.00  0.00    -0.076 Cl
ENDBRANCH  14  16
ENDBRANCH   7  14
TORSDOF 3
