REMARK  Name = ZINC29450005
REMARK  7 active torsions:
REMARK  status: ('A' for Active; 'I' for Inactive)
REMARK    1  A    between atoms: C_1  and  C_2
REMARK    2  A    between atoms: C_2  and  C_4
REMARK    3  A    between atoms: C_2  and  N_21
REMARK    4  A    between atoms: N_12  and  C_13
REMARK    5  A    between atoms: C_13  and  C_14
REMARK    6  A    between atoms: N_24  and  C_27
REMARK    7  A    between atoms: C_32  and  O_33
REMARK                            x       y       z     vdW  Elec       q    Type
REMARK                         _______ _______ _______ _____ _____    ______ ____
ROOT
ATOM      1  C   UNL     1      -1.542   1.833   1.260  0.00  0.00    -0.005 C 
ATOM      2  C   UNL     1      -1.051   2.117  -0.161  0.00  0.00    -0.004 C 
ENDROOT
BRANCH   2   3
ATOM      3  C   UNL     1       0.289   1.461  -0.370  0.00  0.00    +0.097 A 
ATOM      4  N   UNL     1       0.475   0.185  -0.549  0.00  0.00    -0.234 NA
ATOM      5  C   UNL     1       1.799  -0.065  -0.711  0.00  0.00    +0.091 A 
ATOM      6  C   UNL     1       2.539  -1.230  -0.931  0.00  0.00    +0.050 A 
ATOM      7  C   UNL     1       3.908  -1.156  -1.058  0.00  0.00    +0.043 A 
ATOM      8  C   UNL     1       4.560   0.067  -0.969  0.00  0.00    +0.022 A 
ATOM      9  C   UNL     1       3.844   1.225  -0.752  0.00  0.00    +0.029 A 
ATOM     10  C   UNL     1       2.463   1.170  -0.622  0.00  0.00    +0.069 A 
ATOM     11  N   UNL     1       1.481   2.116  -0.406  0.00  0.00    -0.324 N 
ATOM     12 CL   UNL     1       4.827  -2.603  -1.331  0.00  0.00    -0.083 Cl
BRANCH  11  13
ATOM     13  C   UNL     1       1.684   3.558  -0.245  0.00  0.00    +0.158 C 
BRANCH  13  14
ATOM     14  C   UNL     1       1.892   3.876   1.213  0.00  0.00    -0.028 A 
ATOM     15  C   UNL     1       0.809   4.179   2.016  0.00  0.00    +0.005 A 
ATOM     16  C   UNL     1       0.999   4.466   3.355  0.00  0.00    +0.000 A 
ATOM     17  C   UNL     1       2.275   4.461   3.888  0.00  0.00    +0.000 A 
ATOM     18  C   UNL     1       3.359   4.164   3.083  0.00  0.00    +0.000 A 
ATOM     19  C   UNL     1       3.168   3.871   1.746  0.00  0.00    +0.005 A 
ENDBRANCH  13  14
ENDBRANCH  11  13
ENDBRANCH   2   3
BRANCH   2  20
ATOM     20  N   UNL     1      -2.016   1.579  -1.129  0.00  0.00    +0.388 N 
ATOM     21  C   UNL     1      -1.534   1.754  -2.506  0.00  0.00    -0.059 C 
ATOM     22  C   UNL     1      -2.528   1.111  -3.477  0.00  0.00    +0.086 C 
ATOM     23  N   UNL     1      -3.849   1.729  -3.303  0.00  0.00    -0.331 N 
ATOM     24  C   UNL     1      -4.331   1.555  -1.925  0.00  0.00    +0.086 C 
ATOM     25  C   UNL     1      -3.338   2.198  -0.955  0.00  0.00    -0.059 C 
ATOM     26  H   UNL     1      -2.118   0.500  -0.939  0.00  0.00    -0.081 HD
BRANCH  23  27
ATOM     27  C   UNL     1      -4.769   1.217  -4.225  0.00  0.00    +0.072 A 
ATOM     28  C   UNL     1      -4.438   0.112  -4.996  0.00  0.00    +0.027 A 
ATOM     29  C   UNL     1      -5.350  -0.395  -5.903  0.00  0.00    +0.002 A 
ATOM     30  C   UNL     1      -6.588   0.202  -6.050  0.00  0.00    +0.004 A 
ATOM     31  C   UNL     1      -6.923   1.306  -5.288  0.00  0.00    +0.047 A 
ATOM     32  C   UNL     1      -6.017   1.817  -4.374  0.00  0.00    +0.138 A 
BRANCH  32  33
ATOM     33  O   UNL     1      -6.345   2.904  -3.625  0.00  0.00    -0.505 OA
ATOM     34  H   UNL     1      -7.330   3.377  -3.744  0.00  0.00    +0.292 HD
ENDBRANCH  32  33
ENDBRANCH  23  27
ENDBRANCH   2  20
TORSDOF 6
