REMARK  Name = ZINC02738331
REMARK  3 active torsions:
REMARK  status: ('A' for Active; 'I' for Inactive)
REMARK    1  A    between atoms: C_5  and  C_6
REMARK    2  A    between atoms: N_8  and  C_9
REMARK    3  A    between atoms: C_10  and  C_20
REMARK                            x       y       z     vdW  Elec       q    Type
REMARK                         _______ _______ _______ _____ _____    ______ ____
ROOT
ATOM      1  C   UNL     1      -2.370   1.877   3.318  0.00  0.00    +0.090 A 
ATOM      2  C   UNL     1      -1.620   2.964   2.921  0.00  0.00    +0.084 A 
ATOM      3  C   UNL     1      -0.691   2.797   1.798  0.00  0.00    -0.018 A 
ATOM      4  C   UNL     1      -0.743   1.584   1.224  0.00  0.00    -0.004 A 
ATOM      5  S   UNL     1      -1.892   0.646   2.199  0.00  0.00    -0.077 S 
ATOM      6  C   UNL     1      -0.013   1.086   0.008  0.00  0.00    +0.043 C 
ATOM      7  C   UNL     1      -0.784   1.609  -1.217  0.00  0.00    +0.005 C 
ATOM      8  C   UNL     1      -0.935   3.129  -1.077  0.00  0.00    +0.000 C 
ATOM      9  C   UNL     1       0.477   3.675  -1.077  0.00  0.00    +0.000 C 
ATOM     10  C   UNL     1       1.164   3.618   0.277  0.00  0.00    +0.005 C 
ATOM     11  C   UNL     1       0.225   3.964   1.426  0.00  0.00    +0.037 C 
ENDROOT
BRANCH   1  14
ATOM     12  C   UNL     1      -3.935   0.633   4.589  0.00  0.00    +0.284 C 
ATOM     13  O   UNL     1      -3.714  -0.339   3.890  0.00  0.00    -0.266 OA
ATOM     14  N   UNL     1      -3.287   1.792   4.354  0.00  0.00    -0.272 N 
ATOM     15  H   UNL     1      -3.463   2.567   4.911  0.00  0.00    +0.156 HD
BRANCH  12  20
ATOM     16  C   UNL     1      -5.625  -0.564   6.029  0.00  0.00    +0.056 A 
ATOM     17  C   UNL     1      -6.421  -0.202   7.126  0.00  0.00    +0.058 A 
ATOM     18  C   UNL     1      -6.154   1.096   7.400  0.00  0.00    +0.171 A 
ATOM     19  O   UNL     1      -5.235   1.540   6.533  0.00  0.00    -0.444 OA
ATOM     20  C   UNL     1      -4.903   0.544   5.684  0.00  0.00    +0.191 A 
ATOM     21 BR   UNL     1      -6.944   2.114   8.785  0.00  0.00    -0.008 Br
ENDBRANCH  12  20
ENDBRANCH   1  14
BRANCH   2  22
ATOM     22  C   UNL     1      -1.740   4.223   3.594  0.00  0.00    +0.102 C 
ATOM     23  N   UNL     1      -1.835   5.221   4.127  0.00  0.00    -0.191 NA
ENDBRANCH   2  22
TORSDOF 3
