REMARK  Name = ZINC04625401
REMARK  6 active torsions:
REMARK  status: ('A' for Active; 'I' for Inactive)
REMARK    1  A    between atoms: C_1  and  C_2
REMARK    2  A    between atoms: C_5  and  C_8
REMARK    3  A    between atoms: C_10  and  N_26
REMARK    4  A    between atoms: C_12  and  C_20
REMARK    5  A    between atoms: C_15  and  N_19
REMARK    6  A    between atoms: C_16  and  C_17
REMARK                            x       y       z     vdW  Elec       q    Type
REMARK                         _______ _______ _______ _____ _____    ______ ____
ROOT
ATOM      1  C   UNL     1      -0.392  -2.023   1.408  0.00  0.00    +0.092 C 
ATOM      2  C   UNL     1      -0.701  -0.538   1.256  0.00  0.00    +0.199 C 
ATOM      3  C   UNL     1       0.002  -0.004   0.002  0.00  0.00    +0.113 C 
ATOM      4  S   UNL     1      -0.889  -0.620  -1.450  0.00  0.00    -0.099 S 
ATOM      5  C   UNL     1      -1.000  -2.325  -1.036  0.00  0.00    +0.073 C 
ATOM      6  C   UNL     1      -0.780  -2.806   0.199  0.00  0.00    +0.066 C 
ENDROOT
BRANCH   1  11
ATOM      7  C   UNL     1      -3.275  -4.081   5.973  0.00  0.00    +0.044 C 
ATOM      8  C   UNL     1      -2.523  -3.544   4.783  0.00  0.00    -0.050 A 
ATOM      9  C   UNL     1      -1.143  -3.611   4.750  0.00  0.00    +0.003 A 
ATOM     10  C   UNL     1      -0.453  -3.119   3.658  0.00  0.00    +0.004 A 
ATOM     11  C   UNL     1      -1.144  -2.560   2.599  0.00  0.00    -0.037 A 
ATOM     12  C   UNL     1      -2.524  -2.487   2.635  0.00  0.00    +0.004 A 
ATOM     13  C   UNL     1      -3.214  -2.984   3.724  0.00  0.00    +0.003 A 
ENDBRANCH   1  11
BRANCH   3  14
ATOM     14  C   UNL     1      -0.018   1.503   0.010  0.00  0.00    -0.032 A 
ATOM     15  C   UNL     1      -1.225   2.178   0.020  0.00  0.00    +0.005 A 
ATOM     16  C   UNL     1      -1.244   3.560   0.032  0.00  0.00    +0.000 A 
ATOM     17  C   UNL     1      -0.056   4.267   0.025  0.00  0.00    +0.000 A 
ATOM     18  C   UNL     1       1.151   3.592   0.010  0.00  0.00    +0.000 A 
ATOM     19  C   UNL     1       1.169   2.210   0.003  0.00  0.00    +0.005 A 
ENDBRANCH   3  14
BRANCH   5  20
ATOM     20  N   UNL     1      -1.329  -3.215  -2.031  0.00  0.00    -0.352 N 
ATOM     21  H   UNL     1      -1.407  -4.288  -1.805  0.00  0.00    +0.143 HD
ATOM     22  H   UNL     1      -1.516  -2.853  -3.053  0.00  0.00    +0.143 HD
ENDBRANCH   5  20
BRANCH   2  23
ATOM     23  N   UNL     1      -0.217   0.186   2.434  0.00  0.00    +0.028 N 
ATOM     24  O   UNL     1      -0.997   0.819   3.123  0.00  0.00    -0.131 OA
ATOM     25  O   UNL     1       0.966   0.155   2.725  0.00  0.00    -0.131 OA
ENDBRANCH   2  23
BRANCH   6  26
ATOM     26  C   UNL     1      -0.935  -4.219   0.373  0.00  0.00    +0.098 C 
ATOM     27  N   UNL     1      -1.058  -5.340   0.511  0.00  0.00    -0.191 NA
ENDBRANCH   6  26
TORSDOF 5
