REMARK  Name = ZINC63503198
REMARK  10 active torsions:
REMARK  status: ('A' for Active; 'I' for Inactive)
REMARK    1  A    between atoms: C_1  and  C_2
REMARK    2  A    between atoms: C_6  and  N_9
REMARK    3  A    between atoms: C_7  and  C_8
REMARK    4  A    between atoms: C_10  and  C_12
REMARK    5  A    between atoms: C_12  and  C_14
REMARK    6  A    between atoms: C_12  and  N_24
REMARK    7  A    between atoms: C_14  and  C_15
REMARK    8  A    between atoms: C_25  and  O_27
REMARK    9  A    between atoms: O_27  and  C_28
REMARK   10  A    between atoms: C_28  and  C_29
REMARK                            x       y       z     vdW  Elec       q    Type
REMARK                         _______ _______ _______ _____ _____    ______ ____
ROOT
ATOM      1  C   UNL     1      -0.103  -5.006   3.748  0.00  0.00    +0.166 C 
ENDROOT
BRANCH   1   3
ATOM      2  N   UNL     1       0.134  -3.050   2.252  0.00  0.00    -0.284 N 
ATOM      3  C   UNL     1       0.026  -4.388   2.380  0.00  0.00    +0.238 C 
ATOM      4  O   UNL     1       0.033  -5.094   1.394  0.00  0.00    -0.273 OA
ATOM      5  H   UNL     1       0.207  -2.492   3.042  0.00  0.00    +0.155 HD
BRANCH   2  11
ATOM      6  C   UNL     1       1.386   0.690  -0.683  0.00  0.00    +0.044 C 
ATOM      7  C   UNL     1       0.740  -0.655  -0.471  0.00  0.00    -0.046 A 
ATOM      8  C   UNL     1       0.153  -1.315  -1.535  0.00  0.00    +0.004 A 
ATOM      9  C   UNL     1      -0.440  -2.549  -1.345  0.00  0.00    +0.002 A 
ATOM     10  C   UNL     1      -0.448  -3.127  -0.091  0.00  0.00    +0.023 A 
ATOM     11  C   UNL     1       0.141  -2.468   0.980  0.00  0.00    +0.037 A 
ATOM     12  C   UNL     1       0.740  -1.230   0.784  0.00  0.00    -0.026 A 
ATOM     13  C   UNL     1       1.385  -0.513   1.942  0.00  0.00    +0.046 C 
ENDBRANCH   2  11
ENDBRANCH   1   3
BRANCH   1  14
ATOM     14  N   UNL     1      -0.204  -6.461   3.619  0.00  0.00    -0.269 N 
ATOM     15  C   UNL     1       0.258  -7.259   4.603  0.00  0.00    +0.401 C 
ATOM     16  O   UNL     1       0.758  -6.771   5.597  0.00  0.00    -0.226 OA
ATOM     17  H   UNL     1      -0.603  -6.851   2.826  0.00  0.00    +0.153 HD
BRANCH  15  18
ATOM     18  O   UNL     1       0.164  -8.597   4.484  0.00  0.00    -0.446 OA
BRANCH  18  19
ATOM     19  C   UNL     1       0.674  -9.381   5.565  0.00  0.00    +0.269 C 
BRANCH  19  20
ATOM     20  C   UNL     1       0.484 -10.844   5.256  0.00  0.00    -0.010 A 
ATOM     21  C   UNL     1      -0.679 -11.486   5.637  0.00  0.00    +0.007 A 
ATOM     22  C   UNL     1      -0.853 -12.827   5.354  0.00  0.00    +0.000 A 
ATOM     23  C   UNL     1       0.137 -13.528   4.691  0.00  0.00    +0.000 A 
ATOM     24  C   UNL     1       1.300 -12.886   4.309  0.00  0.00    +0.000 A 
ATOM     25  C   UNL     1       1.472 -11.543   4.588  0.00  0.00    +0.007 A 
ENDBRANCH  19  20
ENDBRANCH  18  19
ENDBRANCH  15  18
ENDBRANCH   1  14
BRANCH   1  26
ATOM     26  C   UNL     1      -1.359  -4.466   4.436  0.00  0.00    +0.065 C 
BRANCH  26  27
ATOM     27  C   UNL     1      -2.579  -4.898   3.664  0.00  0.00    -0.039 C 
ATOM     28  C   UNL     1      -3.356  -5.978   3.908  0.00  0.00    -0.001 A 
ATOM     29  C   UNL     1      -3.299  -7.033   4.927  0.00  0.00    +0.010 A 
ATOM     30  C   UNL     1      -4.239  -8.006   4.916  0.00  0.00    +0.001 A 
ATOM     31  C   UNL     1      -5.263  -8.031   3.960  0.00  0.00    +0.002 A 
ATOM     32  C   UNL     1      -5.381  -7.096   2.993  0.00  0.00    +0.026 A 
ATOM     33  C   UNL     1      -4.447  -6.027   2.910  0.00  0.00    +0.043 A 
ATOM     34  N   UNL     1      -4.349  -5.016   2.080  0.00  0.00    -0.380 N 
ATOM     35  C   UNL     1      -3.186  -4.208   2.462  0.00  0.00    +0.144 C 
ATOM     36  H   UNL     1      -4.947  -4.832   1.339  0.00  0.00    +0.160 HD
ENDBRANCH  26  27
ENDBRANCH   1  26
TORSDOF 8
