REMARK  Name = ZINC36307264
REMARK  14 active torsions:
REMARK  status: ('A' for Active; 'I' for Inactive)
REMARK    1  A    between atoms: C_1  and  N_2
REMARK    2  A    between atoms: C_3  and  O_31
REMARK    3  A    between atoms: C_4  and  C_13
REMARK    4  A    between atoms: C_5  and  C_7
REMARK    5  A    between atoms: C_13  and  N_14
REMARK    6  A    between atoms: N_14  and  C_15
REMARK    7  A    between atoms: N_14  and  C_19
REMARK    8  A    between atoms: C_15  and  C_16
REMARK    9  A    between atoms: C_19  and  C_20
REMARK   10  A    between atoms: C_20  and  C_22
REMARK   11  A    between atoms: C_20  and  O_30
REMARK   12  A    between atoms: C_22  and  O_23
REMARK   13  A    between atoms: O_23  and  C_24
REMARK   14  A    between atoms: O_31  and  C_32
REMARK                            x       y       z     vdW  Elec       q    Type
REMARK                         _______ _______ _______ _____ _____    ______ ____
ROOT
ATOM      1  C   UNL     1      -3.434  -6.485   0.117  0.00  0.00    +0.176 C 
ATOM      2  N   UNL     1      -2.226  -5.659   0.174  0.00  0.00    -0.235 N 
ATOM      3  C   UNL     1      -1.622  -5.055  -0.882  0.00  0.00    +0.221 A 
ATOM      4  C   UNL     1      -0.537  -4.388  -0.412  0.00  0.00    +0.025 A 
ATOM      5  C   UNL     1      -0.477  -4.590   0.980  0.00  0.00    +0.098 A 
ATOM      6  N   UNL     1      -1.495  -5.348   1.328  0.00  0.00    -0.168 NA
ENDROOT
BRANCH   5   7
ATOM      7  C   UNL     1       0.552  -4.039   1.897  0.00  0.00    +0.002 A 
ATOM      8  C   UNL     1       1.897  -4.059   1.531  0.00  0.00    +0.010 A 
ATOM      9  C   UNL     1       2.850  -3.546   2.388  0.00  0.00    +0.001 A 
ATOM     10  C   UNL     1       2.472  -3.011   3.606  0.00  0.00    +0.000 A 
ATOM     11  C   UNL     1       1.139  -2.989   3.974  0.00  0.00    +0.001 A 
ATOM     12  C   UNL     1       0.177  -3.495   3.123  0.00  0.00    +0.010 A 
ENDBRANCH   5   7
BRANCH   4  13
ATOM     13  C   UNL     1       0.430  -3.575  -1.233  0.00  0.00    -0.035 C 
BRANCH  13  14
ATOM     14  N   UNL     1       1.480  -4.454  -1.765  0.00  0.00    +0.384 N 
ATOM     15  H   UNL     1       1.932  -4.936  -1.003  0.00  0.00    -0.081 HD
BRANCH  14  16
ATOM     16  C   UNL     1       2.471  -3.649  -2.491  0.00  0.00    -0.075 C 
BRANCH  16  17
ATOM     17  C   UNL     1       3.101  -2.632  -1.537  0.00  0.00    -0.028 C 
ATOM     18  C   UNL     1       2.840  -1.150  -1.812  0.00  0.00    +0.002 C 
ATOM     19  C   UNL     1       4.222  -1.747  -2.087  0.00  0.00    +0.002 C 
ENDBRANCH  16  17
ENDBRANCH  14  16
BRANCH  14  20
ATOM     20  C   UNL     1       0.881  -5.435  -2.679  0.00  0.00    -0.043 C 
BRANCH  20  21
ATOM     21  C   UNL     1       1.936  -6.468  -3.081  0.00  0.00    +0.135 C 
BRANCH  21  22
ATOM     22  O   UNL     1       2.910  -5.850  -3.926  0.00  0.00    -0.390 OA
ATOM     23  H   UNL     1       2.545  -5.481  -4.742  0.00  0.00    +0.210 HD
ENDBRANCH  21  22
BRANCH  21  24
ATOM     24  C   UNL     1       1.264  -7.617  -3.835  0.00  0.00    +0.258 C 
BRANCH  24  25
ATOM     25  O   UNL     1       2.228  -8.636  -4.109  0.00  0.00    -0.489 OA
BRANCH  25  26
ATOM     26  C   UNL     1       1.791  -9.735  -4.777  0.00  0.00    +0.121 A 
ATOM     27  C   UNL     1       0.463  -9.829  -5.167  0.00  0.00    +0.045 A 
ATOM     28  C   UNL     1       0.021 -10.948  -5.846  0.00  0.00    +0.004 A 
ATOM     29  C   UNL     1       0.901 -11.973  -6.138  0.00  0.00    +0.000 A 
ATOM     30  C   UNL     1       2.225 -11.882  -5.751  0.00  0.00    +0.004 A 
ATOM     31  C   UNL     1       2.673 -10.763  -5.076  0.00  0.00    +0.045 A 
ENDBRANCH  25  26
ENDBRANCH  24  25
ENDBRANCH  21  24
ENDBRANCH  20  21
ENDBRANCH  14  20
ENDBRANCH  13  14
ENDBRANCH   4  13
BRANCH   3  32
ATOM     32  O   UNL     1      -2.029  -5.110  -2.175  0.00  0.00    -0.438 OA
BRANCH  32  33
ATOM     33  C   UNL     1      -2.879  -4.147  -2.618  0.00  0.00    +0.133 A 
ATOM     34  C   UNL     1      -3.221  -3.087  -1.789  0.00  0.00    +0.046 A 
ATOM     35  C   UNL     1      -4.086  -2.109  -2.240  0.00  0.00    +0.006 A 
ATOM     36  C   UNL     1      -4.612  -2.184  -3.517  0.00  0.00    +0.038 A 
ATOM     37  C   UNL     1      -4.274  -3.240  -4.346  0.00  0.00    +0.127 A 
ATOM     38  C   UNL     1      -3.403  -4.219  -3.900  0.00  0.00    +0.084 A 
ATOM     39  F   UNL     1      -4.789  -3.312  -5.593  0.00  0.00    -0.205 F 
ENDBRANCH  32  33
ENDBRANCH   3  32
TORSDOF 13
