REMARK  Name = ZINC20748534
REMARK  9 active torsions:
REMARK  status: ('A' for Active; 'I' for Inactive)
REMARK    1  A    between atoms: C_1  and  C_2
REMARK    2  A    between atoms: C_2  and  O_3
REMARK    3  A    between atoms: O_3  and  C_4
REMARK    4  A    between atoms: C_9  and  C_10
REMARK    5  A    between atoms: C_21  and  S_26
REMARK    6  A    between atoms: S_26  and  N_29
REMARK    7  A    between atoms: N_29  and  C_30
REMARK    8  A    between atoms: C_32  and  C_37
REMARK    9  A    between atoms: C_34  and  C_36
REMARK                            x       y       z     vdW  Elec       q    Type
REMARK                         _______ _______ _______ _____ _____    ______ ____
ROOT
ATOM      1  C   UNL     1      -3.777   8.415   1.340  0.00  0.00    +0.108 C 
ATOM      2  C   UNL     1      -4.207   8.656  -0.096  0.00  0.00    +0.029 C 
ATOM      3  C   UNL     1      -4.168  10.103  -0.606  0.00  0.00    +0.033 C 
ATOM      4  C   UNL     1      -5.282  10.090  -1.654  0.00  0.00    -0.030 C 
ATOM      5  C   UNL     1      -6.169   9.146  -1.363  0.00  0.00    -0.023 C 
ATOM      6  C   UNL     1      -5.756   8.480  -0.101  0.00  0.00    +0.049 C 
ATOM      7  C   UNL     1      -6.049   7.054   0.161  0.00  0.00    -0.018 A 
ATOM      8  C   UNL     1      -7.114   6.399  -0.419  0.00  0.00    +0.034 A 
ATOM      9  C   UNL     1      -7.354   5.067  -0.132  0.00  0.00    +0.109 A 
ATOM     10  C   UNL     1      -6.524   4.388   0.742  0.00  0.00    +0.030 A 
ATOM     11  C   UNL     1      -5.453   5.034   1.324  0.00  0.00    +0.025 A 
ATOM     12  C   UNL     1      -5.199   6.370   1.038  0.00  0.00    +0.031 A 
ATOM     13  N   UNL     1      -4.086   6.994   1.614  0.00  0.00    -0.336 N 
ATOM     14  H   UNL     1      -3.436   6.409   2.281  0.00  0.00    +0.147 HD
ENDROOT
BRANCH   1  20
ATOM     15  C   UNL     1      -1.831   9.950   1.715  0.00  0.00    +0.125 A 
ATOM     16  C   UNL     1      -0.469  10.177   1.851  0.00  0.00    +0.046 A 
ATOM     17  C   UNL     1       0.418   9.121   1.762  0.00  0.00    +0.004 A 
ATOM     18  C   UNL     1      -0.051   7.840   1.536  0.00  0.00    +0.001 A 
ATOM     19  C   UNL     1      -1.407   7.613   1.394  0.00  0.00    +0.009 A 
ATOM     20  C   UNL     1      -2.299   8.664   1.489  0.00  0.00    +0.015 A 
BRANCH  15  21
ATOM     21  O   UNL     1      -2.705  10.987   1.803  0.00  0.00    -0.492 OA
BRANCH  21  23
ATOM     22  C   UNL     1      -3.282  13.314   2.105  0.00  0.00    +0.048 C 
ATOM     23  C   UNL     1      -2.153  12.284   2.037  0.00  0.00    +0.225 C 
ENDBRANCH  21  23
ENDBRANCH  15  21
ENDBRANCH   1  20
BRANCH   9  24
ATOM     24  S   UNL     1      -8.716   4.237  -0.880  0.00  0.00    +0.072 S 
ATOM     25  O   UNL     1      -8.933   4.864  -2.137  0.00  0.00    -0.150 OA
ATOM     26  O   UNL     1      -8.459   2.844  -0.758  0.00  0.00    -0.150 OA
BRANCH  24  27
ATOM     27  N   UNL     1     -10.051   4.554   0.045  0.00  0.00    -0.216 N 
ATOM     28  H   UNL     1     -10.900   5.105  -0.385  0.00  0.00    +0.174 HD
BRANCH  27  29
ATOM     29  C   UNL     1     -10.100   4.123   1.373  0.00  0.00    +0.049 A 
ATOM     30  C   UNL     1     -10.328   2.783   1.661  0.00  0.00    +0.028 A 
ATOM     31  C   UNL     1     -10.371   2.359   2.975  0.00  0.00    -0.048 A 
ATOM     32  C   UNL     1     -10.197   3.268   4.003  0.00  0.00    +0.006 A 
ATOM     33  C   UNL     1      -9.975   4.603   3.719  0.00  0.00    -0.048 A 
ATOM     34  C   UNL     1      -9.926   5.033   2.408  0.00  0.00    +0.028 A 
ATOM     35  C   UNL     1      -9.786   5.590   4.842  0.00  0.00    +0.044 C 
ATOM     36  C   UNL     1     -10.613   0.905   3.289  0.00  0.00    +0.044 C 
ENDBRANCH  27  29
ENDBRANCH  24  27
ENDBRANCH   9  24
TORSDOF 6
