REMARK  Name = ZINC33959166
REMARK  12 active torsions:
REMARK  status: ('A' for Active; 'I' for Inactive)
REMARK    1  A    between atoms: C_1  and  O_2
REMARK    2  A    between atoms: O_2  and  C_3
REMARK    3  A    between atoms: C_5  and  C_12
REMARK    4  A    between atoms: C_8  and  O_9
REMARK    5  A    between atoms: O_9  and  C_10
REMARK    6  A    between atoms: N_13  and  N_14
REMARK    7  A    between atoms: C_15  and  C_17
REMARK    8  A    between atoms: C_17  and  C_18
REMARK    9  A    between atoms: C_18  and  C_19
REMARK   10  A    between atoms: C_19  and  N_20
REMARK   11  A    between atoms: C_21  and  C_23
REMARK   12  A    between atoms: C_27  and  N_29
REMARK                            x       y       z     vdW  Elec       q    Type
REMARK                         _______ _______ _______ _____ _____    ______ ____
ROOT
ATOM      1  N   UNL     1       3.543   0.540  -6.244  0.00  0.00    -0.207 N 
ATOM      2  C   UNL     1       4.141  -0.062  -7.291  0.00  0.00    +0.232 C 
ATOM      3  O   UNL     1       4.182  -1.273  -7.351  0.00  0.00    -0.274 OA
ATOM      4  H   UNL     1       3.510   1.509  -6.196  0.00  0.00    +0.177 HD
ENDROOT
BRANCH   1   6
ATOM      5  C   UNL     1       2.394   0.348  -4.217  0.00  0.00    +0.138 C 
ATOM      6  N   UNL     1       2.970  -0.232  -5.225  0.00  0.00    -0.188 NA
BRANCH   5   9
ATOM      7  C   UNL     1       0.606  -0.608  -1.056  0.00  0.00    +0.163 A 
ATOM      8  C   UNL     1       1.171   0.159  -2.059  0.00  0.00    +0.059 A 
ATOM      9  C   UNL     1       1.791  -0.464  -3.145  0.00  0.00    -0.001 A 
ATOM     10  C   UNL     1       1.837  -1.859  -3.213  0.00  0.00    +0.028 A 
ATOM     11  C   UNL     1       1.272  -2.617  -2.209  0.00  0.00    +0.064 A 
ATOM     12  C   UNL     1       0.661  -1.998  -1.127  0.00  0.00    +0.175 A 
ATOM     13 BR   UNL     1       1.335  -4.505  -2.303  0.00  0.00    -0.046 Br
BRANCH   7  15
ATOM     14  C   UNL     1      -0.017   1.425   0.010  0.00  0.00    +0.277 C 
ATOM     15  O   UNL     1       0.002  -0.004   0.002  0.00  0.00    -0.491 OA
ENDBRANCH   7  15
BRANCH  12  16
ATOM     16  O   UNL     1       0.110  -2.749  -0.138  0.00  0.00    -0.490 OA
ATOM     17  C   UNL     1      -1.262  -3.119  -0.291  0.00  0.00    +0.277 C 
ENDBRANCH  12  16
ENDBRANCH   5   9
ENDBRANCH   1   6
BRANCH   2  18
ATOM     18  C   UNL     1       4.758   0.768  -8.387  0.00  0.00    +0.099 C 
BRANCH  18  19
ATOM     19  C   UNL     1       5.364  -0.154  -9.446  0.00  0.00    +0.028 C 
BRANCH  19  20
ATOM     20  C   UNL     1       5.990   0.689 -10.559  0.00  0.00    +0.105 C 
BRANCH  20  21
ATOM     21  N   UNL     1       6.571  -0.194 -11.573  0.00  0.00    -0.311 N 
ATOM     22  C   UNL     1       7.181   0.331 -12.654  0.00  0.00    +0.244 C 
ATOM     23  O   UNL     1       7.250   1.537 -12.787  0.00  0.00    -0.270 OA
ATOM     24  H   UNL     1       6.516  -1.157 -11.466  0.00  0.00    +0.149 HD
BRANCH  22  25
ATOM     25  C   UNL     1       7.767  -0.561 -13.678  0.00  0.00    +0.039 A 
ATOM     26  C   UNL     1       7.685  -1.947 -13.530  0.00  0.00    +0.013 A 
ATOM     27  C   UNL     1       8.234  -2.773 -14.489  0.00  0.00    +0.003 A 
ATOM     28  C   UNL     1       8.865  -2.231 -15.595  0.00  0.00    +0.033 A 
ATOM     29  C   UNL     1       8.950  -0.858 -15.747  0.00  0.00    +0.127 A 
ATOM     30  C   UNL     1       8.400  -0.021 -14.798  0.00  0.00    +0.045 A 
BRANCH  29  31
ATOM     31  N   UNL     1       9.627  -0.287 -16.933  0.00  0.00    +0.056 N 
ATOM     32  O   UNL     1      10.105  -1.020 -17.767  0.00  0.00    -0.126 OA
ATOM     33  O   UNL     1       9.702   0.912 -17.067  0.00  0.00    -0.126 OA
ENDBRANCH  29  31
ENDBRANCH  22  25
ENDBRANCH  20  21
ENDBRANCH  19  20
ENDBRANCH  18  19
ENDBRANCH   2  18
TORSDOF 10
