REMARK  Name = ZINC38547923
REMARK  8 active torsions:
REMARK  status: ('A' for Active; 'I' for Inactive)
REMARK    1  A    between atoms: C_1  and  C_2
REMARK    2  A    between atoms: C_2  and  C_3
REMARK    3  A    between atoms: C_5  and  C_16
REMARK    4  A    between atoms: C_6  and  N_8
REMARK    5  A    between atoms: C_9  and  C_11
REMARK    6  A    between atoms: C_16  and  C_18
REMARK    7  A    between atoms: C_16  and  N_27
REMARK    8  A    between atoms: C_32  and  C_34
REMARK                            x       y       z     vdW  Elec       q    Type
REMARK                         _______ _______ _______ _____ _____    ______ ____
ROOT
ATOM      1  C   UNL     1       3.909  -1.511  -2.897  0.00  0.00    +0.135 C 
ENDROOT
BRANCH   1   2
ATOM      2  N   UNL     1       4.732  -0.749  -1.955  0.00  0.00    -0.320 N 
ATOM      3  C   UNL     1       6.015  -0.353  -2.316  0.00  0.00    +0.097 A 
ATOM      4  C   UNL     1       6.509  -0.680  -3.575  0.00  0.00    +0.041 A 
ATOM      5  C   UNL     1       7.787  -0.280  -3.921  0.00  0.00    +0.005 A 
ATOM      6  C   UNL     1       8.531   0.436  -2.992  0.00  0.00    +0.021 A 
ATOM      7  C   UNL     1       7.979   0.725  -1.761  0.00  0.00    +0.014 A 
ATOM      8  N   UNL     1       6.754   0.335  -1.460  0.00  0.00    -0.347 N 
ATOM      9  C   UNL     1       8.782   1.501  -0.749  0.00  0.00    +0.063 C 
ATOM     10  H   UNL     1       4.382  -0.520  -1.080  0.00  0.00    +0.148 HD
ATOM     11  H   UNL     1       6.388   0.555  -0.589  0.00  0.00    +0.167 HD
ENDBRANCH   1   2
BRANCH   1  12
ATOM     12  C   UNL     1       4.243  -2.976  -2.785  0.00  0.00    -0.019 A 
ATOM     13  C   UNL     1       4.467  -3.539  -1.542  0.00  0.00    +0.009 A 
ATOM     14  C   UNL     1       4.773  -4.883  -1.434  0.00  0.00    +0.050 A 
ATOM     15  C   UNL     1       4.856  -5.669  -2.572  0.00  0.00    +0.166 A 
ATOM     16  C   UNL     1       4.631  -5.102  -3.824  0.00  0.00    +0.167 A 
ATOM     17  C   UNL     1       4.319  -3.756  -3.924  0.00  0.00    +0.055 A 
ATOM     18  O   UNL     1       4.770  -6.072  -4.774  0.00  0.00    -0.453 OA
ATOM     19  C   UNL     1       5.483  -7.143  -4.128  0.00  0.00    +0.466 C 
ATOM     20  O   UNL     1       5.137  -6.995  -2.738  0.00  0.00    -0.453 OA
ENDBRANCH   1  12
BRANCH   1  23
ATOM     21  C   UNL     1       0.736  -0.810  -1.030  0.00  0.00    -0.008 A 
ATOM     22  C   UNL     1       2.054  -0.993  -1.286  0.00  0.00    +0.019 A 
ATOM     23  C   UNL     1       2.452  -1.302  -2.574  0.00  0.00    +0.006 A 
ATOM     24  C   UNL     1       1.503  -1.413  -3.545  0.00  0.00    +0.078 A 
ATOM     25  S   UNL     1       0.003  -1.084  -2.635  0.00  0.00    -0.078 S 
BRANCH  24  26
ATOM     26  N   UNL     1       1.661  -1.713  -4.900  0.00  0.00    -0.273 N 
ATOM     27  C   UNL     1       0.584  -1.778  -5.706  0.00  0.00    +0.284 C 
ATOM     28  O   UNL     1      -0.528  -1.575  -5.254  0.00  0.00    -0.266 OA
ATOM     29  H   UNL     1       2.547  -1.875  -5.260  0.00  0.00    +0.156 HD
BRANCH  27  30
ATOM     30  C   UNL     1       0.750  -2.093  -7.129  0.00  0.00    +0.189 A 
ATOM     31  C   UNL     1      -0.251  -2.184  -8.053  0.00  0.00    +0.054 A 
ATOM     32  C   UNL     1       0.358  -2.502  -9.277  0.00  0.00    +0.042 A 
ATOM     33  C   UNL     1       1.687  -2.590  -9.049  0.00  0.00    +0.196 A 
ATOM     34  O   UNL     1       1.920  -2.338  -7.755  0.00  0.00    -0.458 OA
ENDBRANCH  27  30
ENDBRANCH  24  26
BRANCH  21  36
ATOM     35  C   UNL     1      -0.036   1.050   0.417  0.00  0.00    +0.009 C 
ATOM     36  C   UNL     1       0.062  -0.471   0.274  0.00  0.00    +0.039 C 
ENDBRANCH  21  36
ENDBRANCH   1  23
TORSDOF 6
