REMARK  Name = ZINC14224472
REMARK  7 active torsions:
REMARK  status: ('A' for Active; 'I' for Inactive)
REMARK    1  A    between atoms: C_1  and  C_2
REMARK    2  A    between atoms: C_3  and  N_17
REMARK    3  A    between atoms: C_4  and  C_16
REMARK    4  A    between atoms: N_5  and  C_7
REMARK    5  A    between atoms: C_7  and  C_8
REMARK    6  A    between atoms: N_17  and  S_18
REMARK    7  A    between atoms: S_18  and  C_21
REMARK                            x       y       z     vdW  Elec       q    Type
REMARK                         _______ _______ _______ _____ _____    ______ ____
ROOT
ATOM      1  C   UNL     1       0.554   1.173   0.113  0.00  0.00    +0.069 C 
ATOM      2  C   UNL     1       0.313  -0.308  -0.028  0.00  0.00    +0.082 A 
ATOM      3  C   UNL     1      -0.036  -0.974  -1.211  0.00  0.00    +0.091 A 
ATOM      4  C   UNL     1      -0.162  -2.295  -0.924  0.00  0.00    +0.059 A 
ATOM      5  N   UNL     1       0.101  -2.453   0.400  0.00  0.00    -0.262 N 
ATOM      6  N   UNL     1       0.401  -1.193   0.933  0.00  0.00    -0.174 NA
ATOM      7  C   UNL     1      -0.526  -3.386  -1.897  0.00  0.00    +0.067 C 
ENDROOT
BRANCH   3   8
ATOM      8  N   UNL     1      -0.224  -0.378  -2.473  0.00  0.00    -0.213 N 
ATOM      9  H   UNL     1      -1.074  -0.470  -2.931  0.00  0.00    +0.174 HD
BRANCH   8  10
ATOM     10  S   UNL     1       1.007   0.478  -3.176  0.00  0.00    +0.072 S 
ATOM     11  O   UNL     1       0.551   0.861  -4.466  0.00  0.00    -0.150 OA
ATOM     12  O   UNL     1       1.446   1.425  -2.211  0.00  0.00    -0.150 OA
BRANCH  10  13
ATOM     13  C   UNL     1       2.344  -0.642  -3.427  0.00  0.00    +0.109 A 
ATOM     14  C   UNL     1       3.355  -0.733  -2.487  0.00  0.00    +0.030 A 
ATOM     15  C   UNL     1       4.404  -1.611  -2.684  0.00  0.00    +0.022 A 
ATOM     16  C   UNL     1       4.442  -2.399  -3.821  0.00  0.00    +0.041 A 
ATOM     17  C   UNL     1       3.431  -2.307  -4.760  0.00  0.00    +0.022 A 
ATOM     18  C   UNL     1       2.380  -1.433  -4.560  0.00  0.00    +0.030 A 
ATOM     19 CL   UNL     1       5.760  -3.502  -4.068  0.00  0.00    -0.084 Cl
ENDBRANCH  10  13
ENDBRANCH   8  10
ENDBRANCH   3   8
BRANCH   5  20
ATOM     20  C   UNL     1       0.081  -3.719   1.138  0.00  0.00    +0.181 C 
BRANCH  20  21
ATOM     21  C   UNL     1       1.449  -4.348   1.095  0.00  0.00    +0.010 A 
ATOM     22  C   UNL     1       1.781  -5.213   0.068  0.00  0.00    +0.047 A 
ATOM     23  C   UNL     1       3.038  -5.790   0.029  0.00  0.00    +0.020 A 
ATOM     24  C   UNL     1       3.962  -5.503   1.016  0.00  0.00    +0.003 A 
ATOM     25  C   UNL     1       3.631  -4.639   2.042  0.00  0.00    +0.020 A 
ATOM     26  C   UNL     1       2.376  -4.056   2.079  0.00  0.00    +0.047 A 
ATOM     27 CL   UNL     1       1.964  -2.964   3.364  0.00  0.00    -0.083 Cl
ATOM     28 CL   UNL     1       0.620  -5.575  -1.172  0.00  0.00    -0.083 Cl
ENDBRANCH  20  21
ENDBRANCH   5  20
TORSDOF 5
