REMARK  Name = ZINC40878504
REMARK  4 active torsions:
REMARK  status: ('A' for Active; 'I' for Inactive)
REMARK    1  A    between atoms: C_4  and  C_7
REMARK    2  A    between atoms: C_9  and  C_12
REMARK    3  A    between atoms: C_15  and  N_19
REMARK    4  A    between atoms: C_23  and  C_26
REMARK                            x       y       z     vdW  Elec       q    Type
REMARK                         _______ _______ _______ _____ _____    ______ ____
ROOT
ATOM      1  N   UNL     1       7.285  -7.505  -0.173  0.00  0.00    -0.327 N 
ATOM      2  C   UNL     1       7.584  -8.183   1.095  0.00  0.00    +0.105 C 
ATOM      3  C   UNL     1       9.048  -8.633   1.081  0.00  0.00    +0.020 C 
ATOM      4  C   UNL     1       9.303  -9.487  -0.163  0.00  0.00    +0.016 C 
ATOM      5  C   UNL     1       9.043  -8.652  -1.419  0.00  0.00    +0.092 C 
ATOM      6  C   UNL     1       7.573  -8.205  -1.433  0.00  0.00    +0.118 C 
ENDROOT
BRANCH   5   7
ATOM      7  C   UNL     1       9.326  -9.484  -2.643  0.00  0.00    +0.220 C 
ATOM      8  O   UNL     1       8.466 -10.208  -3.097  0.00  0.00    -0.275 OA
ATOM      9  N   UNL     1      10.536  -9.422  -3.234  0.00  0.00    -0.298 N 
ATOM     10  C   UNL     1      11.628  -8.650  -2.624  0.00  0.00    +0.126 C 
ATOM     11  C   UNL     1      12.837  -9.575  -2.439  0.00  0.00    +0.125 C 
ATOM     12  N   UNL     1      13.088 -10.279  -3.704  0.00  0.00    -0.314 N 
ATOM     13  C   UNL     1      11.997 -11.051  -4.314  0.00  0.00    +0.125 C 
ATOM     14  C   UNL     1      10.789 -10.131  -4.496  0.00  0.00    +0.126 C 
ATOM     15  C   UNL     1      14.336 -10.216  -4.314  0.00  0.00    +0.099 A 
ATOM     16  C   UNL     1      15.390  -9.583  -3.662  0.00  0.00    +0.042 A 
ATOM     17  C   UNL     1      16.627  -9.528  -4.280  0.00  0.00    +0.005 A 
ATOM     18  C   UNL     1      16.768 -10.109  -5.533  0.00  0.00    +0.018 A 
ATOM     19  C   UNL     1      15.679 -10.720  -6.122  0.00  0.00    +0.084 A 
ATOM     20  N   UNL     1      14.512 -10.763  -5.506  0.00  0.00    -0.350 N 
ATOM     21  H   UNL     1      13.764 -11.202  -5.940  0.00  0.00    +0.166 HD
ENDBRANCH   5   7
BRANCH   1  25
ATOM     22  C   UNL     1       5.637  -3.677  -0.198  0.00  0.00    +0.025 A 
ATOM     23  C   UNL     1       4.806  -4.796  -0.182  0.00  0.00    +0.013 A 
ATOM     24  C   UNL     1       5.353  -6.061  -0.174  0.00  0.00    +0.027 A 
ATOM     25  C   UNL     1       6.734  -6.223  -0.182  0.00  0.00    +0.065 A 
ATOM     26  C   UNL     1       7.567  -5.108  -0.197  0.00  0.00    +0.145 A 
ATOM     27  C   UNL     1       7.022  -3.840  -0.211  0.00  0.00    +0.052 A 
ATOM     28  F   UNL     1       8.908  -5.267  -0.204  0.00  0.00    -0.204 F 
BRANCH  22  31
ATOM     29  C   UNL     1       3.562  -0.730  -0.207  0.00  0.00    +0.259 A 
ATOM     30  N   UNL     1       3.737  -2.031  -0.195  0.00  0.00    -0.187 NA
ATOM     31  C   UNL     1       5.050  -2.315  -0.206  0.00  0.00    +0.202 A 
ATOM     32  N   UNL     1       5.726  -1.192  -0.226  0.00  0.00    -0.056 NA
ATOM     33  O   UNL     1       4.771  -0.142  -0.233  0.00  0.00    -0.332 OA
BRANCH  29  37
ATOM     34  C   UNL     1      -0.182   1.276  -0.190  0.00  0.00    +0.000 A 
ATOM     35  C   UNL     1       0.992   2.008  -0.216  0.00  0.00    +0.001 A 
ATOM     36  C   UNL     1       2.211   1.363  -0.222  0.00  0.00    +0.013 A 
ATOM     37  C   UNL     1       2.259  -0.032  -0.201  0.00  0.00    +0.039 A 
ATOM     38  C   UNL     1       1.071  -0.764  -0.174  0.00  0.00    +0.013 A 
ATOM     39  C   UNL     1      -0.142  -0.107  -0.169  0.00  0.00    +0.001 A 
ENDBRANCH  29  37
ENDBRANCH  22  31
ENDBRANCH   1  25
TORSDOF 4
