REMARK  Name = ZINC15707173
REMARK  3 active torsions:
REMARK  status: ('A' for Active; 'I' for Inactive)
REMARK    1  A    between atoms: C_4  and  C_7
REMARK    2  A    between atoms: C_9  and  C_12
REMARK    3  A    between atoms: N_25  and  C_26
REMARK                            x       y       z     vdW  Elec       q    Type
REMARK                         _______ _______ _______ _____ _____    ______ ____
ROOT
ATOM      1  C   UNL     1       6.452  -4.446   0.446  0.00  0.00    +0.172 C 
ATOM      2  C   UNL     1       7.481  -4.516   1.581  0.00  0.00    +0.087 C 
ATOM      3  C   UNL     1       8.421  -3.346   1.457  0.00  0.00    +0.040 A 
ATOM      4  C   UNL     1       8.584  -2.602   0.342  0.00  0.00    +0.054 A 
ATOM      5  N   UNL     1       9.495  -1.661   0.600  0.00  0.00    -0.348 N 
ATOM      6  C   UNL     1       9.905  -1.790   1.835  0.00  0.00    +0.171 A 
ATOM      7  N   UNL     1       9.255  -2.831   2.403  0.00  0.00    -0.349 N 
ATOM      8  H   UNL     1       9.363  -3.151   3.313  0.00  0.00    +0.166 HD
ATOM      9  C   UNL     1       7.827  -2.841  -0.943  0.00  0.00    +0.165 C 
ATOM     10  N   UNL     1       7.145  -4.143  -0.815  0.00  0.00    -0.267 N 
ATOM     11  C   UNL     1       7.157  -5.033  -1.827  0.00  0.00    +0.307 C 
ATOM     12  O   UNL     1       6.674  -6.138  -1.671  0.00  0.00    -0.252 OA
ATOM     13  N   UNL     1       7.705  -4.698  -3.012  0.00  0.00    -0.269 N 
ATOM     14  H   UNL     1       8.158  -3.846  -3.114  0.00  0.00    +0.156 HD
ATOM     15  H   UNL     1       9.805  -0.991  -0.029  0.00  0.00    +0.166 HD
ENDROOT
BRANCH  13  16
ATOM     16  C   UNL     1       7.620  -5.580  -4.097  0.00  0.00    +0.035 A 
ATOM     17  C   UNL     1       6.503  -6.389  -4.249  0.00  0.00    +0.025 A 
ATOM     18  C   UNL     1       6.422  -7.258  -5.320  0.00  0.00    +0.022 A 
ATOM     19  C   UNL     1       7.453  -7.322  -6.240  0.00  0.00    +0.041 A 
ATOM     20  C   UNL     1       8.568  -6.516  -6.090  0.00  0.00    +0.022 A 
ATOM     21  C   UNL     1       8.651  -5.641  -5.025  0.00  0.00    +0.025 A 
ATOM     22 CL   UNL     1       7.348  -8.415  -7.585  0.00  0.00    -0.084 Cl
ENDBRANCH  13  16
BRANCH   1  25
ATOM     23  C   UNL     1       3.607  -2.365   1.313  0.00  0.00    +0.202 A 
ATOM     24  N   UNL     1       4.223  -3.550   1.145  0.00  0.00    -0.190 NA
ATOM     25  C   UNL     1       5.447  -3.363   0.742  0.00  0.00    +0.249 A 
ATOM     26  O   UNL     1       5.663  -2.045   0.637  0.00  0.00    -0.336 OA
ATOM     27  N   UNL     1       4.450  -1.409   1.009  0.00  0.00    -0.056 NA
BRANCH  23  31
ATOM     28  C   UNL     1      -0.409  -1.817   2.600  0.00  0.00    +0.000 A 
ATOM     29  C   UNL     1       0.378  -0.717   2.310  0.00  0.00    +0.001 A 
ATOM     30  C   UNL     1       1.682  -0.889   1.892  0.00  0.00    +0.012 A 
ATOM     31  C   UNL     1       2.206  -2.174   1.763  0.00  0.00    +0.022 A 
ATOM     32  C   UNL     1       1.409  -3.279   2.056  0.00  0.00    +0.012 A 
ATOM     33  C   UNL     1       0.106  -3.095   2.473  0.00  0.00    +0.001 A 
ENDBRANCH  23  31
ENDBRANCH   1  25
TORSDOF 3
