REMARK  Name = ZINC06312658
REMARK  3 active torsions:
REMARK  status: ('A' for Active; 'I' for Inactive)
REMARK    1  A    between atoms: C_1  and  C_2
REMARK    2  A    between atoms: C_2  and  C_11
REMARK    3  A    between atoms: N_3  and  N_4
REMARK                            x       y       z     vdW  Elec       q    Type
REMARK                         _______ _______ _______ _____ _____    ______ ____
ROOT
ATOM      1  C   UNL     1      -2.849   7.775   0.068  0.00  0.00    -0.001 A 
ATOM      2  C   UNL     1      -2.929   9.169   0.076  0.00  0.00    +0.011 A 
ATOM      3  C   UNL     1      -4.163   9.784   0.092  0.00  0.00    +0.017 A 
ATOM      4  C   UNL     1      -5.327   9.025   0.100  0.00  0.00    +0.034 A 
ATOM      5  C   UNL     1      -5.259   7.632   0.089  0.00  0.00    +0.046 A 
ATOM      6  C   UNL     1      -4.018   7.011   0.069  0.00  0.00    +0.034 A 
ATOM      7  N   UNL     1      -6.404   6.840   0.088  0.00  0.00    -0.313 N 
ATOM      8  C   UNL     1      -7.652   7.240   0.556  0.00  0.00    +0.045 A 
ATOM      9  C   UNL     1      -8.559   6.267   0.965  0.00  0.00    +0.024 A 
ATOM     10  C   UNL     1      -9.809   6.629   1.430  0.00  0.00    +0.002 A 
ATOM     11  C   UNL     1     -10.169   7.962   1.492  0.00  0.00    +0.001 A 
ATOM     12  C   UNL     1      -9.275   8.938   1.091  0.00  0.00    +0.017 A 
ATOM     13  C   UNL     1      -8.017   8.582   0.625  0.00  0.00    +0.034 A 
ATOM     14  S   UNL     1      -6.889   9.839   0.127  0.00  0.00    -0.086 S 
ATOM     15  H   UNL     1      -6.326   5.940  -0.266  0.00  0.00    +0.152 HD
ENDROOT
BRANCH   1  17
ATOM     16  C   UNL     1      -0.273   7.936   0.045  0.00  0.00    +0.068 C 
ATOM     17  C   UNL     1      -1.533   7.111   0.052  0.00  0.00    +0.063 C 
ATOM     18  N   UNL     1      -1.460   5.814   0.045  0.00  0.00    -0.186 NA
BRANCH  18  19
ATOM     19  N   UNL     1      -0.210   5.183   0.030  0.00  0.00    -0.221 N 
ATOM     20  C   UNL     1      -0.132   3.796   0.023  0.00  0.00    +0.138 A 
ATOM     21  C   UNL     1       1.114   3.175   0.008  0.00  0.00    +0.045 A 
ATOM     22  C   UNL     1       1.177   1.794   0.001  0.00  0.00    +0.005 A 
ATOM     23  C   UNL     1      -0.013   1.076   0.008  0.00  0.00    +0.020 A 
ATOM     24  C   UNL     1      -1.214   1.757   0.017  0.00  0.00    +0.113 A 
ATOM     25  N   UNL     1      -1.244   3.076   0.029  0.00  0.00    -0.239 NA
ATOM     26  H   UNL     1       0.602   5.714   0.025  0.00  0.00    +0.176 HD
ENDBRANCH  18  19
ENDBRANCH   1  17
TORSDOF 2
