REMARK  Name = ZINC13033505
REMARK  11 active torsions:
REMARK  status: ('A' for Active; 'I' for Inactive)
REMARK    1  A    between atoms: C_1  and  O_2
REMARK    2  A    between atoms: O_2  and  C_3
REMARK    3  A    between atoms: C_7  and  C_17
REMARK    4  A    between atoms: C_14  and  O_15
REMARK    5  A    between atoms: O_15  and  C_16
REMARK    6  A    between atoms: C_17  and  N_66
REMARK    7  A    between atoms: C_18  and  C_19
REMARK    8  A    between atoms: C_18  and  N_66
REMARK    9  A    between atoms: N_23  and  C_24
REMARK   10  A    between atoms: C_29  and  C_30
REMARK   11  A    between atoms: C_29  and  N_66
REMARK                            x       y       z     vdW  Elec       q    Type
REMARK                         _______ _______ _______ _____ _____    ______ ____
ROOT
ATOM      1  N   UNL     1      -2.259   3.542   3.217  0.00  0.00    +0.389 N 
ATOM      2  H   UNL     1      -1.635   4.215   2.757  0.00  0.00    -0.081 HD
ENDROOT
BRANCH   1   3
ATOM      3  C   UNL     1      -3.292   4.282   3.971  0.00  0.00    -0.037 C 
BRANCH   3   8
ATOM      4  C   UNL     1      -6.901   7.469   0.069  0.00  0.00    +0.162 A 
ATOM      5  C   UNL     1      -6.514   6.380   0.819  0.00  0.00    +0.059 A 
ATOM      6  C   UNL     1      -5.348   6.451   1.592  0.00  0.00    +0.002 A 
ATOM      7  C   UNL     1      -4.906   5.311   2.395  0.00  0.00    +0.017 A 
ATOM      8  C   UNL     1      -3.771   5.436   3.129  0.00  0.00    +0.001 A 
ATOM      9  C   UNL     1      -3.036   6.638   3.102  0.00  0.00    +0.251 A 
ATOM     10  O   UNL     1      -2.017   6.727   3.765  0.00  0.00    -0.268 OA
ATOM     11  N   UNL     1      -3.430   7.690   2.364  0.00  0.00    -0.322 N 
ATOM     12  H   UNL     1      -2.901   8.503   2.368  0.00  0.00    +0.169 HD
ATOM     13  C   UNL     1      -4.578   7.630   1.599  0.00  0.00    +0.053 A 
ATOM     14  C   UNL     1      -4.982   8.719   0.836  0.00  0.00    +0.075 A 
ATOM     15  C   UNL     1      -6.135   8.639   0.077  0.00  0.00    +0.163 A 
BRANCH   4  17
ATOM     16  C   UNL     1      -8.767   6.180  -0.647  0.00  0.00    +0.277 C 
ATOM     17  O   UNL     1      -8.032   7.405  -0.684  0.00  0.00    -0.491 OA
ENDBRANCH   4  17
BRANCH  15  18
ATOM     18  O   UNL     1      -6.527   9.706  -0.667  0.00  0.00    -0.491 OA
ATOM     19  C   UNL     1      -5.701  10.871  -0.616  0.00  0.00    +0.277 C 
ENDBRANCH  15  18
ENDBRANCH   3   8
ENDBRANCH   1   3
BRANCH   1  20
ATOM     20  C   UNL     1      -1.464   2.703   4.138  0.00  0.00    +0.001 C 
BRANCH  20  21
ATOM     21  C   UNL     1      -0.262   2.173   3.399  0.00  0.00    +0.135 A 
ATOM     22  N   UNL     1      -0.206   1.080   2.678  0.00  0.00    -0.115 NA
ATOM     23  N   UNL     1       0.990   0.974   2.209  0.00  0.00    -0.023 NA
ATOM     24  N   UNL     1       1.699   1.966   2.619  0.00  0.00    -0.044 NA
ATOM     25  N   UNL     1       0.963   2.729   3.355  0.00  0.00    -0.228 N 
BRANCH  25  26
ATOM     26  C   UNL     1       1.382   3.966   4.018  0.00  0.00    +0.111 C 
ATOM     27  C   UNL     1       1.915   4.970   2.975  0.00  0.00    +0.027 C 
ATOM     28  C   UNL     1       3.096   5.672   3.693  0.00  0.00    +0.002 C 
ATOM     29  C   UNL     1       3.742   4.517   4.498  0.00  0.00    +0.002 C 
ATOM     30  C   UNL     1       2.543   3.678   4.986  0.00  0.00    +0.027 C 
ENDBRANCH  25  26
ENDBRANCH  20  21
ENDBRANCH   1  20
BRANCH   1  31
ATOM     31  C   UNL     1      -2.895   2.696   2.185  0.00  0.00    -0.046 C 
BRANCH  31  32
ATOM     32  C   UNL     1      -3.726   1.589   2.837  0.00  0.00    +0.102 C 
ATOM     33  C   UNL     1      -4.246   0.595   1.768  0.00  0.00    +0.032 C 
ATOM     34  C   UNL     1      -5.498   0.001   2.459  0.00  0.00    +0.030 C 
ATOM     35  C   UNL     1      -5.865   1.042   3.534  0.00  0.00    +0.160 C 
ATOM     36  O   UNL     1      -4.935   2.131   3.414  0.00  0.00    -0.378 OA
ENDBRANCH  31  32
ENDBRANCH   1  31
TORSDOF 9
