REMARK  Name = ZINC48817315
REMARK  6 active torsions:
REMARK  status: ('A' for Active; 'I' for Inactive)
REMARK    1  A    between atoms: C_1  and  C_2
REMARK    2  A    between atoms: C_9  and  C_11
REMARK    3  A    between atoms: N_13  and  N_14
REMARK    4  A    between atoms: N_14  and  C_15
REMARK    5  A    between atoms: C_15  and  N_17
REMARK    6  A    between atoms: N_17  and  C_18
REMARK                            x       y       z     vdW  Elec       q    Type
REMARK                         _______ _______ _______ _____ _____    ______ ____
ROOT
ATOM      1  C   UNL     1       0.090  -5.622   2.222  0.00  0.00    +0.295 C 
ATOM      2  O   UNL     1       0.097  -5.699   3.436  0.00  0.00    -0.265 OA
ATOM      3  N   UNL     1       0.102  -6.744   1.475  0.00  0.00    -0.229 N 
ATOM      4  H   UNL     1       0.096  -6.683   0.507  0.00  0.00    +0.173 HD
ENDROOT
BRANCH   1  13
ATOM      5  C   UNL     1      -0.018   1.503   0.010  0.00  0.00    +0.044 C 
ATOM      6  C   UNL     1       0.002  -0.004   0.002  0.00  0.00    -0.050 A 
ATOM      7  C   UNL     1       0.006  -0.687  -1.207  0.00  0.00    +0.007 A 
ATOM      8  C   UNL     1       0.024  -2.064  -1.238  0.00  0.00    +0.047 A 
ATOM      9  C   UNL     1       0.040  -2.783  -0.048  0.00  0.00    +0.136 A 
ATOM     10  C   UNL     1       0.037  -2.086   1.175  0.00  0.00    +0.021 A 
ATOM     11  C   UNL     1       0.023  -0.689   1.184  0.00  0.00    +0.015 A 
ATOM     12  C   UNL     1       0.056  -3.112   2.216  0.00  0.00    +0.063 A 
ATOM     13  C   UNL     1       0.069  -4.306   1.569  0.00  0.00    +0.192 A 
ATOM     14  O   UNL     1       0.059  -4.100   0.235  0.00  0.00    -0.450 OA
ENDBRANCH   1  13
BRANCH   3  15
ATOM     15  N   UNL     1       0.122  -7.999   2.098  0.00  0.00    -0.246 N 
ATOM     16  H   UNL     1       0.128  -8.061   3.066  0.00  0.00    +0.172 HD
BRANCH  15  17
ATOM     17  C   UNL     1       0.133  -9.122   1.351  0.00  0.00    +0.147 C 
ATOM     18  S   UNL     1       0.158 -10.655   2.112  0.00  0.00    -0.017 S 
BRANCH  17  19
ATOM     19  N   UNL     1       0.125  -9.037   0.006  0.00  0.00    -0.323 N 
ATOM     20  H   UNL     1       0.111  -8.168  -0.425  0.00  0.00    +0.148 HD
BRANCH  19  21
ATOM     21  C   UNL     1       0.138 -10.256  -0.805  0.00  0.00    +0.072 C 
ATOM     22  C   UNL     1       1.069 -10.288  -2.019  0.00  0.00    +0.024 C 
ATOM     23  C   UNL     1      -0.444 -10.171  -2.217  0.00  0.00    +0.024 C 
ENDBRANCH  19  21
ENDBRANCH  17  19
ENDBRANCH  15  17
ENDBRANCH   3  15
TORSDOF 5
