REMARK  Name = ZINC22370047
REMARK  15 active torsions:
REMARK  status: ('A' for Active; 'I' for Inactive)
REMARK    1  A    between atoms: C_1  and  C_2
REMARK    2  A    between atoms: C_2  and  O_3
REMARK    3  A    between atoms: O_3  and  C_4
REMARK    4  A    between atoms: C_9  and  N_10
REMARK    5  A    between atoms: N_10  and  C_11
REMARK    6  A    between atoms: N_10  and  S_26
REMARK    7  A    between atoms: C_11  and  C_12
REMARK    8  A    between atoms: N_14  and  C_15
REMARK    9  A    between atoms: C_15  and  C_17
REMARK   10  A    between atoms: C_15  and  C_18
REMARK   11  A    between atoms: C_20  and  C_25
REMARK   12  A    between atoms: C_23  and  C_24
REMARK   13  A    between atoms: S_26  and  C_29
REMARK   14  A    between atoms: C_32  and  S_35
REMARK   15  A    between atoms: S_35  and  C_36
REMARK                            x       y       z     vdW  Elec       q    Type
REMARK                         _______ _______ _______ _____ _____    ______ ____
ROOT
ATOM      1  N   UNL     1      -1.552  -2.450   0.010  0.00  0.00    -0.191 N 
ENDROOT
BRANCH   1   7
ATOM      2  C   UNL     1       0.371  -2.488   1.479  0.00  0.00    +0.143 A 
ATOM      3  C   UNL     1       1.373  -1.815   2.157  0.00  0.00    +0.047 A 
ATOM      4  C   UNL     1       1.472  -0.439   2.059  0.00  0.00    +0.004 A 
ATOM      5  C   UNL     1       0.572   0.269   1.284  0.00  0.00    +0.002 A 
ATOM      6  C   UNL     1      -0.428  -0.396   0.600  0.00  0.00    +0.028 A 
ATOM      7  C   UNL     1      -0.537  -1.775   0.698  0.00  0.00    +0.093 A 
BRANCH   2   8
ATOM      8  O   UNL     1       0.273  -3.841   1.574  0.00  0.00    -0.490 OA
BRANCH   8  10
ATOM      9  C   UNL     1       0.969  -6.012   2.376  0.00  0.00    +0.048 C 
ATOM     10  C   UNL     1       1.238  -4.506   2.392  0.00  0.00    +0.226 C 
ENDBRANCH   8  10
ENDBRANCH   2   8
ENDBRANCH   1   7
BRANCH   1  11
ATOM     11  S   UNL     1      -2.972  -2.816   0.779  0.00  0.00    +0.075 S 
ATOM     12  O   UNL     1      -2.683  -2.854   2.170  0.00  0.00    -0.150 OA
ATOM     13  O   UNL     1      -3.535  -3.922   0.088  0.00  0.00    -0.150 OA
BRANCH  11  14
ATOM     14  C   UNL     1      -4.065  -1.457   0.529  0.00  0.00    +0.109 A 
ATOM     15  C   UNL     1      -4.904  -1.439  -0.570  0.00  0.00    +0.030 A 
ATOM     16  C   UNL     1      -5.762  -0.376  -0.769  0.00  0.00    +0.016 A 
ATOM     17  C   UNL     1      -5.782   0.678   0.137  0.00  0.00    +0.008 A 
ATOM     18  C   UNL     1      -4.939   0.656   1.242  0.00  0.00    +0.016 A 
ATOM     19  C   UNL     1      -4.083  -0.410   1.434  0.00  0.00    +0.030 A 
BRANCH  17  20
ATOM     20  S   UNL     1      -6.876   2.037  -0.112  0.00  0.00    -0.129 S 
ATOM     21  C   UNL     1      -6.545   3.131   1.296  0.00  0.00    +0.090 C 
ENDBRANCH  17  20
ENDBRANCH  11  14
ENDBRANCH   1  11
BRANCH   1  22
ATOM     22  C   UNL     1      -1.358  -2.833  -1.391  0.00  0.00    +0.227 C 
BRANCH  22  23
ATOM     23  C   UNL     1      -1.722  -1.674  -2.283  0.00  0.00    +0.233 C 
ATOM     24  O   UNL     1      -2.106  -0.631  -1.796  0.00  0.00    -0.274 OA
ATOM     25  N   UNL     1      -1.622  -1.796  -3.621  0.00  0.00    -0.307 N 
ATOM     26  H   UNL     1      -1.274  -2.742  -4.062  0.00  0.00    +0.149 HD
BRANCH  25  27
ATOM     27  C   UNL     1      -1.975  -0.670  -4.489  0.00  0.00    +0.100 C 
ATOM     28  C   UNL     1      -1.196  -0.772  -5.801  0.00  0.00    +0.033 C 
BRANCH  27  29
ATOM     29  C   UNL     1      -3.454  -0.704  -4.779  0.00  0.00    -0.024 A 
ATOM     30  C   UNL     1      -4.157  -1.887  -4.648  0.00  0.00    +0.009 A 
ATOM     31  C   UNL     1      -5.513  -1.919  -4.914  0.00  0.00    -0.050 A 
ATOM     32  C   UNL     1      -6.166  -0.767  -5.310  0.00  0.00    +0.003 A 
ATOM     33  C   UNL     1      -5.464   0.416  -5.440  0.00  0.00    +0.004 A 
ATOM     34  C   UNL     1      -4.108   0.449  -5.170  0.00  0.00    -0.046 A 
ATOM     35  C   UNL     1      -3.343   1.740  -5.307  0.00  0.00    +0.044 C 
ATOM     36  C   UNL     1      -6.279  -3.209  -4.771  0.00  0.00    +0.044 C 
ENDBRANCH  27  29
ENDBRANCH  25  27
ENDBRANCH  22  23
ENDBRANCH   1  22
TORSDOF 10
