REMARK  Name = ZINC64519957
REMARK  6 active torsions:
REMARK  status: ('A' for Active; 'I' for Inactive)
REMARK    1  A    between atoms: C_1  and  C_2
REMARK    2  A    between atoms: C_7  and  C_12
REMARK    3  A    between atoms: C_12  and  N_13
REMARK    4  A    between atoms: C_14  and  C_16
REMARK    5  A    between atoms: C_19  and  C_22
REMARK    6  A    between atoms: C_25  and  N_28
REMARK                            x       y       z     vdW  Elec       q    Type
REMARK                         _______ _______ _______ _____ _____    ______ ____
ROOT
ATOM      1  C   UNL     1      -4.840  -4.137   1.421  0.00  0.00    +0.378 C 
ATOM      2  N   UNL     1      -5.020  -2.942   2.260  0.00  0.00    -0.282 N 
ATOM      3  C   UNL     1      -6.219  -3.102   2.931  0.00  0.00    +0.168 C 
ATOM      4  N   UNL     1      -6.786  -4.221   2.615  0.00  0.00    -0.066 NA
ATOM      5  O   UNL     1      -6.003  -4.939   1.677  0.00  0.00    -0.360 OA
ATOM      6  H   UNL     1      -4.414  -2.188   2.331  0.00  0.00    +0.152 HD
ENDROOT
BRANCH   3   7
ATOM      7  C   UNL     1      -6.780  -2.121   3.885  0.00  0.00    +0.018 A 
ATOM      8  C   UNL     1      -6.092  -0.937   4.156  0.00  0.00    +0.013 A 
ATOM      9  C   UNL     1      -6.617  -0.025   5.045  0.00  0.00    +0.024 A 
ATOM     10  C   UNL     1      -7.831  -0.283   5.673  0.00  0.00    +0.030 A 
ATOM     11  C   UNL     1      -8.518  -1.462   5.405  0.00  0.00    +0.024 A 
ATOM     12  C   UNL     1      -8.001  -2.375   4.512  0.00  0.00    +0.013 A 
BRANCH  10  13
ATOM     13  N   UNL     1      -8.359   0.641   6.572  0.00  0.00    -0.330 N 
ATOM     14  C   UNL     1      -9.695   0.443   7.152  0.00  0.00    +0.105 C 
ATOM     15  C   UNL     1      -9.586   0.515   8.678  0.00  0.00    +0.019 C 
ATOM     16  C   UNL     1      -8.918   1.834   9.075  0.00  0.00    +0.003 C 
ATOM     17  C   UNL     1      -7.506   1.890   8.487  0.00  0.00    +0.019 C 
ATOM     18  C   UNL     1      -7.589   1.830   6.963  0.00  0.00    +0.105 C 
ENDBRANCH  10  13
ENDBRANCH   3   7
BRANCH   1  20
ATOM     19  N   UNL     1      -2.379  -4.362   1.538  0.00  0.00    -0.307 N 
ATOM     20  C   UNL     1      -3.591  -4.879   1.823  0.00  0.00    +0.276 C 
ATOM     21  O   UNL     1      -3.676  -5.940   2.402  0.00  0.00    -0.270 OA
ATOM     22  H   UNL     1      -2.311  -3.513   1.074  0.00  0.00    +0.149 HD
BRANCH  19  23
ATOM     23  C   UNL     1      -1.165  -5.083   1.928  0.00  0.00    +0.151 C 
BRANCH  23  30
ATOM     24  C   UNL     1      -0.088   1.543  -0.072  0.00  0.00    +0.044 C 
ATOM     25  C   UNL     1      -0.054   0.036  -0.073  0.00  0.00    -0.048 A 
ATOM     26  C   UNL     1      -0.057  -0.638  -1.306  0.00  0.00    +0.005 A 
ATOM     27  C   UNL     1      -0.028  -1.983  -1.399  0.00  0.00    +0.027 A 
ATOM     28  C   UNL     1       0.008  -2.794  -0.174  0.00  0.00    +0.060 A 
ATOM     29  N   UNL     1       0.039  -4.078   0.036  0.00  0.00    -0.362 N 
ATOM     30  C   UNL     1       0.065  -4.285   1.490  0.00  0.00    +0.191 C 
ATOM     31  N   UNL     1       0.044  -2.949   2.099  0.00  0.00    -0.362 N 
ATOM     32  C   UNL     1       0.011  -2.079   1.131  0.00  0.00    +0.060 A 
ATOM     33  C   UNL     1      -0.017  -0.610   1.109  0.00  0.00    +0.030 A 
ATOM     34  H   UNL     1       0.045  -4.771  -0.642  0.00  0.00    +0.162 HD
ATOM     35  H   UNL     1       0.053  -2.752   3.049  0.00  0.00    +0.162 HD
ENDBRANCH  23  30
ENDBRANCH  19  23
ENDBRANCH   1  20
TORSDOF 5
