REMARK  Name = ZINC09378507
REMARK  8 active torsions:
REMARK  status: ('A' for Active; 'I' for Inactive)
REMARK    1  A    between atoms: C_3  and  C_20
REMARK    2  A    between atoms: C_5  and  S_7
REMARK    3  A    between atoms: S_7  and  N_10
REMARK    4  A    between atoms: N_10  and  C_11
REMARK    5  A    between atoms: N_22  and  C_23
REMARK    6  A    between atoms: C_23  and  C_24
REMARK    7  A    between atoms: C_24  and  C_26
REMARK    8  A    between atoms: C_24  and  N_59
REMARK                            x       y       z     vdW  Elec       q    Type
REMARK                         _______ _______ _______ _____ _____    ______ ____
ROOT
ATOM      1  C   UNL     1       0.378   1.404  -0.134  0.00  0.00    +0.003 A 
ATOM      2  C   UNL     1      -0.801   0.706  -0.293  0.00  0.00    +0.013 A 
ATOM      3  C   UNL     1      -2.023   1.371  -0.186  0.00  0.00    +0.039 A 
ATOM      4  C   UNL     1      -2.044   2.738   0.095  0.00  0.00    +0.041 A 
ATOM      5  C   UNL     1      -0.858   3.425   0.251  0.00  0.00    +0.109 A 
ATOM      6  C   UNL     1       0.350   2.761   0.138  0.00  0.00    +0.029 A 
ENDROOT
BRANCH   3   7
ATOM      7  C   UNL     1      -3.290   0.629  -0.362  0.00  0.00    +0.244 C 
ATOM      8  O   UNL     1      -4.353   1.212  -0.267  0.00  0.00    -0.270 OA
ATOM      9  N   UNL     1      -3.267  -0.692  -0.626  0.00  0.00    -0.312 N 
ATOM     10  H   UNL     1      -2.418  -1.156  -0.701  0.00  0.00    +0.149 HD
BRANCH   9  11
ATOM     11  C   UNL     1      -4.522  -1.427  -0.800  0.00  0.00    +0.097 C 
BRANCH  11  12
ATOM     12  C   UNL     1      -4.222  -2.918  -0.964  0.00  0.00    +0.016 C 
BRANCH  12  17
ATOM     13  C   UNL     1      -6.156  -3.054  -2.436  0.00  0.00    -0.078 C 
ATOM     14  C   UNL     1      -7.092  -4.197  -2.904  0.00  0.00    -0.020 C 
ATOM     15  C   UNL     1      -6.238  -5.463  -2.663  0.00  0.00    -0.020 C 
ATOM     16  C   UNL     1      -5.194  -5.049  -1.609  0.00  0.00    -0.078 C 
ATOM     17  N   UNL     1      -5.484  -3.655  -1.273  0.00  0.00    +0.387 N 
ATOM     18  H   UNL     1      -6.105  -3.617  -0.456  0.00  0.00    -0.081 HD
ENDBRANCH  12  17
BRANCH  12  19
ATOM     19  C   UNL     1      -3.620  -3.452   0.311  0.00  0.00    +0.093 A 
ATOM     20  C   UNL     1      -2.311  -3.665   0.534  0.00  0.00    +0.043 A 
ATOM     21  C   UNL     1      -2.197  -4.167   1.851  0.00  0.00    +0.041 A 
ATOM     22  C   UNL     1      -3.443  -4.230   2.353  0.00  0.00    +0.195 A 
ATOM     23  O   UNL     1      -4.301  -3.790   1.418  0.00  0.00    -0.469 OA
ENDBRANCH  12  19
ENDBRANCH  11  12
ENDBRANCH   9  11
ENDBRANCH   3   7
BRANCH   5  24
ATOM     24  S   UNL     1      -0.882   5.153   0.598  0.00  0.00    +0.072 S 
ATOM     25  O   UNL     1      -2.181   5.450   1.092  0.00  0.00    -0.150 OA
ATOM     26  O   UNL     1       0.297   5.435   1.337  0.00  0.00    -0.150 OA
BRANCH  24  27
ATOM     27  N   UNL     1      -0.735   5.944  -0.850  0.00  0.00    -0.216 N 
ATOM     28  H   UNL     1      -1.446   6.527  -1.158  0.00  0.00    +0.174 HD
BRANCH  27  29
ATOM     29  C   UNL     1       0.416   5.772  -1.627  0.00  0.00    +0.052 A 
ATOM     30  C   UNL     1       1.670   5.835  -1.035  0.00  0.00    +0.028 A 
ATOM     31  C   UNL     1       2.807   5.660  -1.801  0.00  0.00    +0.051 A 
ATOM     32  C   UNL     1       2.699   5.431  -3.163  0.00  0.00    +0.166 A 
ATOM     33  C   UNL     1       1.443   5.372  -3.761  0.00  0.00    +0.168 A 
ATOM     34  C   UNL     1       0.303   5.543  -2.992  0.00  0.00    +0.074 A 
ATOM     35  O   UNL     1       1.605   5.138  -5.096  0.00  0.00    -0.453 OA
ATOM     36  C   UNL     1       2.980   5.461  -5.378  0.00  0.00    +0.466 C 
ATOM     37  O   UNL     1       3.649   5.233  -4.124  0.00  0.00    -0.453 OA
ENDBRANCH  27  29
ENDBRANCH  24  27
ENDBRANCH   5  24
TORSDOF 8
