REMARK  Name = ZINC14528576
REMARK  7 active torsions:
REMARK  status: ('A' for Active; 'I' for Inactive)
REMARK    1  A    between atoms: C_1  and  C_2
REMARK    2  A    between atoms: C_5  and  C_32
REMARK    3  A    between atoms: C_9  and  C_10
REMARK    4  A    between atoms: C_9  and  N_57
REMARK    5  A    between atoms: C_16  and  C_18
REMARK    6  A    between atoms: C_18  and  C_19
REMARK    7  A    between atoms: C_19  and  C_20
REMARK                            x       y       z     vdW  Elec       q    Type
REMARK                         _______ _______ _______ _____ _____    ______ ____
ROOT
ATOM      1  C   UNL     1      -9.554  -2.767   0.081  0.00  0.00    +0.034 A 
ATOM      2  C   UNL     1      -9.357  -4.108   0.072  0.00  0.00    +0.070 A 
ATOM      3  S   UNL     1      -7.572  -4.181   0.047  0.00  0.00    -0.060 S 
ATOM      4  C   UNL     1      -7.276  -2.470   0.060  0.00  0.00    +0.164 A 
ATOM      5  N   UNL     1      -8.499  -1.977   0.075  0.00  0.00    -0.231 NA
ATOM      6  N   UNL     1      -6.062  -1.793   0.052  0.00  0.00    -0.265 N 
ATOM      7  C   UNL     1      -4.905  -2.485   0.037  0.00  0.00    +0.219 C 
ATOM      8  O   UNL     1      -4.924  -3.697   0.031  0.00  0.00    -0.275 OA
ATOM      9  H   UNL     1      -6.047  -0.823   0.057  0.00  0.00    +0.157 HD
ENDROOT
BRANCH   1  10
ATOM     10  C   UNL     1     -10.948  -2.193   0.098  0.00  0.00    -0.022 C 
BRANCH  10  18
ATOM     11  C   UNL     1     -10.557  -1.963   4.283  0.00  0.00    +0.005 C 
ATOM     12  C   UNL     1     -11.723  -2.789   3.734  0.00  0.00    -0.031 C 
ATOM     13  C   UNL     1     -13.017  -1.976   3.834  0.00  0.00    +0.003 C 
ATOM     14  C   UNL     1     -12.888  -0.719   2.969  0.00  0.00    -0.031 C 
ATOM     15  C   UNL     1     -12.587  -1.127   1.525  0.00  0.00    -0.075 C 
ATOM     16  C   UNL     1     -11.456  -3.138   2.268  0.00  0.00    -0.075 C 
ATOM     17  C   UNL     1     -14.198   0.070   3.015  0.00  0.00    +0.005 C 
ATOM     18  N   UNL     1     -11.318  -1.885   1.495  0.00  0.00    +0.384 N 
ATOM     19  H   UNL     1     -10.578  -1.313   1.917  0.00  0.00    -0.081 HD
ENDBRANCH  10  18
ENDBRANCH   1  10
BRANCH   7  20
ATOM     20  C   UNL     1      -3.589  -1.751   0.028  0.00  0.00    +0.104 C 
BRANCH  20  21
ATOM     21  C   UNL     1      -2.441  -2.763   0.012  0.00  0.00    +0.083 C 
BRANCH  21  22
ATOM     22  C   UNL     1      -1.125  -2.030   0.003  0.00  0.00    +0.111 A 
ATOM     23  N   UNL     1       0.020  -2.761  -0.012  0.00  0.00    -0.310 N 
ATOM     24  H   UNL     1      -0.028  -3.729  -0.017  0.00  0.00    +0.170 HD
ATOM     25  C   UNL     1       1.228  -2.150  -0.021  0.00  0.00    +0.259 A 
ATOM     26  O   UNL     1       2.262  -2.792  -0.034  0.00  0.00    -0.267 OA
ATOM     27  C   UNL     1       1.242  -0.679  -0.013  0.00  0.00    +0.065 A 
ATOM     28  C   UNL     1       2.432   0.046  -0.021  0.00  0.00    +0.015 A 
ATOM     29  C   UNL     1       2.388   1.423  -0.013  0.00  0.00    +0.001 A 
ATOM     30  C   UNL     1       1.170   2.090   0.002  0.00  0.00    +0.002 A 
ATOM     31  C   UNL     1      -0.017   1.392   0.010  0.00  0.00    +0.028 A 
ATOM     32  C   UNL     1       0.002  -0.004   0.002  0.00  0.00    +0.078 A 
ATOM     33  N   UNL     1      -1.143  -0.731   0.009  0.00  0.00    -0.234 NA
ENDBRANCH  21  22
ENDBRANCH  20  21
ENDBRANCH   7  20
TORSDOF 5
