REMARK  Name = ZINC14809453
REMARK  5 active torsions:
REMARK  status: ('A' for Active; 'I' for Inactive)
REMARK    1  A    between atoms: C_1  and  C_2
REMARK    2  A    between atoms: C_5  and  N_9
REMARK    3  A    between atoms: C_6  and  O_8
REMARK    4  A    between atoms: C_10  and  C_12
REMARK    5  A    between atoms: N_15  and  C_17
REMARK                            x       y       z     vdW  Elec       q    Type
REMARK                         _______ _______ _______ _____ _____    ______ ____
ROOT
ATOM      1  C   UNL     1      -3.685  -1.049  -0.201  0.00  0.00    +0.151 A 
ATOM      2  C   UNL     1      -3.832  -2.445  -0.326  0.00  0.00    +0.006 A 
ATOM      3  C   UNL     1      -5.162  -2.673  -0.401  0.00  0.00    +0.049 A 
ATOM      4  N   UNL     1      -5.779  -1.468  -0.318  0.00  0.00    -0.236 N 
ATOM      5  N   UNL     1      -4.901  -0.533  -0.205  0.00  0.00    -0.161 NA
ATOM      6  C   UNL     1      -5.811  -4.023  -0.566  0.00  0.00    +0.056 C 
ATOM      7  C   UNL     1      -5.183  -5.008   0.416  0.00  0.00    +0.006 C 
ATOM      8  C   UNL     1      -3.962  -5.670  -0.217  0.00  0.00    +0.001 C 
ATOM      9  C   UNL     1      -3.244  -4.700  -1.152  0.00  0.00    +0.005 C 
ATOM     10  C   UNL     1      -2.749  -3.488  -0.357  0.00  0.00    +0.039 C 
ENDROOT
BRANCH   4  11
ATOM     11  C   UNL     1      -7.166  -1.270  -0.349  0.00  0.00    +0.066 A 
ATOM     12  C   UNL     1      -7.965  -2.080  -1.145  0.00  0.00    +0.030 A 
ATOM     13  C   UNL     1      -9.333  -1.887  -1.170  0.00  0.00    +0.040 A 
ATOM     14  C   UNL     1      -9.905  -0.879  -0.412  0.00  0.00    +0.124 A 
ATOM     15  C   UNL     1      -9.108  -0.067   0.378  0.00  0.00    +0.040 A 
ATOM     16  C   UNL     1      -7.741  -0.260   0.410  0.00  0.00    +0.030 A 
ATOM     17  F   UNL     1     -11.242  -0.687  -0.443  0.00  0.00    -0.205 F 
ENDBRANCH   4  11
BRANCH   1  19
ATOM     18  N   UNL     1      -2.428   1.039   0.019  0.00  0.00    -0.277 N 
ATOM     19  C   UNL     1      -2.415  -0.304  -0.091  0.00  0.00    +0.269 C 
ATOM     20  O   UNL     1      -1.356  -0.903  -0.099  0.00  0.00    -0.268 OA
ATOM     21  H   UNL     1      -3.272   1.511   0.091  0.00  0.00    +0.155 HD
BRANCH  18  26
ATOM     22  C   UNL     1       2.463   3.922   0.049  0.00  0.00    +0.044 C 
ATOM     23  C   UNL     1       1.163   3.160   0.043  0.00  0.00    -0.047 A 
ATOM     24  C   UNL     1       1.094   1.909   0.628  0.00  0.00    +0.005 A 
ATOM     25  C   UNL     1      -0.096   1.206   0.625  0.00  0.00    +0.027 A 
ATOM     26  C   UNL     1      -1.223   1.752   0.029  0.00  0.00    +0.076 A 
ATOM     27  C   UNL     1      -1.154   3.015  -0.556  0.00  0.00    +0.138 A 
ATOM     28  C   UNL     1       0.043   3.714  -0.548  0.00  0.00    +0.050 A 
BRANCH  27  29
ATOM     29  O   UNL     1      -2.257   3.558  -1.138  0.00  0.00    -0.505 OA
ATOM     30  H   UNL     1      -2.353   3.342  -2.075  0.00  0.00    +0.292 HD
ENDBRANCH  27  29
ENDBRANCH  18  26
ENDBRANCH   1  19
TORSDOF 4
