REMARK  Name = ZINC20558653
REMARK  8 active torsions:
REMARK  status: ('A' for Active; 'I' for Inactive)
REMARK    1  A    between atoms: C_1  and  C_2
REMARK    2  A    between atoms: C_2  and  C_3
REMARK    3  A    between atoms: C_6  and  C_9
REMARK    4  A    between atoms: C_11  and  C_35
REMARK    5  A    between atoms: C_12  and  N_34
REMARK    6  A    between atoms: N_19  and  C_26
REMARK    7  A    between atoms: C_26  and  C_27
REMARK    8  A    between atoms: C_31  and  C_33
REMARK                            x       y       z     vdW  Elec       q    Type
REMARK                         _______ _______ _______ _____ _____    ______ ____
ROOT
ATOM      1  C   UNL     1      -0.018   1.500   0.010  0.00  0.00    +0.118 C 
ATOM      2  C   UNL     1       0.002  -0.004   0.002  0.00  0.00    +0.099 C 
ATOM      3  C   UNL     1       1.133  -0.673   0.340  0.00  0.00    +0.199 C 
ATOM      4  O   UNL     1       2.251  -0.018   0.690  0.00  0.00    -0.439 OA
ATOM      5  C   UNL     1       2.428   1.281   0.328  0.00  0.00    +0.162 C 
ATOM      6  C   UNL     1       1.385   2.038  -0.000  0.00  0.00    +0.141 C 
ATOM      7  S   UNL     1       1.665   3.724  -0.460  0.00  0.00    +0.076 S 
ATOM      8  O   UNL     1       1.922   3.736  -1.858  0.00  0.00    -0.150 OA
ATOM      9  O   UNL     1       0.634   4.495   0.140  0.00  0.00    -0.150 OA
ATOM     10  N   UNL     1       3.088   4.137   0.299  0.00  0.00    -0.198 N 
ATOM     11  C   UNL     1       4.107   3.176   0.307  0.00  0.00    +0.062 A 
ATOM     12  C   UNL     1       3.812   1.812   0.315  0.00  0.00    +0.042 A 
ATOM     13  C   UNL     1       4.866   0.890   0.310  0.00  0.00    +0.013 A 
ATOM     14  C   UNL     1       6.172   1.327   0.306  0.00  0.00    +0.001 A 
ATOM     15  C   UNL     1       6.456   2.682   0.305  0.00  0.00    +0.002 A 
ATOM     16  C   UNL     1       5.428   3.604   0.306  0.00  0.00    +0.025 A 
ENDROOT
BRANCH   1  20
ATOM     17  C   UNL     1      -2.033   2.868   3.520  0.00  0.00    -0.048 A 
ATOM     18  C   UNL     1      -2.517   3.205   2.269  0.00  0.00    +0.004 A 
ATOM     19  C   UNL     1      -1.865   2.762   1.134  0.00  0.00    +0.005 A 
ATOM     20  C   UNL     1      -0.729   1.983   1.248  0.00  0.00    -0.033 A 
ATOM     21  C   UNL     1      -0.248   1.642   2.499  0.00  0.00    +0.005 A 
ATOM     22  C   UNL     1      -0.897   2.089   3.634  0.00  0.00    +0.004 A 
BRANCH  17  24
ATOM     23  C   UNL     1      -3.800   2.324   5.172  0.00  0.00    +0.009 C 
ATOM     24  C   UNL     1      -2.744   3.350   4.758  0.00  0.00    +0.032 C 
ENDBRANCH  17  24
ENDBRANCH   1  20
BRANCH   3  25
ATOM     25  N   UNL     1       1.134  -2.046   0.324  0.00  0.00    -0.328 N 
ATOM     26  H   UNL     1       2.045  -2.599   0.597  0.00  0.00    +0.145 HD
ATOM     27  H   UNL     1       0.223  -2.593   0.039  0.00  0.00    +0.145 HD
ENDBRANCH   3  25
BRANCH   2  28
ATOM     28  C   UNL     1      -1.176  -0.732  -0.364  0.00  0.00    +0.101 C 
ATOM     29  N   UNL     1      -2.110  -1.309  -0.654  0.00  0.00    -0.191 NA
ENDBRANCH   2  28
BRANCH  10  30
ATOM     30  C   UNL     1       3.267   5.446   0.931  0.00  0.00    +0.166 C 
BRANCH  30  31
ATOM     31  C   UNL     1       2.943   5.344   2.400  0.00  0.00    -0.028 A 
ATOM     32  C   UNL     1       1.653   5.570   2.841  0.00  0.00    +0.005 A 
ATOM     33  C   UNL     1       1.356   5.472   4.187  0.00  0.00    +0.001 A 
ATOM     34  C   UNL     1       2.351   5.156   5.093  0.00  0.00    +0.003 A 
ATOM     35  C   UNL     1       3.642   4.935   4.653  0.00  0.00    -0.050 A 
ATOM     36  C   UNL     1       3.938   5.029   3.306  0.00  0.00    +0.008 A 
ATOM     37  C   UNL     1       4.727   4.591   5.641  0.00  0.00    +0.044 C 
ENDBRANCH  30  31
ENDBRANCH  10  30
TORSDOF 6
