REMARK  Name = ZINC35842497
REMARK  17 active torsions:
REMARK  status: ('A' for Active; 'I' for Inactive)
REMARK    1  A    between atoms: C_1  and  C_2
REMARK    2  A    between atoms: C_2  and  C_3
REMARK    3  A    between atoms: C_2  and  C_4
REMARK    4  A    between atoms: C_2  and  C_5
REMARK    5  A    between atoms: C_8  and  C_11
REMARK    6  A    between atoms: C_11  and  N_12
REMARK    7  A    between atoms: N_12  and  C_13
REMARK    8  A    between atoms: C_13  and  C_14
REMARK    9  A    between atoms: C_14  and  C_15
REMARK   10  A    between atoms: C_25  and  C_27
REMARK   11  A    between atoms: C_27  and  N_28
REMARK   12  A    between atoms: N_28  and  C_29
REMARK   13  A    between atoms: C_29  and  C_30
REMARK   14  A    between atoms: C_30  and  C_31
REMARK   15  A    between atoms: C_31  and  O_32
REMARK   16  A    between atoms: O_32  and  C_33
REMARK   17  A    between atoms: C_34  and  C_36
REMARK                            x       y       z     vdW  Elec       q    Type
REMARK                         _______ _______ _______ _____ _____    ______ ____
ROOT
ATOM      1  N   UNL     1       2.691   0.137  -6.170  0.00  0.00    -0.296 N 
ATOM      2  C   UNL     1       1.596  -0.178  -6.891  0.00  0.00    +0.233 C 
ATOM      3  O   UNL     1       0.762  -0.928  -6.431  0.00  0.00    -0.274 OA
ENDROOT
BRANCH   1   4
ATOM      4  C   UNL     1       2.873  -0.428  -4.831  0.00  0.00    +0.143 C 
BRANCH   4   8
ATOM      5  C   UNL     1       1.100   2.166  -1.937  0.00  0.00    -0.042 A 
ATOM      6  C   UNL     1       0.350   1.158  -2.514  0.00  0.00    +0.004 A 
ATOM      7  C   UNL     1       0.923   0.319  -3.450  0.00  0.00    +0.005 A 
ATOM      8  C   UNL     1       2.247   0.488  -3.811  0.00  0.00    -0.030 A 
ATOM      9  C   UNL     1       2.997   1.496  -3.235  0.00  0.00    +0.005 A 
ATOM     10  C   UNL     1       2.422   2.338  -2.302  0.00  0.00    +0.004 A 
BRANCH   5  12
ATOM     11  C   UNL     1       0.534   4.525  -1.421  0.00  0.00    +0.015 C 
ATOM     12  C   UNL     1       0.475   3.082  -0.916  0.00  0.00    -0.013 C 
ATOM     13  C   UNL     1       1.239   2.971   0.404  0.00  0.00    +0.015 C 
ATOM     14  C   UNL     1      -0.985   2.678  -0.696  0.00  0.00    +0.015 C 
ENDBRANCH   5  12
ENDBRANCH   4   8
ENDBRANCH   1   4
BRANCH   1  15
ATOM     15  C   UNL     1       3.699   1.043  -6.727  0.00  0.00    +0.113 C 
BRANCH  15  16
ATOM     16  C   UNL     1       4.748   0.232  -7.490  0.00  0.00    +0.056 C 
BRANCH  16  17
ATOM     17  C   UNL     1       5.785   1.164  -8.062  0.00  0.00    -0.021 A 
ATOM     18  C   UNL     1       5.795   1.684  -9.299  0.00  0.00    +0.087 A 
ATOM     19  N   UNL     1       6.892   2.486  -9.459  0.00  0.00    -0.360 N 
ATOM     20  H   UNL     1       7.115   2.971 -10.270  0.00  0.00    +0.165 HD
ATOM     21  C   UNL     1       7.633   2.503  -8.299  0.00  0.00    +0.047 A 
ATOM     22  C   UNL     1       6.969   1.681  -7.370  0.00  0.00    +0.003 A 
ATOM     23  C   UNL     1       7.494   1.512  -6.088  0.00  0.00    +0.010 A 
ATOM     24  C   UNL     1       8.652   2.149  -5.740  0.00  0.00    +0.001 A 
ATOM     25  C   UNL     1       9.309   2.965  -6.651  0.00  0.00    +0.002 A 
ATOM     26  C   UNL     1       8.813   3.138  -7.925  0.00  0.00    +0.026 A 
ENDBRANCH  16  17
ENDBRANCH  15  16
ENDBRANCH   1  15
BRANCH   2  27
ATOM     27  C   UNL     1       1.409   0.403  -8.269  0.00  0.00    +0.203 C 
BRANCH  27  28
ATOM     28  N   UNL     1       0.152  -0.088  -8.840  0.00  0.00    -0.292 N 
ATOM     29  C   UNL     1       0.127  -1.259  -9.508  0.00  0.00    +0.219 C 
ATOM     30  O   UNL     1       1.121  -1.953  -9.552  0.00  0.00    -0.275 OA
BRANCH  29  31
ATOM     31  C   UNL     1      -1.135  -1.704 -10.200  0.00  0.00    +0.075 C 
ATOM     32  C   UNL     1      -2.010  -2.523  -9.228  0.00  0.00    +0.013 C 
ATOM     33  C   UNL     1      -2.631  -3.630 -10.116  0.00  0.00    +0.001 C 
ATOM     34  C   UNL     1      -1.469  -3.991 -11.074  0.00  0.00    +0.001 C 
ATOM     35  C   UNL     1      -0.791  -2.638 -11.374  0.00  0.00    +0.013 C 
ENDBRANCH  29  31
BRANCH  28  36
ATOM     36  C   UNL     1      -1.077   0.692  -8.684  0.00  0.00    +0.110 C 
BRANCH  36  37
ATOM     37  C   UNL     1      -1.157   1.745  -9.791  0.00  0.00    +0.047 C 
BRANCH  37  38
ATOM     38  C   UNL     1      -2.441   2.561  -9.628  0.00  0.00    +0.161 C 
BRANCH  38  39
ATOM     39  O   UNL     1      -2.515   3.544 -10.662  0.00  0.00    -0.383 OA
ATOM     40  C   UNL     1      -3.684   4.364 -10.602  0.00  0.00    +0.193 C 
ENDBRANCH  38  39
ENDBRANCH  37  38
ENDBRANCH  36  37
ENDBRANCH  28  36
ENDBRANCH  27  28
ENDBRANCH   2  27
TORSDOF 13
