REMARK  Name = ZINC39685881
REMARK  15 active torsions:
REMARK  status: ('A' for Active; 'I' for Inactive)
REMARK    1  A    between atoms: C_1  and  C_2
REMARK    2  A    between atoms: C_2  and  C_3
REMARK    3  A    between atoms: C_3  and  C_5
REMARK    4  A    between atoms: C_3  and  C_6
REMARK    5  A    between atoms: C_6  and  C_7
REMARK    6  A    between atoms: C_11  and  C_20
REMARK    7  A    between atoms: N_22  and  C_23
REMARK    8  A    between atoms: C_23  and  C_25
REMARK    9  A    between atoms: C_23  and  C_28
REMARK   10  A    between atoms: C_25  and  C_26
REMARK   11  A    between atoms: C_25  and  C_27
REMARK   12  A    between atoms: N_30  and  C_31
REMARK   13  A    between atoms: C_31  and  C_32
REMARK   14  A    between atoms: C_31  and  C_33
REMARK   15  A    between atoms: C_31  and  C_34
REMARK                            x       y       z     vdW  Elec       q    Type
REMARK                         _______ _______ _______ _____ _____    ______ ____
ROOT
ATOM      1  C   UNL     1      -4.202  -3.546  -2.085  0.00  0.00    +0.216 C 
ATOM      2  O   UNL     1      -5.224  -3.109  -2.571  0.00  0.00    -0.276 OA
ATOM      3  N   UNL     1      -3.987  -4.876  -2.050  0.00  0.00    -0.300 N 
ATOM      4  C   UNL     1      -2.813  -5.591  -1.497  0.00  0.00    +0.121 C 
ATOM      5  C   UNL     1      -3.407  -6.838  -0.804  0.00  0.00    +0.100 C 
ATOM      6  C   UNL     1      -4.756  -7.071  -1.504  0.00  0.00    -0.004 C 
ATOM      7  C   UNL     1      -4.873  -5.953  -2.550  0.00  0.00    +0.115 C 
ATOM      8  C   UNL     1      -5.899  -6.966  -0.499  0.00  0.00    -0.010 C 
ATOM      9  C   UNL     1      -7.225  -7.258  -1.208  0.00  0.00    -0.082 C 
ATOM     10  N   UNL     1      -7.183  -8.603  -1.793  0.00  0.00    +0.379 N 
ATOM     11  C   UNL     1      -6.141  -8.669  -2.825  0.00  0.00    -0.082 C 
ATOM     12  C   UNL     1      -4.770  -8.436  -2.185  0.00  0.00    -0.010 C 
ATOM     13  H   UNL     1      -6.980  -9.277  -1.069  0.00  0.00    -0.086 HD
ATOM     14  H   UNL     1      -8.078  -8.817  -2.206  0.00  0.00    -0.086 HD
ENDROOT
BRANCH   5  15
ATOM     15  C   UNL     1      -2.501  -8.027  -0.996  0.00  0.00    +0.219 C 
ATOM     16  O   UNL     1      -1.838  -8.127  -2.006  0.00  0.00    -0.275 OA
ATOM     17  N   UNL     1      -2.429  -8.979  -0.044  0.00  0.00    -0.303 N 
ATOM     18  H   UNL     1      -2.959  -8.899   0.764  0.00  0.00    +0.149 HD
BRANCH  17  19
ATOM     19  C   UNL     1      -1.548 -10.135  -0.231  0.00  0.00    +0.161 C 
BRANCH  19  20
ATOM     20  C   UNL     1      -2.061 -11.294   0.584  0.00  0.00    +0.234 C 
ATOM     21  O   UNL     1      -2.835 -11.098   1.497  0.00  0.00    -0.274 OA
ATOM     22  N   UNL     1      -1.660 -12.549   0.298  0.00  0.00    -0.309 N 
ATOM     23  H   UNL     1      -0.990 -12.700  -0.386  0.00  0.00    +0.149 HD
BRANCH  22  24
ATOM     24  C   UNL     1      -2.238 -13.685   1.021  0.00  0.00    +0.026 C 
ATOM     25  C   UNL     1      -3.750 -13.719   0.793  0.00  0.00    +0.031 C 
ATOM     26  C   UNL     1      -1.615 -14.985   0.508  0.00  0.00    +0.031 C 
ATOM     27  C   UNL     1      -1.951 -13.537   2.517  0.00  0.00    +0.031 C 
ENDBRANCH  22  24
ENDBRANCH  19  20
BRANCH  19  28
ATOM     28  C   UNL     1      -0.133  -9.777   0.227  0.00  0.00    +0.012 C 
ATOM     29  C   UNL     1       0.426  -8.667  -0.666  0.00  0.00    +0.009 C 
ATOM     30  C   UNL     1      -0.173  -9.294   1.678  0.00  0.00    +0.009 C 
ENDBRANCH  19  28
ENDBRANCH  17  19
ENDBRANCH   5  15
BRANCH   1  31
ATOM     31  C   UNL     1      -3.172  -2.601  -1.521  0.00  0.00    +0.099 C 
BRANCH  31  32
ATOM     32  C   UNL     1      -3.659  -1.159  -1.686  0.00  0.00    -0.006 C 
ATOM     33  C   UNL     1      -4.913  -0.945  -0.837  0.00  0.00    +0.008 C 
BRANCH  32  35
ATOM     34  C   UNL     1      -2.999   1.244  -1.508  0.00  0.00    +0.004 C 
ATOM     35  C   UNL     1      -2.562  -0.196  -1.228  0.00  0.00    +0.000 C 
ENDBRANCH  32  35
ENDBRANCH  31  32
ENDBRANCH   1  31
TORSDOF 8
