REMARK  Name = ZINC36730594
REMARK  12 active torsions:
REMARK  status: ('A' for Active; 'I' for Inactive)
REMARK    1  A    between atoms: C_1  and  C_2
REMARK    2  A    between atoms: C_2  and  C_4
REMARK    3  A    between atoms: C_2  and  N_13
REMARK    4  A    between atoms: C_7  and  C_10
REMARK    5  A    between atoms: C_10  and  C_11
REMARK    6  A    between atoms: C_10  and  C_12
REMARK    7  A    between atoms: C_14  and  C_16
REMARK    8  A    between atoms: C_16  and  N_17
REMARK    9  A    between atoms: C_23  and  C_26
REMARK   10  A    between atoms: C_26  and  C_27
REMARK   11  A    between atoms: C_26  and  C_28
REMARK   12  A    between atoms: C_26  and  C_29
REMARK                            x       y       z     vdW  Elec       q    Type
REMARK                         _______ _______ _______ _____ _____    ______ ____
ROOT
ATOM      1  N   UNL     1      -0.150  -1.201   4.706  0.00  0.00    -0.215 N 
ATOM      2  C   UNL     1      -0.377  -0.184   5.564  0.00  0.00    +0.247 C 
ATOM      3  O   UNL     1       0.129   0.917   5.547  0.00  0.00    -0.273 OA
ATOM      4  C   UNL     1      -1.397  -0.708   6.549  0.00  0.00    +0.113 C 
ATOM      5  C   UNL     1      -2.673   0.124   6.486  0.00  0.00    +0.035 C 
ATOM      6  C   UNL     1      -2.369   1.561   6.919  0.00  0.00    +0.006 C 
ATOM      7  C   UNL     1      -1.814   1.555   8.345  0.00  0.00    -0.005 C 
ATOM      8  C   UNL     1      -0.523   0.734   8.389  0.00  0.00    +0.006 C 
ATOM      9  C   UNL     1      -0.821  -0.705   7.961  0.00  0.00    +0.035 C 
ATOM     10  N   UNL     1      -1.654  -2.082   6.100  0.00  0.00    -0.285 N 
ATOM     11  C   UNL     1      -0.883  -2.278   5.013  0.00  0.00    +0.310 C 
ATOM     12  O   UNL     1      -0.855  -3.317   4.383  0.00  0.00    -0.252 OA
ATOM     13  H   UNL     1      -2.262  -2.720   6.504  0.00  0.00    +0.151 HD
ENDROOT
BRANCH   7  14
ATOM     14  C   UNL     1      -1.520   2.991   8.783  0.00  0.00    -0.035 C 
ATOM     15  C   UNL     1      -2.811   3.812   8.741  0.00  0.00    +0.011 C 
ATOM     16  C   UNL     1      -0.965   2.986  10.209  0.00  0.00    +0.011 C 
ATOM     17  C   UNL     1      -0.490   3.612   7.838  0.00  0.00    +0.011 C 
ENDBRANCH   7  14
BRANCH   1  18
ATOM     18  C   UNL     1       0.780  -1.133   3.576  0.00  0.00    +0.213 C 
BRANCH  18  20
ATOM     19  N   UNL     1       0.711  -0.489   1.189  0.00  0.00    -0.307 N 
ATOM     20  C   UNL     1       0.051  -0.633   2.355  0.00  0.00    +0.231 C 
ATOM     21  O   UNL     1      -1.129  -0.361   2.423  0.00  0.00    -0.274 OA
ATOM     22  H   UNL     1       1.654  -0.707   1.135  0.00  0.00    +0.149 HD
BRANCH  19  24
ATOM     23  C   UNL     1      -0.019   1.526   0.010  0.00  0.00    +0.033 C 
ATOM     24  C   UNL     1       0.002  -0.004   0.002  0.00  0.00    +0.100 C 
BRANCH  24  25
ATOM     25  C   UNL     1       0.707  -0.490  -1.238  0.00  0.00    -0.027 A 
ATOM     26  C   UNL     1       2.089  -0.511  -1.284  0.00  0.00    +0.006 A 
ATOM     27  C   UNL     1       2.736  -0.957  -2.421  0.00  0.00    +0.004 A 
ATOM     28  C   UNL     1       2.002  -1.382  -3.512  0.00  0.00    -0.045 A 
ATOM     29  C   UNL     1       0.620  -1.362  -3.466  0.00  0.00    +0.004 A 
ATOM     30  C   UNL     1      -0.027  -0.920  -2.327  0.00  0.00    +0.006 A 
BRANCH  28  31
ATOM     31  C   UNL     1       2.707  -1.867  -4.753  0.00  0.00    +0.013 C 
ATOM     32  C   UNL     1       2.307  -3.317  -5.032  0.00  0.00    +0.012 C 
ATOM     33  C   UNL     1       2.309  -0.990  -5.941  0.00  0.00    +0.012 C 
ENDBRANCH  28  31
ENDBRANCH  24  25
ENDBRANCH  19  24
ENDBRANCH  18  20
ENDBRANCH   1  18
TORSDOF 6
