REMARK  Name = ZINC11377692
REMARK  6 active torsions:
REMARK  status: ('A' for Active; 'I' for Inactive)
REMARK    1  A    between atoms: C_1  and  C_2
REMARK    2  A    between atoms: C_2  and  C_4
REMARK    3  A    between atoms: C_2  and  S_21
REMARK    4  A    between atoms: C_15  and  C_17
REMARK    5  A    between atoms: S_21  and  C_22
REMARK    6  A    between atoms: N_26  and  C_27
REMARK                            x       y       z     vdW  Elec       q    Type
REMARK                         _______ _______ _______ _____ _____    ______ ____
ROOT
ATOM      1  C   UNL     1       1.060   0.093  -0.713  0.00  0.00    +0.233 C 
ATOM      2  O   UNL     1       0.350  -0.583  -1.428  0.00  0.00    -0.274 OA
ATOM      3  N   UNL     1       2.130  -0.461  -0.108  0.00  0.00    -0.260 N 
ATOM      4  C   UNL     1       3.006   0.336   0.763  0.00  0.00    +0.209 C 
ATOM      5  C   UNL     1       4.442  -0.026   0.481  0.00  0.00    +0.235 C 
ATOM      6  O   UNL     1       5.312   0.802   0.650  0.00  0.00    -0.274 OA
ATOM      7  N   UNL     1       4.769  -1.256   0.042  0.00  0.00    -0.283 N 
ATOM      8  C   UNL     1       3.780  -2.213  -0.209  0.00  0.00    +0.056 A 
ATOM      9  C   UNL     1       2.441  -1.818  -0.286  0.00  0.00    +0.058 A 
ATOM     10  C   UNL     1       1.456  -2.751  -0.545  0.00  0.00    +0.026 A 
ATOM     11  C   UNL     1       1.797  -4.082  -0.716  0.00  0.00    +0.014 A 
ATOM     12  C   UNL     1       3.120  -4.476  -0.632  0.00  0.00    +0.057 A 
ATOM     13  C   UNL     1       4.112  -3.547  -0.379  0.00  0.00    +0.037 A 
ATOM     14  H   UNL     1       5.702  -1.481  -0.100  0.00  0.00    +0.155 HD
ENDROOT
BRANCH  12  15
ATOM     15  C   UNL     1       3.482  -5.928  -0.817  0.00  0.00    +0.417 C 
ATOM     16  F   UNL     1       3.451  -6.577   0.421  0.00  0.00    -0.166 F 
ATOM     17  F   UNL     1       2.562  -6.531  -1.683  0.00  0.00    -0.166 F 
ATOM     18  F   UNL     1       4.766  -6.022  -1.362  0.00  0.00    -0.166 F 
ENDBRANCH  12  15
BRANCH   1  20
ATOM     19  C   UNL     1       0.031   1.728   0.842  0.00  0.00    +0.029 C 
ATOM     20  C   UNL     1       0.745   1.551  -0.500  0.00  0.00    +0.137 C 
BRANCH  20  21
ATOM     21  S   UNL     1      -0.328   2.139  -1.838  0.00  0.00    -0.073 S 
BRANCH  21  22
ATOM     22  C   UNL     1      -0.481   3.868  -1.533  0.00  0.00    +0.194 A 
ATOM     23  N   UNL     1       0.071   4.528  -0.544  0.00  0.00    -0.121 NA
ATOM     24  N   UNL     1      -0.296   5.875  -0.664  0.00  0.00    -0.112 NA
ATOM     25  C   UNL     1      -1.066   5.992  -1.718  0.00  0.00    +0.221 A 
ATOM     26  N   UNL     1      -1.201   4.756  -2.283  0.00  0.00    -0.287 N 
ATOM     27  N   UNL     1      -1.645   7.168  -2.179  0.00  0.00    -0.295 N 
ATOM     28  C   UNL     1      -1.268   7.427  -3.576  0.00  0.00    +0.136 C 
ATOM     29  C   UNL     1      -1.973   8.697  -4.062  0.00  0.00    +0.179 C 
ATOM     30  O   UNL     1      -1.633   9.785  -3.198  0.00  0.00    -0.377 OA
ATOM     31  C   UNL     1      -1.986   9.566  -1.830  0.00  0.00    +0.179 C 
ATOM     32  C   UNL     1      -1.282   8.305  -1.322  0.00  0.00    +0.136 C 
BRANCH  26  33
ATOM     33  C   UNL     1      -1.982   4.437  -3.481  0.00  0.00    +0.093 C 
ATOM     34  C   UNL     1      -2.349   2.970  -3.715  0.00  0.00    +0.027 C 
ATOM     35  C   UNL     1      -1.285   3.641  -4.587  0.00  0.00    +0.027 C 
ENDBRANCH  26  33
ENDBRANCH  21  22
ENDBRANCH  20  21
ENDBRANCH   1  20
TORSDOF 5
