REMARK  Name = ZINC01790254
REMARK  7 active torsions:
REMARK  status: ('A' for Active; 'I' for Inactive)
REMARK    1  A    between atoms: C_1  and  C_2
REMARK    2  A    between atoms: C_7  and  N_8
REMARK    3  A    between atoms: C_18  and  S_19
REMARK    4  A    between atoms: S_19  and  C_20
REMARK    5  A    between atoms: C_20  and  C_21
REMARK    6  A    between atoms: N_23  and  N_24
REMARK    7  A    between atoms: N_24  and  C_25
REMARK                            x       y       z     vdW  Elec       q    Type
REMARK                         _______ _______ _______ _____ _____    ______ ____
ROOT
ATOM      1  N   UNL     1       0.025  -0.014   2.418  0.00  0.00    -0.255 N 
ATOM      2  C   UNL     1      -1.148   0.297   3.016  0.00  0.00    +0.267 A 
ATOM      3  O   UNL     1      -2.213  -0.014   2.515  0.00  0.00    -0.267 OA
ATOM      4  C   UNL     1      -1.090   1.023   4.292  0.00  0.00    +0.065 A 
ATOM      5  C   UNL     1      -2.244   1.387   4.985  0.00  0.00    +0.015 A 
ATOM      6  C   UNL     1      -2.133   2.061   6.170  0.00  0.00    +0.001 A 
ATOM      7  C   UNL     1      -0.886   2.386   6.688  0.00  0.00    +0.002 A 
ATOM      8  C   UNL     1       0.261   2.041   6.029  0.00  0.00    +0.028 A 
ATOM      9  C   UNL     1       0.181   1.351   4.816  0.00  0.00    +0.079 A 
ATOM     10  N   UNL     1       1.291   0.990   4.131  0.00  0.00    -0.223 NA
ATOM     11  C   UNL     1       1.214   0.337   2.997  0.00  0.00    +0.177 A 
ENDROOT
BRANCH   1  18
ATOM     12  C   UNL     1      -0.018   1.503   0.010  0.00  0.00    +0.046 C 
ATOM     13  C   UNL     1       0.002  -0.004   0.002  0.00  0.00    -0.026 A 
ATOM     14  C   UNL     1       0.006  -0.689  -1.198  0.00  0.00    +0.005 A 
ATOM     15  C   UNL     1       0.024  -2.071  -1.206  0.00  0.00    +0.000 A 
ATOM     16  C   UNL     1       0.039  -2.773  -0.014  0.00  0.00    +0.002 A 
ATOM     17  C   UNL     1       0.035  -2.094   1.188  0.00  0.00    +0.026 A 
ATOM     18  C   UNL     1       0.023  -0.705   1.200  0.00  0.00    +0.055 A 
ENDBRANCH   1  18
BRANCH  11  19
ATOM     19  S   UNL     1       2.710  -0.101   2.176  0.00  0.00    -0.078 S 
BRANCH  19  20
ATOM     20  C   UNL     1       4.011   0.542   3.264  0.00  0.00    +0.174 C 
BRANCH  20  21
ATOM     21  C   UNL     1       5.361   0.230   2.671  0.00  0.00    +0.239 C 
ATOM     22  O   UNL     1       5.438  -0.367   1.618  0.00  0.00    -0.273 OA
ATOM     23  N   UNL     1       6.484   0.614   3.311  0.00  0.00    -0.236 N 
ATOM     24  H   UNL     1       6.423   1.092   4.153  0.00  0.00    +0.173 HD
BRANCH  23  25
ATOM     25  N   UNL     1       7.738   0.325   2.759  0.00  0.00    -0.271 N 
ATOM     26  H   UNL     1       7.800  -0.153   1.917  0.00  0.00    +0.169 HD
BRANCH  25  27
ATOM     27  C   UNL     1       8.855   0.707   3.395  0.00  0.00    +0.095 C 
ATOM     28  C   UNL     1      10.109   0.417   2.844  0.00  0.00    -0.010 C 
ATOM     29  C   UNL     1      10.199  -0.273   1.615  0.00  0.00    +0.013 C 
ATOM     30  C   UNL     1      11.415  -0.552   1.083  0.00  0.00    +0.051 C 
ATOM     31  C   UNL     1      12.587  -0.155   1.755  0.00  0.00    +0.179 C 
ATOM     32  O   UNL     1      13.684  -0.408   1.273  0.00  0.00    -0.288 OA
ATOM     33  C   UNL     1      12.500   0.533   2.980  0.00  0.00    +0.051 C 
ATOM     34  C   UNL     1      11.286   0.820   3.514  0.00  0.00    +0.013 C 
ENDBRANCH  25  27
ENDBRANCH  23  25
ENDBRANCH  20  21
ENDBRANCH  19  20
ENDBRANCH  11  19
TORSDOF 6
