REMARK  Name = ZINC05084421
REMARK  8 active torsions:
REMARK  status: ('A' for Active; 'I' for Inactive)
REMARK    1  A    between atoms: C_1  and  C_2
REMARK    2  A    between atoms: C_7  and  C_8
REMARK    3  A    between atoms: C_10  and  C_14
REMARK    4  A    between atoms: C_11  and  C_13
REMARK    5  A    between atoms: C_14  and  N_15
REMARK    6  A    between atoms: C_22  and  C_23
REMARK    7  A    between atoms: C_23  and  O_25
REMARK    8  A    between atoms: O_25  and  C_26
REMARK                            x       y       z     vdW  Elec       q    Type
REMARK                         _______ _______ _______ _____ _____    ______ ____
ROOT
ATOM      1  C   UNL     1       0.227   0.149   2.373  0.00  0.00    +0.228 A 
ATOM      2  N   UNL     1       0.430  -0.326   3.579  0.00  0.00    -0.212 NA
ATOM      3  C   UNL     1       0.404   0.694   4.451  0.00  0.00    +0.102 A 
ATOM      4  C   UNL     1       0.178   1.824   3.757  0.00  0.00    +0.127 A 
ATOM      5  O   UNL     1       0.074   1.482   2.458  0.00  0.00    -0.440 OA
ATOM      6  C   UNL     1       0.069   3.215   4.326  0.00  0.00    +0.088 C 
ENDROOT
BRANCH   1  13
ATOM      7  C   UNL     1      -1.919   0.576   0.480  0.00  0.00    +0.044 C 
ATOM      8  C   UNL     1      -0.850  -0.451   0.208  0.00  0.00    -0.038 A 
ATOM      9  C   UNL     1      -0.885  -1.194  -0.954  0.00  0.00    +0.004 A 
ATOM     10  C   UNL     1       0.095  -2.137  -1.205  0.00  0.00    +0.000 A 
ATOM     11  C   UNL     1       1.117  -2.341  -0.294  0.00  0.00    +0.001 A 
ATOM     12  C   UNL     1       1.163  -1.605   0.872  0.00  0.00    +0.013 A 
ATOM     13  C   UNL     1       0.180  -0.648   1.129  0.00  0.00    +0.040 A 
ENDBRANCH   1  13
BRANCH   3  14
ATOM     14  C   UNL     1       0.594   0.591   5.943  0.00  0.00    +0.181 C 
BRANCH  14  15
ATOM     15  N   UNL     1       2.005   0.810   6.271  0.00  0.00    -0.326 N 
ATOM     16  C   UNL     1       2.563   2.004   6.648  0.00  0.00    +0.089 A 
ATOM     17  C   UNL     1       2.324   3.374   6.905  0.00  0.00    +0.067 A 
ATOM     18  C   UNL     1       3.499   3.922   7.260  0.00  0.00    +0.198 A 
ATOM     19  O   UNL     1       4.457   2.980   7.241  0.00  0.00    -0.461 OA
ATOM     20  C   UNL     1       3.921   1.796   6.871  0.00  0.00    +0.153 A 
ATOM     21  C   UNL     1       4.184   0.445   6.623  0.00  0.00    +0.081 A 
ATOM     22  C   UNL     1       2.996  -0.153   6.260  0.00  0.00    +0.131 A 
BRANCH  22  23
ATOM     23  C   UNL     1       2.816  -1.564   5.918  0.00  0.00    +0.356 C 
ATOM     24  O   UNL     1       3.747  -2.340   6.026  0.00  0.00    -0.243 OA
BRANCH  23  25
ATOM     25  O   UNL     1       1.617  -2.006   5.484  0.00  0.00    -0.463 OA
ATOM     26  C   UNL     1       1.483  -3.411   5.265  0.00  0.00    +0.280 C 
ENDBRANCH  23  25
ENDBRANCH  22  23
ENDBRANCH  14  15
ENDBRANCH   3  14
TORSDOF 5
