REMARK  Name = ZINC39443580
REMARK  9 active torsions:
REMARK  status: ('A' for Active; 'I' for Inactive)
REMARK    1  A    between atoms: C_1  and  C_2
REMARK    2  A    between atoms: C_4  and  N_19
REMARK    3  A    between atoms: N_7  and  C_8
REMARK    4  A    between atoms: C_8  and  C_9
REMARK    5  A    between atoms: C_13  and  C_15
REMARK    6  A    between atoms: C_20  and  C_22
REMARK    7  A    between atoms: C_22  and  C_23
REMARK    8  A    between atoms: C_23  and  C_24
REMARK    9  A    between atoms: C_24  and  C_25
REMARK                            x       y       z     vdW  Elec       q    Type
REMARK                         _______ _______ _______ _____ _____    ______ ____
ROOT
ATOM      1  C   UNL     1      -0.018   1.503   0.010  0.00  0.00    +0.062 C 
ATOM      2  C   UNL     1       0.002  -0.004   0.002  0.00  0.00    +0.018 C 
ATOM      3  C   UNL     1       0.007  -0.737  -1.093  0.00  0.00    +0.032 C 
ATOM      4  C   UNL     1       0.029  -2.184  -0.650  0.00  0.00    +0.183 C 
ATOM      5  N   UNL     1       0.035  -2.114   0.825  0.00  0.00    -0.216 NA
ATOM      6  N   UNL     1       0.024  -0.785   1.141  0.00  0.00    -0.265 N 
ATOM      7  H   UNL     1      -0.767  -2.588   1.213  0.00  0.00    +0.147 HD
ENDROOT
BRANCH   4   8
ATOM      8  N   UNL     1       1.239  -2.851  -1.138  0.00  0.00    -0.295 N 
ATOM      9  C   UNL     1       1.160  -4.089  -1.665  0.00  0.00    +0.214 C 
ATOM     10  O   UNL     1       0.088  -4.651  -1.735  0.00  0.00    -0.276 OA
ATOM     11  H   UNL     1       2.097  -2.402  -1.082  0.00  0.00    +0.151 HD
BRANCH   9  12
ATOM     12  C   UNL     1       2.404  -4.775  -2.167  0.00  0.00    +0.096 C 
BRANCH  12  13
ATOM     13  C   UNL     1       2.040  -6.158  -2.711  0.00  0.00    +0.014 C 
BRANCH  13  14
ATOM     14  C   UNL     1       3.304  -6.854  -3.221  0.00  0.00    +0.038 C 
BRANCH  14  15
ATOM     15  C   UNL     1       2.945  -8.217  -3.757  0.00  0.00    -0.022 A 
ATOM     16  C   UNL     1       2.465  -8.524  -5.107  0.00  0.00    +0.003 A 
ATOM     17  C   UNL     1       2.202  -7.754  -6.241  0.00  0.00    +0.010 A 
ATOM     18  C   UNL     1       1.751  -8.358  -7.381  0.00  0.00    +0.001 A 
ATOM     19  C   UNL     1       1.552  -9.731  -7.420  0.00  0.00    +0.002 A 
ATOM     20  C   UNL     1       1.805 -10.510  -6.311  0.00  0.00    +0.026 A 
ATOM     21  C   UNL     1       2.265  -9.916  -5.141  0.00  0.00    +0.047 A 
ATOM     22  N   UNL     1       2.602 -10.405  -3.898  0.00  0.00    -0.360 N 
ATOM     23  C   UNL     1       3.010  -9.380  -3.089  0.00  0.00    +0.087 A 
ATOM     24  H   UNL     1       2.560 -11.338  -3.637  0.00  0.00    +0.165 HD
ENDBRANCH  14  15
ENDBRANCH  13  14
ENDBRANCH  12  13
ENDBRANCH   9  12
ENDBRANCH   4   8
BRANCH   6  25
ATOM     25  C   UNL     1       0.030  -0.258   2.507  0.00  0.00    +0.159 C 
BRANCH  25  26
ATOM     26  C   UNL     1      -1.389  -0.096   2.990  0.00  0.00    -0.028 A 
ATOM     27  C   UNL     1      -2.061   1.093   2.775  0.00  0.00    +0.005 A 
ATOM     28  C   UNL     1      -3.362   1.242   3.218  0.00  0.00    +0.001 A 
ATOM     29  C   UNL     1      -3.991   0.201   3.874  0.00  0.00    +0.012 A 
ATOM     30  C   UNL     1      -3.320  -0.988   4.088  0.00  0.00    +0.055 A 
ATOM     31  C   UNL     1      -2.020  -1.138   3.642  0.00  0.00    +0.017 A 
BRANCH  30  32
ATOM     32  C   UNL     1      -4.007  -2.123   4.804  0.00  0.00    +0.417 C 
ATOM     33  F   UNL     1      -5.306  -1.737   5.152  0.00  0.00    -0.166 F 
ATOM     34  F   UNL     1      -4.062  -3.240   3.964  0.00  0.00    -0.166 F 
ATOM     35  F   UNL     1      -3.290  -2.445   5.962  0.00  0.00    -0.166 F 
ENDBRANCH  30  32
ENDBRANCH  25  26
ENDBRANCH   6  25
TORSDOF 8
