REMARK  Name = ZINC19869235
REMARK  5 active torsions:
REMARK  status: ('A' for Active; 'I' for Inactive)
REMARK    1  A    between atoms: C_1  and  C_2
REMARK    2  A    between atoms: C_2  and  C_3
REMARK    3  A    between atoms: C_9  and  O_11
REMARK    4  A    between atoms: O_11  and  C_12
REMARK    5  A    between atoms: C_17  and  N_18
REMARK                            x       y       z     vdW  Elec       q    Type
REMARK                         _______ _______ _______ _____ _____    ______ ____
ROOT
ATOM      1  C   UNL     1      -2.431   0.939   0.019  0.00  0.00    +0.145 A 
ATOM      2  C   UNL     1      -3.618   1.616   0.245  0.00  0.00    +0.097 A 
ATOM      3  C   UNL     1      -3.637   3.003   0.253  0.00  0.00    +0.166 A 
ATOM      4  C   UNL     1      -2.464   3.715   0.034  0.00  0.00    +0.164 A 
ATOM      5  C   UNL     1      -1.274   3.038  -0.189  0.00  0.00    +0.075 A 
ATOM      6  C   UNL     1      -1.256   1.651  -0.202  0.00  0.00    +0.071 A 
ATOM      7  O   UNL     1      -2.463   5.077   0.042  0.00  0.00    -0.485 OA
ATOM      8  C   UNL     1      -3.734   5.722  -0.099  0.00  0.00    +0.270 C 
ATOM      9  C   UNL     1      -4.730   5.033   0.843  0.00  0.00    +0.270 C 
ATOM     10  O   UNL     1      -4.814   3.652   0.473  0.00  0.00    -0.485 OA
ENDROOT
BRANCH   6  11
ATOM     11  N   UNL     1      -0.054   0.967  -0.433  0.00  0.00    -0.355 N 
ATOM     12  H   UNL     1       0.875   1.531  -0.607  0.00  0.00    +0.142 HD
ATOM     13  H   UNL     1      -0.039  -0.133  -0.439  0.00  0.00    +0.142 HD
ENDBRANCH   6  11
BRANCH   1  14
ATOM     14  O   UNL     1      -2.414  -0.422   0.013  0.00  0.00    -0.487 OA
BRANCH  14  20
ATOM     15  C   UNL     1      -3.574  -2.479  -0.500  0.00  0.00    +0.029 C 
ATOM     16  C   UNL     1      -2.502  -3.291   0.230  0.00  0.00    +0.007 C 
ATOM     17  C   UNL     1      -2.878  -3.421   1.707  0.00  0.00    +0.001 C 
ATOM     18  C   UNL     1      -2.979  -2.029   2.333  0.00  0.00    +0.004 C 
ATOM     19  C   UNL     1      -4.051  -1.218   1.603  0.00  0.00    +0.045 C 
ATOM     20  C   UNL     1      -3.674  -1.087   0.126  0.00  0.00    +0.177 C 
BRANCH  15  22
ATOM     21  C   UNL     1      -3.219  -3.731  -2.633  0.00  0.00    +0.004 C 
ATOM     22  C   UNL     1      -3.197  -2.349  -1.977  0.00  0.00    +0.004 C 
ENDBRANCH  15  22
ENDBRANCH  14  20
ENDBRANCH   1  14
TORSDOF 4
