REMARK  Name = ZINC55199744
REMARK  6 active torsions:
REMARK  status: ('A' for Active; 'I' for Inactive)
REMARK    1  A    between atoms: C_1  and  C_2
REMARK    2  A    between atoms: C_9  and  C_11
REMARK    3  A    between atoms: C_14  and  N_18
REMARK    4  A    between atoms: C_15  and  C_17
REMARK    5  A    between atoms: C_19  and  C_21
REMARK    6  A    between atoms: C_21  and  N_22
REMARK                            x       y       z     vdW  Elec       q    Type
REMARK                         _______ _______ _______ _____ _____    ______ ____
ROOT
ATOM      1  C   UNL     1       0.064  -5.494   2.348  0.00  0.00    +0.037 A 
ATOM      2  C   UNL     1       0.070  -5.508   3.745  0.00  0.00    +0.015 A 
ATOM      3  C   UNL     1       0.097  -6.708   4.420  0.00  0.00    +0.024 A 
ATOM      4  C   UNL     1       0.120  -7.905   3.712  0.00  0.00    +0.036 A 
ATOM      5  C   UNL     1       0.115  -7.894   2.322  0.00  0.00    -0.029 A 
ATOM      6  C   UNL     1       0.082  -6.698   1.640  0.00  0.00    +0.018 A 
ATOM      7  C   UNL     1       0.141  -9.194   1.559  0.00  0.00    +0.045 C 
ENDROOT
BRANCH   1  16
ATOM      8  C   UNL     1      -0.086   1.519   0.053  0.00  0.00    +0.044 C 
ATOM      9  C   UNL     1      -0.057   0.013   0.039  0.00  0.00    -0.048 A 
ATOM     10  C   UNL     1      -0.053  -0.665  -1.171  0.00  0.00    +0.007 A 
ATOM     11  C   UNL     1      -0.027  -2.044  -1.201  0.00  0.00    +0.049 A 
ATOM     12  C   UNL     1      -0.005  -2.761  -0.015  0.00  0.00    +0.156 A 
ATOM     13  C   UNL     1      -0.009  -2.079   1.212  0.00  0.00    +0.110 A 
ATOM     14  C   UNL     1      -0.030  -0.682   1.227  0.00  0.00    +0.035 A 
ATOM     15  N   UNL     1       0.016  -3.027   2.185  0.00  0.00    -0.209 NA
ATOM     16  C   UNL     1       0.034  -4.208   1.621  0.00  0.00    +0.228 A 
ATOM     17  O   UNL     1       0.022  -4.080   0.280  0.00  0.00    -0.435 OA
ENDBRANCH   1  16
BRANCH   4  18
ATOM     18  N   UNL     1       0.150  -9.120   4.400  0.00  0.00    -0.284 N 
ATOM     19  C   UNL     1       0.822  -9.220   5.563  0.00  0.00    +0.239 C 
ATOM     20  O   UNL     1       1.333  -8.236   6.055  0.00  0.00    -0.273 OA
ATOM     21  H   UNL     1      -0.315  -9.892   4.040  0.00  0.00    +0.155 HD
BRANCH  19  22
ATOM     22  C   UNL     1       0.940 -10.555   6.253  0.00  0.00    +0.242 C 
BRANCH  22  23
ATOM     23  N   UNL     1       1.712 -10.399   7.488  0.00  0.00    -0.223 N 
ATOM     24  C   UNL     1       1.323 -10.761   8.725  0.00  0.00    +0.245 A 
ATOM     25  N   UNL     1       2.305 -10.447   9.535  0.00  0.00    -0.117 NA
ATOM     26  N   UNL     1       3.248  -9.921   8.832  0.00  0.00    -0.023 NA
ATOM     27  N   UNL     1       2.895  -9.895   7.595  0.00  0.00    -0.044 NA
ENDBRANCH  22  23
ENDBRANCH  19  22
ENDBRANCH   4  18
TORSDOF 4
