REMARK  Name = ZINC09350084
REMARK  8 active torsions:
REMARK  status: ('A' for Active; 'I' for Inactive)
REMARK    1  A    between atoms: C_1  and  C_2
REMARK    2  A    between atoms: C_2  and  C_3
REMARK    3  A    between atoms: C_3  and  C_4
REMARK    4  A    between atoms: C_4  and  O_5
REMARK    5  A    between atoms: O_5  and  C_6
REMARK    6  A    between atoms: C_6  and  C_8
REMARK    7  A    between atoms: C_9  and  N_29
REMARK    8  A    between atoms: C_13  and  C_17
REMARK                            x       y       z     vdW  Elec       q    Type
REMARK                         _______ _______ _______ _____ _____    ______ ____
ROOT
ATOM      1  C   UNL     1      -4.202  -4.451  -0.011  0.00  0.00    +0.117 C 
ATOM      2  C   UNL     1      -4.331  -5.798  -0.086  0.00  0.00    +0.198 C 
ATOM      3  O   UNL     1      -5.508  -6.451  -0.062  0.00  0.00    -0.422 OA
ATOM      4  C   UNL     1      -6.643  -5.720  -0.227  0.00  0.00    +0.245 A 
ATOM      5  C   UNL     1      -6.641  -4.308  -0.154  0.00  0.00    +0.060 A 
ATOM      6  C   UNL     1      -7.895  -3.878  -0.356  0.00  0.00    +0.042 A 
ATOM      7  N   UNL     1      -8.675  -4.967  -0.551  0.00  0.00    -0.278 N 
ATOM      8  H   UNL     1      -9.630  -4.960  -0.721  0.00  0.00    +0.189 HD
ATOM      9  N   UNL     1      -7.862  -6.108  -0.464  0.00  0.00    -0.135 NA
ATOM     10  C   UNL     1      -8.353  -2.443  -0.366  0.00  0.00    +0.065 C 
ATOM     11  C   UNL     1      -5.382  -3.529   0.117  0.00  0.00    +0.142 C 
ATOM     12  C   UNL     1      -5.421  -2.876   1.461  0.00  0.00    -0.001 A 
ATOM     13  C   UNL     1      -5.520  -3.402   2.732  0.00  0.00    +0.022 A 
ATOM     14  C   UNL     1      -5.529  -2.498   3.790  0.00  0.00    +0.018 A 
ATOM     15  C   UNL     1      -5.443  -1.137   3.573  0.00  0.00    +0.017 A 
ATOM     16  C   UNL     1      -5.343  -0.602   2.299  0.00  0.00    +0.025 A 
ATOM     17  C   UNL     1      -5.331  -1.498   1.229  0.00  0.00    +0.038 A 
ATOM     18  N   UNL     1      -5.239  -1.244  -0.129  0.00  0.00    -0.284 N 
ATOM     19  C   UNL     1      -5.260  -2.379  -0.859  0.00  0.00    +0.237 C 
ATOM     20  O   UNL     1      -5.193  -2.462  -2.067  0.00  0.00    -0.274 OA
ATOM     21 BR   UNL     1      -5.664  -3.147   5.561  0.00  0.00    -0.050 Br
ATOM     22  H   UNL     1      -5.168  -0.355  -0.511  0.00  0.00    +0.155 HD
ENDROOT
BRANCH   2  23
ATOM     23  N   UNL     1      -3.189  -6.544  -0.194  0.00  0.00    -0.329 N 
ATOM     24  H   UNL     1      -2.321  -6.117  -0.121  0.00  0.00    +0.145 HD
ATOM     25  H   UNL     1      -3.247  -7.501  -0.343  0.00  0.00    +0.145 HD
ENDBRANCH   2  23
BRANCH   1  26
ATOM     26  C   UNL     1      -2.915  -3.895  -0.049  0.00  0.00    +0.342 C 
ATOM     27  O   UNL     1      -2.377  -3.534   0.983  0.00  0.00    -0.245 OA
BRANCH  26  28
ATOM     28  O   UNL     1      -2.272  -3.760  -1.229  0.00  0.00    -0.461 OA
BRANCH  28  29
ATOM     29  C   UNL     1      -0.964  -3.187  -1.193  0.00  0.00    +0.232 C 
BRANCH  29  30
ATOM     30  C   UNL     1      -0.399  -3.115  -2.614  0.00  0.00    +0.041 C 
BRANCH  30  32
ATOM     31  C   UNL     1       1.566  -2.430  -3.996  0.00  0.00    +0.004 C 
ATOM     32  C   UNL     1       1.002  -2.501  -2.575  0.00  0.00    -0.000 C 
ENDBRANCH  30  32
ENDBRANCH  29  30
ENDBRANCH  28  29
ENDBRANCH  26  28
ENDBRANCH   1  26
TORSDOF 6
