REMARK  Name = ZINC00888055
REMARK  11 active torsions:
REMARK  status: ('A' for Active; 'I' for Inactive)
REMARK    1  A    between atoms: C_1  and  C_2
REMARK    2  A    between atoms: C_5  and  C_7
REMARK    3  A    between atoms: C_7  and  C_9
REMARK    4  A    between atoms: C_7  and  N_20
REMARK    5  A    between atoms: N_11  and  C_12
REMARK    6  A    between atoms: C_12  and  C_13
REMARK    7  A    between atoms: N_20  and  C_21
REMARK    8  A    between atoms: C_21  and  C_22
REMARK    9  A    between atoms: C_28  and  C_30
REMARK   10  A    between atoms: C_30  and  N_31
REMARK   11  A    between atoms: C_33  and  C_36
REMARK                            x       y       z     vdW  Elec       q    Type
REMARK                         _______ _______ _______ _____ _____    ______ ____
ROOT
ATOM      1  N   UNL     1       2.708  -3.327  -0.604  0.00  0.00    -0.278 N 
ATOM      2  C   UNL     1       2.655  -3.995  -1.774  0.00  0.00    +0.240 C 
ATOM      3  O   UNL     1       1.603  -4.459  -2.160  0.00  0.00    -0.273 OA
ENDROOT
BRANCH   1   4
ATOM      4  C   UNL     1       1.525  -3.264   0.258  0.00  0.00    +0.228 C 
BRANCH   4   9
ATOM      5  C   UNL     1       2.098   1.283   2.365  0.00  0.00    +0.086 C 
ATOM      6  C   UNL     1       1.514   0.144   1.568  0.00  0.00    +0.102 A 
ATOM      7  C   UNL     1       0.361   0.178   0.876  0.00  0.00    +0.045 A 
ATOM      8  C   UNL     1       0.201  -1.097   0.285  0.00  0.00    +0.047 A 
ATOM      9  C   UNL     1       1.266  -1.833   0.652  0.00  0.00    +0.135 A 
ATOM     10  O   UNL     1       2.061  -1.074   1.423  0.00  0.00    -0.462 OA
ENDBRANCH   4   9
BRANCH   4  11
ATOM     11  C   UNL     1       1.761  -4.091   1.495  0.00  0.00    +0.241 C 
ATOM     12  O   UNL     1       2.869  -4.524   1.733  0.00  0.00    -0.273 OA
ATOM     13  N   UNL     1       0.741  -4.349   2.338  0.00  0.00    -0.309 N 
ATOM     14  H   UNL     1      -0.145  -4.003   2.147  0.00  0.00    +0.149 HD
BRANCH  13  15
ATOM     15  C   UNL     1       0.971  -5.153   3.541  0.00  0.00    +0.139 C 
BRANCH  15  16
ATOM     16  C   UNL     1      -0.321  -5.293   4.305  0.00  0.00    -0.030 A 
ATOM     17  C   UNL     1      -0.659  -4.360   5.267  0.00  0.00    +0.008 A 
ATOM     18  C   UNL     1      -1.843  -4.487   5.968  0.00  0.00    +0.038 A 
ATOM     19  C   UNL     1      -2.691  -5.550   5.707  0.00  0.00    +0.123 A 
ATOM     20  C   UNL     1      -2.351  -6.484   4.743  0.00  0.00    +0.038 A 
ATOM     21  C   UNL     1      -1.169  -6.352   4.040  0.00  0.00    +0.008 A 
ATOM     22  F   UNL     1      -3.848  -5.676   6.392  0.00  0.00    -0.205 F 
ENDBRANCH  15  16
ENDBRANCH  13  15
ENDBRANCH   4  11
ENDBRANCH   1   4
BRANCH   1  23
ATOM     23  C   UNL     1       3.948  -2.663  -0.195  0.00  0.00    +0.144 C 
BRANCH  23  24
ATOM     24  C   UNL     1       4.239  -1.520  -1.134  0.00  0.00    -0.030 A 
ATOM     25  C   UNL     1       5.030  -1.726  -2.249  0.00  0.00    +0.005 A 
ATOM     26  C   UNL     1       5.297  -0.678  -3.110  0.00  0.00    +0.000 A 
ATOM     27  C   UNL     1       4.773   0.576  -2.856  0.00  0.00    +0.000 A 
ATOM     28  C   UNL     1       3.981   0.781  -1.742  0.00  0.00    +0.000 A 
ATOM     29  C   UNL     1       3.711  -0.268  -0.883  0.00  0.00    +0.005 A 
ENDBRANCH  23  24
ENDBRANCH   1  23
BRANCH   2  30
ATOM     30  C   UNL     1       3.903  -4.166  -2.601  0.00  0.00    +0.264 C 
BRANCH  30  31
ATOM     31  N   UNL     1       3.673  -5.186  -3.627  0.00  0.00    -0.154 N 
ATOM     32  N   UNL     1       3.889  -6.448  -3.485  0.00  0.00    -0.130 NA
ATOM     33  C   UNL     1       3.566  -7.043  -4.616  0.00  0.00    +0.205 A 
ATOM     34  N   UNL     1       3.145  -6.080  -5.449  0.00  0.00    -0.108 NA
ATOM     35  N   UNL     1       3.219  -4.962  -4.810  0.00  0.00    -0.045 NA
BRANCH  33  36
ATOM     36  C   UNL     1       3.652  -8.495  -4.911  0.00  0.00    +0.023 A 
ATOM     37  C   UNL     1       4.107  -9.380  -3.936  0.00  0.00    +0.014 A 
ATOM     38  C   UNL     1       4.186 -10.729  -4.213  0.00  0.00    +0.039 A 
ATOM     39  C   UNL     1       3.812 -11.204  -5.460  0.00  0.00    +0.123 A 
ATOM     40  C   UNL     1       3.359 -10.328  -6.433  0.00  0.00    +0.039 A 
ATOM     41  C   UNL     1       3.272  -8.978  -6.161  0.00  0.00    +0.014 A 
ATOM     42  F   UNL     1       3.891 -12.526  -5.728  0.00  0.00    -0.205 F 
ENDBRANCH  33  36
ENDBRANCH  30  31
ENDBRANCH   2  30
TORSDOF 10
