REMARK  Name = ZINC38734905
REMARK  11 active torsions:
REMARK  status: ('A' for Active; 'I' for Inactive)
REMARK    1  A    between atoms: C_1  and  C_2
REMARK    2  A    between atoms: C_5  and  C_8
REMARK    3  A    between atoms: C_10  and  S_14
REMARK    4  A    between atoms: S_14  and  C_15
REMARK    5  A    between atoms: C_15  and  C_16
REMARK    6  A    between atoms: N_18  and  C_19
REMARK    7  A    between atoms: C_21  and  C_34
REMARK    8  A    between atoms: C_22  and  C_33
REMARK    9  A    between atoms: C_23  and  C_32
REMARK   10  A    between atoms: N_25  and  C_26
REMARK   11  A    between atoms: C_26  and  C_27
REMARK                            x       y       z     vdW  Elec       q    Type
REMARK                         _______ _______ _______ _____ _____    ______ ____
ROOT
ATOM      1  C   UNL     1       0.194  -8.041   4.476  0.00  0.00    +0.225 C 
ATOM      2  O   UNL     1       0.179  -9.198   4.113  0.00  0.00    -0.275 OA
ATOM      3  N   UNL     1       0.218  -7.747   5.791  0.00  0.00    -0.294 N 
ATOM      4  H   UNL     1       0.158  -6.824   6.083  0.00  0.00    +0.151 HD
ENDROOT
BRANCH   3   5
ATOM      5  C   UNL     1       0.336  -8.822   6.779  0.00  0.00    +0.186 C 
ATOM      6  C   UNL     1       1.270  -8.407   7.893  0.00  0.00    +0.065 C 
ATOM      7  C   UNL     1       0.736  -8.757   9.062  0.00  0.00    -0.039 C 
ATOM      8  C   UNL     1      -0.594  -9.431   8.816  0.00  0.00    +0.083 C 
ATOM      9  N   UNL     1      -0.973  -9.067   7.429  0.00  0.00    -0.267 NA
ATOM     10  C   UNL     1      -0.451 -10.948   8.945  0.00  0.00    +0.029 C 
ATOM     11  C   UNL     1       1.359  -8.519  10.413  0.00  0.00    +0.042 C 
BRANCH   6  12
ATOM     12  C   UNL     1       2.528  -7.745   7.720  0.00  0.00    +0.098 C 
ATOM     13  N   UNL     1       3.526  -7.220   7.582  0.00  0.00    -0.191 NA
ENDBRANCH   6  12
BRANCH   9  14
ATOM     14  C   UNL     1      -1.804  -7.856   7.411  0.00  0.00    +0.161 C 
BRANCH  14  15
ATOM     15  C   UNL     1      -3.228  -8.220   7.743  0.00  0.00    +0.119 A 
ATOM     16  C   UNL     1      -3.793  -8.155   8.963  0.00  0.00    +0.046 A 
ATOM     17  C   UNL     1      -5.132  -8.585   8.818  0.00  0.00    +0.041 A 
ATOM     18  C   UNL     1      -5.306  -8.887   7.518  0.00  0.00    +0.195 A 
ATOM     19  O   UNL     1      -4.151  -8.659   6.872  0.00  0.00    -0.467 OA
ENDBRANCH  14  15
ENDBRANCH   9  14
ENDBRANCH   3   5
BRANCH   1  20
ATOM     20  C   UNL     1       0.184  -6.931   3.456  0.00  0.00    +0.173 C 
BRANCH  20  21
ATOM     21  S   UNL     1       0.302  -7.640   1.790  0.00  0.00    -0.077 S 
BRANCH  21  24
ATOM     22  C   UNL     1       0.204  -4.181   0.030  0.00  0.00    +0.182 A 
ATOM     23  N   UNL     1       0.195  -4.979   1.107  0.00  0.00    -0.201 NA
ATOM     24  C   UNL     1       0.279  -6.235   0.726  0.00  0.00    +0.185 A 
ATOM     25  N   UNL     1       0.346  -6.260  -0.623  0.00  0.00    -0.253 N 
ATOM     26  H   UNL     1       0.414  -7.047  -1.187  0.00  0.00    +0.191 HD
ATOM     27  N   UNL     1       0.291  -4.923  -1.050  0.00  0.00    -0.152 NA
BRANCH  22  32
ATOM     28  C   UNL     1      -0.106   1.570   0.123  0.00  0.00    +0.044 C 
ATOM     29  C   UNL     1      -0.025   0.065   0.099  0.00  0.00    -0.050 A 
ATOM     30  C   UNL     1       0.064  -0.601  -1.111  0.00  0.00    +0.004 A 
ATOM     31  C   UNL     1       0.139  -1.978  -1.139  0.00  0.00    +0.012 A 
ATOM     32  C   UNL     1       0.125  -2.699   0.054  0.00  0.00    +0.021 A 
ATOM     33  C   UNL     1       0.035  -2.023   1.269  0.00  0.00    +0.012 A 
ATOM     34  C   UNL     1      -0.033  -0.645   1.286  0.00  0.00    +0.004 A 
ENDBRANCH  22  32
ENDBRANCH  21  24
ENDBRANCH  20  21
ENDBRANCH   1  20
TORSDOF 8
