REMARK  Name = ZINC32123957
REMARK  7 active torsions:
REMARK  status: ('A' for Active; 'I' for Inactive)
REMARK    1  A    between atoms: C_1  and  O_2
REMARK    2  A    between atoms: O_2  and  C_3
REMARK    3  A    between atoms: C_3  and  C_5
REMARK    4  A    between atoms: C_5  and  C_7
REMARK    5  A    between atoms: C_5  and  N_14
REMARK    6  A    between atoms: C_7  and  C_8
REMARK    7  A    between atoms: C_26  and  C_28
REMARK                            x       y       z     vdW  Elec       q    Type
REMARK                         _______ _______ _______ _____ _____    ______ ____
ROOT
ATOM      1  N   UNL     1      -2.730  -2.280   2.715  0.00  0.00    -0.286 N 
ATOM      2  C   UNL     1      -3.170  -2.595   1.480  0.00  0.00    +0.304 C 
ATOM      3  O   UNL     1      -2.465  -2.383   0.512  0.00  0.00    -0.253 OA
ATOM      4  N   UNL     1      -4.390  -3.144   1.318  0.00  0.00    -0.273 N 
ATOM      5  C   UNL     1      -4.839  -3.604  -0.004  0.00  0.00    +0.116 C 
ATOM      6  C   UNL     1      -6.041  -2.760  -0.448  0.00  0.00    +0.074 C 
ATOM      7  C   UNL     1      -6.994  -2.627   0.711  0.00  0.00    +0.040 A 
ATOM      8  C   UNL     1      -6.676  -2.859   2.003  0.00  0.00    +0.062 A 
ATOM      9  N   UNL     1      -7.763  -2.637   2.745  0.00  0.00    -0.348 N 
ATOM     10  C   UNL     1      -8.748  -2.279   1.963  0.00  0.00    +0.171 A 
ATOM     11  N   UNL     1      -8.306  -2.262   0.685  0.00  0.00    -0.349 N 
ATOM     12  H   UNL     1      -8.826  -2.034  -0.102  0.00  0.00    +0.166 HD
ATOM     13  C   UNL     1      -5.304  -3.303   2.463  0.00  0.00    +0.156 C 
ATOM     14  H   UNL     1      -3.319  -2.381   3.479  0.00  0.00    +0.151 HD
ATOM     15  H   UNL     1      -7.814  -2.727   3.709  0.00  0.00    +0.167 HD
ENDROOT
BRANCH  13  16
ATOM     16  C   UNL     1      -5.345  -4.748   2.890  0.00  0.00    -0.017 A 
ATOM     17  C   UNL     1      -4.898  -5.109   4.148  0.00  0.00    +0.009 A 
ATOM     18  C   UNL     1      -4.934  -6.433   4.544  0.00  0.00    +0.050 A 
ATOM     19  C   UNL     1      -5.418  -7.402   3.680  0.00  0.00    +0.166 A 
ATOM     20  C   UNL     1      -5.867  -7.038   2.413  0.00  0.00    +0.167 A 
ATOM     21  C   UNL     1      -5.834  -5.709   2.025  0.00  0.00    +0.055 A 
ATOM     22  O   UNL     1      -6.290  -8.161   1.761  0.00  0.00    -0.453 OA
ATOM     23  C   UNL     1      -5.715  -9.265   2.486  0.00  0.00    +0.466 C 
ATOM     24  O   UNL     1      -5.558  -8.752   3.822  0.00  0.00    -0.453 OA
ENDBRANCH  13  16
BRANCH   1  25
ATOM     25  C   UNL     1      -1.364  -1.786   2.902  0.00  0.00    +0.187 C 
BRANCH  25  26
ATOM     26  C   UNL     1      -0.419  -2.953   3.021  0.00  0.00    +0.328 C 
ATOM     27  O   UNL     1      -0.843  -4.083   2.955  0.00  0.00    -0.249 OA
BRANCH  26  29
ATOM     28  C   UNL     1       1.732  -3.891   3.303  0.00  0.00    +0.280 C 
ATOM     29  O   UNL     1       0.894  -2.738   3.199  0.00  0.00    -0.467 OA
ENDBRANCH  26  29
ENDBRANCH  25  26
BRANCH  25  30
ATOM     30  C   UNL     1      -1.298  -0.944   4.178  0.00  0.00    +0.069 C 
BRANCH  30  31
ATOM     31  C   UNL     1      -2.149   0.289   4.012  0.00  0.00    -0.045 A 
ATOM     32  C   UNL     1      -1.597   1.444   3.491  0.00  0.00    +0.004 A 
ATOM     33  C   UNL     1      -2.378   2.575   3.339  0.00  0.00    +0.000 A 
ATOM     34  C   UNL     1      -3.710   2.550   3.707  0.00  0.00    +0.000 A 
ATOM     35  C   UNL     1      -4.262   1.394   4.228  0.00  0.00    +0.000 A 
ATOM     36  C   UNL     1      -3.482   0.262   4.376  0.00  0.00    +0.004 A 
ENDBRANCH  30  31
ENDBRANCH  25  30
ENDBRANCH   1  25
TORSDOF 6
