REMARK  Name = ZINC06993250
REMARK  9 active torsions:
REMARK  status: ('A' for Active; 'I' for Inactive)
REMARK    1  A    between atoms: C_1  and  O_2
REMARK    2  A    between atoms: O_2  and  C_3
REMARK    3  A    between atoms: C_6  and  C_13
REMARK    4  A    between atoms: C_7  and  O_11
REMARK    5  A    between atoms: C_8  and  O_9
REMARK    6  A    between atoms: O_9  and  C_10
REMARK    7  A    between atoms: O_11  and  C_12
REMARK    8  A    between atoms: N_15  and  N_16
REMARK    9  A    between atoms: C_17  and  C_19
REMARK                            x       y       z     vdW  Elec       q    Type
REMARK                         _______ _______ _______ _____ _____    ______ ____
ROOT
ATOM      1  C   UNL     1      -0.016   1.344   0.009  0.00  0.00    +0.264 C 
ATOM      2  O   UNL     1       1.029   1.966   0.003  0.00  0.00    -0.269 OA
ATOM      3  N   UNL     1       0.002  -0.004   0.002  0.00  0.00    -0.230 N 
ATOM      4  H   UNL     1      -0.831  -0.500   0.007  0.00  0.00    +0.173 HD
ENDROOT
BRANCH   1   8
ATOM      5  C   UNL     1      -3.729   3.413   0.039  0.00  0.00    +0.165 A 
ATOM      6  C   UNL     1      -3.705   2.023   0.031  0.00  0.00    +0.050 A 
ATOM      7  C   UNL     1      -2.505   1.349   0.021  0.00  0.00    +0.020 A 
ATOM      8  C   UNL     1      -1.302   2.063   0.019  0.00  0.00    +0.084 A 
ATOM      9  C   UNL     1      -1.324   3.465   0.033  0.00  0.00    +0.177 A 
ATOM     10  C   UNL     1      -2.540   4.134   0.036  0.00  0.00    +0.204 A 
BRANCH   5  12
ATOM     11  C   UNL     1      -6.101   3.269   0.051  0.00  0.00    +0.277 C 
ATOM     12  O   UNL     1      -4.918   4.070   0.049  0.00  0.00    -0.491 OA
ENDBRANCH   5  12
BRANCH  10  13
ATOM     13  O   UNL     1      -2.568   5.495   0.044  0.00  0.00    -0.488 OA
ATOM     14  C   UNL     1      -2.575   6.136   1.321  0.00  0.00    +0.277 C 
ENDBRANCH  10  13
BRANCH   9  15
ATOM     15  O   UNL     1      -0.161   4.165   0.037  0.00  0.00    -0.491 OA
ATOM     16  C   UNL     1       0.393   4.511  -1.234  0.00  0.00    +0.277 C 
ENDBRANCH   9  15
ENDBRANCH   1   8
BRANCH   3  17
ATOM     17  N   UNL     1       1.225  -0.688  -0.013  0.00  0.00    -0.230 N 
ATOM     18  C   UNL     1       1.243  -2.036  -0.021  0.00  0.00    +0.267 C 
ATOM     19  O   UNL     1       0.197  -2.658  -0.014  0.00  0.00    -0.268 OA
ATOM     20  H   UNL     1       2.058  -0.192  -0.019  0.00  0.00    +0.173 HD
BRANCH  18  21
ATOM     21  C   UNL     1       2.522  -2.751  -0.037  0.00  0.00    +0.076 A 
ATOM     22  C   UNL     1       2.761  -4.108  -0.046  0.00  0.00    +0.024 A 
ATOM     23  C   UNL     1       4.087  -4.547  -0.075  0.00  0.00    -0.036 A 
ATOM     24  C   UNL     1       5.047  -3.601  -0.032  0.00  0.00    -0.006 A 
ATOM     25  S   UNL     1       4.179  -2.096  -0.057  0.00  0.00    -0.088 S 
ATOM     26  C   UNL     1       6.547  -3.670   0.088  0.00  0.00    +0.043 C 
ATOM     27  C   UNL     1       7.055  -5.109   0.198  0.00  0.00    +0.005 C 
ATOM     28  C   UNL     1       7.105  -5.768  -1.171  0.00  0.00    +0.000 C 
ATOM     29  C   UNL     1       5.942  -5.369  -2.057  0.00  0.00    +0.000 C 
ATOM     30  C   UNL     1       4.771  -6.289  -1.702  0.00  0.00    +0.005 C 
ATOM     31  C   UNL     1       4.362  -6.034  -0.251  0.00  0.00    +0.036 C 
ENDBRANCH  18  21
ENDBRANCH   3  17
TORSDOF 6
