REMARK  Name = ZINC33011148
REMARK  11 active torsions:
REMARK  status: ('A' for Active; 'I' for Inactive)
REMARK    1  A    between atoms: C_1  and  C_2
REMARK    2  A    between atoms: C_5  and  C_8
REMARK    3  A    between atoms: C_11  and  C_24
REMARK    4  A    between atoms: C_12  and  S_14
REMARK    5  A    between atoms: S_14  and  C_15
REMARK    6  A    between atoms: C_15  and  C_16
REMARK    7  A    between atoms: N_18  and  C_19
REMARK    8  A    between atoms: C_19  and  C_20
REMARK    9  A    between atoms: C_20  and  C_21
REMARK   10  A    between atoms: C_21  and  C_22
REMARK   11  A    between atoms: C_21  and  C_23
REMARK                            x       y       z     vdW  Elec       q    Type
REMARK                         _______ _______ _______ _____ _____    ______ ____
ROOT
ATOM      1  C   UNL     1      -1.227   1.763   0.017  0.00  0.00    +0.072 A 
ATOM      2  C   UNL     1      -0.013   1.076   0.008  0.00  0.00    +0.030 A 
ATOM      3  C   UNL     1       1.170   1.788   0.001  0.00  0.00    +0.023 A 
ATOM      4  C   UNL     1       1.107   3.188   0.009  0.00  0.00    +0.084 A 
ATOM      5  C   UNL     1      -0.154   3.813   0.024  0.00  0.00    +0.115 A 
ATOM      6  N   UNL     1      -1.261   3.089   0.031  0.00  0.00    -0.239 NA
ENDROOT
BRANCH   1  11
ATOM      7  C   UNL     1      -6.162  -1.202   0.021  0.00  0.00    +0.044 C 
ATOM      8  C   UNL     1      -4.871  -0.426   0.021  0.00  0.00    -0.050 A 
ATOM      9  C   UNL     1      -4.898   0.957   0.029  0.00  0.00    +0.004 A 
ATOM     10  C   UNL     1      -3.718   1.673   0.028  0.00  0.00    +0.010 A 
ATOM     11  C   UNL     1      -2.497   1.000   0.019  0.00  0.00    +0.000 A 
ATOM     12  C   UNL     1      -2.476  -0.395   0.005  0.00  0.00    +0.010 A 
ATOM     13  C   UNL     1      -3.662  -1.100   0.011  0.00  0.00    +0.004 A 
ENDBRANCH   1  11
BRANCH   4  14
ATOM     14  C   UNL     1       2.306   3.970   0.002  0.00  0.00    +0.102 C 
ATOM     15  N   UNL     1       3.258   4.591  -0.004  0.00  0.00    -0.191 NA
ENDBRANCH   4  14
BRANCH   5  16
ATOM     16  S   UNL     1      -0.258   5.572   0.035  0.00  0.00    -0.095 S 
BRANCH  16  17
ATOM     17  C   UNL     1      -2.056   5.780   0.053  0.00  0.00    +0.171 C 
BRANCH  17  18
ATOM     18  C   UNL     1      -2.391   7.249   0.065  0.00  0.00    +0.223 C 
ATOM     19  O   UNL     1      -1.502   8.074   0.061  0.00  0.00    -0.275 OA
ATOM     20  N   UNL     1      -3.679   7.646   0.079  0.00  0.00    -0.315 N 
ATOM     21  H   UNL     1      -4.486   6.898   0.083  0.00  0.00    +0.149 HD
BRANCH  20  22
ATOM     22  C   UNL     1      -4.005   9.075   0.090  0.00  0.00    +0.104 C 
BRANCH  22  23
ATOM     23  C   UNL     1      -5.525   9.251   0.106  0.00  0.00    +0.022 C 
BRANCH  23  24
ATOM     24  C   UNL     1      -5.866  10.742   0.118  0.00  0.00    -0.016 C 
ATOM     25  C   UNL     1      -5.397  11.383  -1.190  0.00  0.00    +0.007 C 
ATOM     26  C   UNL     1      -7.379  10.919   0.259  0.00  0.00    +0.007 C 
ENDBRANCH  23  24
ENDBRANCH  22  23
ENDBRANCH  20  22
ENDBRANCH  17  18
ENDBRANCH  16  17
ENDBRANCH   5  16
TORSDOF 8
