REMARK  Name = ZINC04246152
REMARK  7 active torsions:
REMARK  status: ('A' for Active; 'I' for Inactive)
REMARK    1  A    between atoms: C_5  and  N_7
REMARK    2  A    between atoms: C_8  and  C_10
REMARK    3  A    between atoms: C_10  and  O_11
REMARK    4  A    between atoms: O_11  and  C_12
REMARK    5  A    between atoms: C_12  and  C_14
REMARK    6  A    between atoms: C_17  and  N_21
REMARK    7  A    between atoms: C_19  and  N_20
REMARK                            x       y       z     vdW  Elec       q    Type
REMARK                         _______ _______ _______ _____ _____    ______ ____
ROOT
ATOM      1  C   UNL     1      -4.989   3.832   0.021  0.00  0.00    +0.341 C 
ATOM      2  O   UNL     1      -6.013   3.182   0.105  0.00  0.00    -0.245 OA
ENDROOT
BRANCH   1   3
ATOM      3  C   UNL     1      -3.683   3.151   0.010  0.00  0.00    +0.080 A 
ATOM      4  C   UNL     1      -2.501   3.896   0.023  0.00  0.00    +0.019 A 
ATOM      5  C   UNL     1      -1.283   3.253   0.019  0.00  0.00    +0.033 A 
ATOM      6  C   UNL     1      -1.222   1.868  -0.010  0.00  0.00    +0.128 A 
ATOM      7  C   UNL     1      -2.380   1.118  -0.024  0.00  0.00    +0.056 A 
ATOM      8  C   UNL     1      -3.618   1.748  -0.013  0.00  0.00    +0.041 A 
BRANCH   8   9
ATOM      9  N   UNL     1      -4.784   0.996  -0.027  0.00  0.00    -0.357 N 
ATOM     10  H   UNL     1      -4.738   0.031  -0.118  0.00  0.00    +0.142 HD
ATOM     11  H   UNL     1      -5.646   1.434   0.055  0.00  0.00    +0.142 HD
ENDBRANCH   8   9
BRANCH   6  12
ATOM     12  N   UNL     1       0.094   1.190  -0.020  0.00  0.00    +0.056 N 
ATOM     13  O   UNL     1       0.152  -0.026  -0.040  0.00  0.00    -0.126 OA
ATOM     14  O   UNL     1       1.118   1.849  -0.013  0.00  0.00    -0.126 OA
ENDBRANCH   6  12
ENDBRANCH   1   3
BRANCH   1  15
ATOM     15  O   UNL     1      -5.049   5.176  -0.062  0.00  0.00    -0.452 OA
BRANCH  15  16
ATOM     16  C   UNL     1      -6.369   5.779  -0.046  0.00  0.00    +0.328 C 
BRANCH  16  18
ATOM     17  N   UNL     1      -7.342   8.051  -0.151  0.00  0.00    -0.282 N 
ATOM     18  C   UNL     1      -6.238   7.277  -0.147  0.00  0.00    +0.255 C 
ATOM     19  O   UNL     1      -5.140   7.786  -0.225  0.00  0.00    -0.272 OA
ATOM     20  H   UNL     1      -8.214   7.653  -0.008  0.00  0.00    +0.155 HD
BRANCH  17  25
ATOM     21  C   UNL     1      -6.031  11.302  -1.264  0.00  0.00    +0.002 A 
ATOM     22  C   UNL     1      -7.003  12.157  -0.777  0.00  0.00    +0.001 A 
ATOM     23  C   UNL     1      -8.087  11.653  -0.082  0.00  0.00    +0.017 A 
ATOM     24  C   UNL     1      -8.203  10.292   0.127  0.00  0.00    +0.039 A 
ATOM     25  C   UNL     1      -7.228   9.430  -0.361  0.00  0.00    +0.048 A 
ATOM     26  C   UNL     1      -6.138   9.941  -1.054  0.00  0.00    +0.024 A 
ATOM     27 BR   UNL     1      -9.685   9.603   1.078  0.00  0.00    -0.048 Br
ENDBRANCH  17  25
ENDBRANCH  16  18
ENDBRANCH  15  16
ENDBRANCH   1  15
TORSDOF 7
