REMARK  Name = ZINC55979417
REMARK  9 active torsions:
REMARK  status: ('A' for Active; 'I' for Inactive)
REMARK    1  A    between atoms: C_1  and  C_2
REMARK    2  A    between atoms: C_2  and  O_3
REMARK    3  A    between atoms: O_3  and  C_4
REMARK    4  A    between atoms: C_8  and  C_10
REMARK    5  A    between atoms: N_12  and  C_13
REMARK    6  A    between atoms: C_15  and  S_21
REMARK    7  A    between atoms: C_17  and  C_20
REMARK    8  A    between atoms: C_18  and  C_19
REMARK    9  A    between atoms: S_21  and  N_24
REMARK                            x       y       z     vdW  Elec       q    Type
REMARK                         _______ _______ _______ _____ _____    ______ ____
ROOT
ATOM      1  C   UNL     1      -0.785  -4.679  -0.334  0.00  0.00    +0.268 C 
ATOM      2  O   UNL     1      -1.220  -5.777  -0.047  0.00  0.00    -0.268 OA
ATOM      3  N   UNL     1      -0.857  -4.238  -1.606  0.00  0.00    -0.280 N 
ATOM      4  H   UNL     1      -0.584  -3.333  -1.821  0.00  0.00    +0.155 HD
ENDROOT
BRANCH   3   5
ATOM      5  C   UNL     1      -1.325  -5.086  -2.615  0.00  0.00    +0.039 A 
ATOM      6  C   UNL     1      -1.230  -6.464  -2.466  0.00  0.00    +0.052 A 
ATOM      7  C   UNL     1      -1.693  -7.298  -3.464  0.00  0.00    +0.107 A 
ATOM      8  C   UNL     1      -2.251  -6.763  -4.611  0.00  0.00    +0.032 A 
ATOM      9  C   UNL     1      -2.347  -5.392  -4.762  0.00  0.00    -0.044 A 
ATOM     10  C   UNL     1      -1.890  -4.552  -3.765  0.00  0.00    -0.026 A 
ATOM     11  C   UNL     1      -2.001  -3.058  -3.928  0.00  0.00    +0.046 C 
ATOM     12  C   UNL     1      -2.956  -4.814  -6.014  0.00  0.00    +0.044 C 
BRANCH   7  13
ATOM     13  S   UNL     1      -1.573  -9.046  -3.276  0.00  0.00    +0.056 S 
ATOM     14  O   UNL     1      -1.580  -9.596  -4.586  0.00  0.00    -0.153 OA
ATOM     15  O   UNL     1      -0.517  -9.284  -2.355  0.00  0.00    -0.153 OA
BRANCH  13  16
ATOM     16  N   UNL     1      -2.966  -9.556  -2.541  0.00  0.00    -0.204 NA
ATOM     17  H   UNL     1      -3.653  -8.914  -2.304  0.00  0.00    +0.144 HD
ATOM     18  H   UNL     1      -3.095 -10.498  -2.348  0.00  0.00    +0.144 HD
ENDBRANCH  13  16
ENDBRANCH   7  13
ENDBRANCH   3   5
BRANCH   1  23
ATOM     19  C   UNL     1       0.846  -1.838   1.293  0.00  0.00    +0.215 A 
ATOM     20  C   UNL     1       0.948  -2.238   2.623  0.00  0.00    +0.069 A 
ATOM     21  C   UNL     1       0.467  -3.479   2.997  0.00  0.00    +0.027 A 
ATOM     22  C   UNL     1      -0.106  -4.289   2.024  0.00  0.00    +0.072 A 
ATOM     23  C   UNL     1      -0.177  -3.827   0.712  0.00  0.00    +0.148 A 
ATOM     24  N   UNL     1       0.292  -2.625   0.392  0.00  0.00    -0.207 NA
ATOM     25 CL   UNL     1      -0.726  -5.857   2.438  0.00  0.00    -0.081 Cl
BRANCH  19  26
ATOM     26  O   UNL     1       1.316  -0.620   0.921  0.00  0.00    -0.477 OA
BRANCH  26  28
ATOM     27  C   UNL     1       1.760   1.132  -0.683  0.00  0.00    +0.048 C 
ATOM     28  C   UNL     1       1.177  -0.264  -0.456  0.00  0.00    +0.227 C 
ENDBRANCH  26  28
ENDBRANCH  19  26
ENDBRANCH   1  23
TORSDOF 6
