REMARK  Name = ZINC20749206
REMARK  6 active torsions:
REMARK  status: ('A' for Active; 'I' for Inactive)
REMARK    1  A    between atoms: C_1  and  C_2
REMARK    2  A    between atoms: N_5  and  S_8
REMARK    3  A    between atoms: S_8  and  C_11
REMARK    4  A    between atoms: C_24  and  C_27
REMARK    5  A    between atoms: C_32  and  O_33
REMARK    6  A    between atoms: O_33  and  C_34
REMARK                            x       y       z     vdW  Elec       q    Type
REMARK                         _______ _______ _______ _____ _____    ______ ____
ROOT
ATOM      1  C   UNL     1      -0.505   4.027   0.096  0.00  0.00    +0.106 A 
ATOM      2  C   UNL     1      -1.622   3.212   0.105  0.00  0.00    +0.030 A 
ATOM      3  C   UNL     1      -1.469   1.840   0.074  0.00  0.00    +0.025 A 
ATOM      4  C   UNL     1      -0.196   1.283   0.045  0.00  0.00    +0.031 A 
ATOM      5  C   UNL     1       0.927   2.097   0.035  0.00  0.00    -0.018 A 
ATOM      6  C   UNL     1       0.759   3.475   0.062  0.00  0.00    +0.034 A 
ATOM      7  C   UNL     1       2.302   1.546  -0.021  0.00  0.00    +0.049 C 
ATOM      8  C   UNL     1       2.967   1.675   1.329  0.00  0.00    -0.023 C 
ATOM      9  C   UNL     1       3.736   0.638   1.556  0.00  0.00    -0.030 C 
ATOM     10  C   UNL     1       3.694  -0.341   0.370  0.00  0.00    +0.033 C 
ATOM     11  C   UNL     1       2.354   0.037  -0.327  0.00  0.00    +0.029 C 
ATOM     12  C   UNL     1       1.231  -0.687   0.420  0.00  0.00    +0.108 C 
ATOM     13  N   UNL     1      -0.057  -0.108   0.021  0.00  0.00    -0.336 N 
ATOM     14  H   UNL     1      -0.883  -0.766  -0.287  0.00  0.00    +0.147 HD
ENDROOT
BRANCH  12  15
ATOM     15  C   UNL     1       1.422  -0.517   1.905  0.00  0.00    +0.015 A 
ATOM     16  C   UNL     1       0.858   0.564   2.556  0.00  0.00    +0.009 A 
ATOM     17  C   UNL     1       1.033   0.720   3.918  0.00  0.00    +0.001 A 
ATOM     18  C   UNL     1       1.772  -0.204   4.634  0.00  0.00    +0.004 A 
ATOM     19  C   UNL     1       2.338  -1.286   3.988  0.00  0.00    +0.046 A 
ATOM     20  C   UNL     1       2.159  -1.448   2.622  0.00  0.00    +0.125 A 
BRANCH  20  21
ATOM     21  O   UNL     1       2.710  -2.515   1.985  0.00  0.00    -0.495 OA
ATOM     22  C   UNL     1       3.457  -3.434   2.786  0.00  0.00    +0.277 C 
ENDBRANCH  20  21
ENDBRANCH  12  15
BRANCH   1  23
ATOM     23  S   UNL     1      -0.697   5.778   0.129  0.00  0.00    +0.061 S 
ATOM     24  O   UNL     1      -1.968   6.037   0.710  0.00  0.00    -0.153 OA
ATOM     25  O   UNL     1       0.508   6.308   0.665  0.00  0.00    -0.153 OA
BRANCH  23  30
ATOM     26  C   UNL     1      -0.749   5.325  -5.587  0.00  0.00    +0.007 C 
ATOM     27  C   UNL     1      -0.810   6.092  -4.264  0.00  0.00    -0.012 C 
ATOM     28  C   UNL     1      -1.998   5.592  -3.439  0.00  0.00    +0.020 C 
ATOM     29  C   UNL     1      -2.076   6.386  -2.131  0.00  0.00    +0.110 C 
ATOM     30  N   UNL     1      -0.781   6.291  -1.443  0.00  0.00    -0.177 NA
ATOM     31  C   UNL     1       0.436   6.667  -2.175  0.00  0.00    +0.110 C 
ATOM     32  C   UNL     1       0.487   5.865  -3.484  0.00  0.00    +0.020 C 
ENDBRANCH  23  30
ENDBRANCH   1  23
TORSDOF 4
