REMARK  Name = ZINC38670645
REMARK  8 active torsions:
REMARK  status: ('A' for Active; 'I' for Inactive)
REMARK    1  A    between atoms: C_1  and  C_2
REMARK    2  A    between atoms: C_9  and  S_12
REMARK    3  A    between atoms: S_12  and  N_15
REMARK    4  A    between atoms: N_15  and  C_16
REMARK    5  A    between atoms: C_16  and  C_17
REMARK    6  A    between atoms: C_17  and  C_19
REMARK    7  A    between atoms: C_17  and  N_30
REMARK    8  A    between atoms: N_28  and  C_29
REMARK                            x       y       z     vdW  Elec       q    Type
REMARK                         _______ _______ _______ _____ _____    ______ ____
ROOT
ATOM      1  C   UNL     1       2.918   0.978   3.571  0.00  0.00    -0.022 C 
ENDROOT
BRANCH   1   2
ATOM      2  C   UNL     1       3.227   2.067   2.576  0.00  0.00    -0.059 A 
ATOM      3  C   UNL     1       3.995   1.784   1.461  0.00  0.00    +0.004 A 
ATOM      4  C   UNL     1       4.279   2.782   0.551  0.00  0.00    +0.023 A 
ATOM      5  C   UNL     1       3.794   4.069   0.754  0.00  0.00    +0.033 A 
ATOM      6  C   UNL     1       3.022   4.351   1.871  0.00  0.00    -0.026 A 
ATOM      7  C   UNL     1       2.739   3.343   2.777  0.00  0.00    +0.007 A 
ATOM      8  C   UNL     1       2.470   5.730   2.119  0.00  0.00    +0.038 C 
ATOM      9  C   UNL     1       3.266   6.774   1.335  0.00  0.00    +0.024 C 
ATOM     10  C   UNL     1       3.352   6.333  -0.132  0.00  0.00    +0.105 C 
ATOM     11  N   UNL     1       4.098   5.067  -0.178  0.00  0.00    -0.333 N 
ATOM     12  C   UNL     1       5.142   4.855  -1.183  0.00  0.00    +0.129 C 
ENDBRANCH   1   2
BRANCH   1  13
ATOM     13  N   UNL     1       4.110   0.143   3.771  0.00  0.00    +0.385 N 
ATOM     14  C   UNL     1       5.216   0.958   4.337  0.00  0.00    -0.078 C 
ATOM     15  C   UNL     1       6.136  -0.102   4.994  0.00  0.00    -0.020 C 
ATOM     16  C   UNL     1       5.129  -1.120   5.577  0.00  0.00    -0.020 C 
ATOM     17  C   UNL     1       3.834  -0.911   4.770  0.00  0.00    -0.078 C 
ATOM     18  H   UNL     1       4.395  -0.272   2.896  0.00  0.00    -0.081 HD
ENDBRANCH   1  13
BRANCH   1  19
ATOM     19  C   UNL     1       1.773   0.113   3.041  0.00  0.00    +0.095 C 
BRANCH  19  20
ATOM     20  N   UNL     1       0.549   0.915   2.965  0.00  0.00    -0.191 NA
ATOM     21  H   UNL     1       0.492   1.758   3.441  0.00  0.00    +0.148 HD
BRANCH  20  22
ATOM     22  S   UNL     1      -0.737   0.381   2.069  0.00  0.00    +0.060 S 
ATOM     23  O   UNL     1      -0.219   0.005   0.800  0.00  0.00    -0.153 OA
ATOM     24  O   UNL     1      -1.765   1.351   2.215  0.00  0.00    -0.153 OA
BRANCH  22  33
ATOM     25  C   UNL     1       2.848  -3.243   1.750  0.00  0.00    +0.065 C 
ATOM     26  C   UNL     1       1.475  -3.304   2.367  0.00  0.00    +0.039 A 
ATOM     27  C   UNL     1       1.048  -4.491   2.958  0.00  0.00    +0.023 A 
ATOM     28  C   UNL     1      -0.194  -4.564   3.522  0.00  0.00    +0.012 A 
ATOM     29  C   UNL     1      -1.009  -3.417   3.485  0.00  0.00    +0.002 A 
ATOM     30  C   UNL     1      -2.296  -3.417   4.045  0.00  0.00    +0.010 A 
ATOM     31  C   UNL     1      -3.054  -2.287   3.989  0.00  0.00    +0.003 A 
ATOM     32  C   UNL     1      -2.568  -1.130   3.382  0.00  0.00    +0.031 A 
ATOM     33  C   UNL     1      -1.325  -1.095   2.830  0.00  0.00    +0.131 A 
ATOM     34  C   UNL     1      -0.513  -2.242   2.868  0.00  0.00    +0.098 A 
ATOM     35  N   UNL     1       0.715  -2.236   2.339  0.00  0.00    -0.250 NA
ENDBRANCH  22  33
ENDBRANCH  20  22
ENDBRANCH  19  20
ENDBRANCH   1  19
TORSDOF 6
