REMARK  Name = ZINC33914862
REMARK  8 active torsions:
REMARK  status: ('A' for Active; 'I' for Inactive)
REMARK    1  A    between atoms: C_1  and  C_2
REMARK    2  A    between atoms: C_3  and  C_27
REMARK    3  A    between atoms: C_4  and  C_20
REMARK    4  A    between atoms: N_9  and  C_10
REMARK    5  A    between atoms: C_10  and  C_11
REMARK    6  A    between atoms: C_14  and  C_17
REMARK    7  A    between atoms: C_27  and  O_29
REMARK    8  A    between atoms: O_29  and  C_30
REMARK                            x       y       z     vdW  Elec       q    Type
REMARK                         _______ _______ _______ _____ _____    ______ ____
ROOT
ATOM      1  C   UNL     1       0.286   1.442  -0.266  0.00  0.00    +0.061 C 
ATOM      2  C   UNL     1       0.156  -0.057  -0.177  0.00  0.00    +0.024 C 
ATOM      3  C   UNL     1      -1.066  -0.610  -0.017  0.00  0.00    +0.078 C 
ATOM      4  C   UNL     1      -1.151  -2.120   0.068  0.00  0.00    +0.145 C 
ATOM      5  N   UNL     1       0.115  -2.866  -0.031  0.00  0.00    -0.288 N 
ATOM      6  C   UNL     1       1.259  -2.171  -0.190  0.00  0.00    +0.307 C 
ATOM      7  O   UNL     1       2.309  -2.778  -0.273  0.00  0.00    -0.252 OA
ATOM      8  N   UNL     1       1.275  -0.835  -0.265  0.00  0.00    -0.255 N 
ATOM      9  H   UNL     1       0.125  -3.835   0.017  0.00  0.00    +0.151 HD
ENDROOT
BRANCH   4  10
ATOM     10  C   UNL     1      -2.059  -2.597  -1.036  0.00  0.00    -0.004 A 
ATOM     11  C   UNL     1      -2.330  -1.774  -2.112  0.00  0.00    +0.007 A 
ATOM     12  C   UNL     1      -3.162  -2.211  -3.125  0.00  0.00    +0.000 A 
ATOM     13  C   UNL     1      -3.725  -3.473  -3.062  0.00  0.00    +0.001 A 
ATOM     14  C   UNL     1      -3.454  -4.297  -1.987  0.00  0.00    +0.020 A 
ATOM     15  C   UNL     1      -2.616  -3.862  -0.975  0.00  0.00    +0.046 A 
ATOM     16 CL   UNL     1      -2.271  -4.899   0.373  0.00  0.00    -0.083 Cl
ENDBRANCH   4  10
BRANCH   3  17
ATOM     17  C   UNL     1      -2.227   0.194   0.069  0.00  0.00    +0.339 C 
ATOM     18  O   UNL     1      -2.149   1.395  -0.109  0.00  0.00    -0.245 OA
BRANCH  17  19
ATOM     19  O   UNL     1      -3.420  -0.371   0.349  0.00  0.00    -0.465 OA
ATOM     20  C   UNL     1      -4.566   0.480   0.310  0.00  0.00    +0.280 C 
ENDBRANCH  17  19
ENDBRANCH   3  17
BRANCH   8  21
ATOM     21  C   UNL     1       2.568  -0.168  -0.444  0.00  0.00    +0.150 C 
BRANCH  21  22
ATOM     22  C   UNL     1       3.183   0.105   0.904  0.00  0.00    -0.030 A 
ATOM     23  C   UNL     1       2.914   1.295   1.556  0.00  0.00    +0.006 A 
ATOM     24  C   UNL     1       3.475   1.552   2.790  0.00  0.00    +0.015 A 
ATOM     25  C   UNL     1       4.316   0.606   3.382  0.00  0.00    +0.063 A 
ATOM     26  C   UNL     1       4.583  -0.594   2.718  0.00  0.00    +0.015 A 
ATOM     27  C   UNL     1       4.011  -0.839   1.487  0.00  0.00    +0.006 A 
BRANCH  25  28
ATOM     28  C   UNL     1       4.920   0.873   4.701  0.00  0.00    +0.387 C 
ATOM     29  O   UNL     1       4.684   1.925   5.279  0.00  0.00    -0.241 OA
ATOM     30  O   UNL     1       5.655   0.044   5.216  0.00  0.00    -0.241 OA
ENDBRANCH  25  28
ENDBRANCH  21  22
ENDBRANCH   8  21
TORSDOF 6
