REMARK  Name = ZINC64044567
REMARK  8 active torsions:
REMARK  status: ('A' for Active; 'I' for Inactive)
REMARK    1  A    between atoms: C_1  and  C_2
REMARK    2  A    between atoms: C_2  and  C_3
REMARK    3  A    between atoms: C_2  and  C_4
REMARK    4  A    between atoms: C_2  and  C_5
REMARK    5  A    between atoms: C_16  and  C_19
REMARK    6  A    between atoms: C_17  and  O_18
REMARK    7  A    between atoms: N_20  and  N_21
REMARK    8  A    between atoms: C_22  and  C_24
REMARK                            x       y       z     vdW  Elec       q    Type
REMARK                         _______ _______ _______ _____ _____    ______ ____
ROOT
ATOM      1  C   UNL     1       0.723  -0.490  -1.229  0.00  0.00    +0.004 A 
ATOM      2  C   UNL     1       1.245   0.426  -2.119  0.00  0.00    +0.054 A 
ATOM      3  C   UNL     1       1.916  -0.001  -3.259  0.00  0.00    +0.137 A 
ATOM      4  C   UNL     1       2.062  -1.376  -3.503  0.00  0.00    +0.036 A 
ATOM      5  C   UNL     1       2.798  -1.471  -4.756  0.00  0.00    +0.002 A 
ATOM      6  C   UNL     1       3.035  -0.209  -5.162  0.00  0.00    +0.109 A 
ATOM      7  O   UNL     1       2.513   0.655  -4.278  0.00  0.00    -0.459 OA
ATOM      8  C   UNL     1       3.781   0.133  -6.432  0.00  0.00    +0.075 C 
ATOM      9  C   UNL     1       4.547  -1.111  -6.896  0.00  0.00    +0.008 C 
ATOM     10  C   UNL     1       3.600  -2.314  -6.930  0.00  0.00    +0.005 C 
ATOM     11  C   UNL     1       3.231  -2.709  -5.494  0.00  0.00    +0.039 C 
ATOM     12  C   UNL     1       1.528  -2.312  -2.593  0.00  0.00    +0.047 A 
ATOM     13  C   UNL     1       0.861  -1.853  -1.449  0.00  0.00    +0.130 A 
ENDROOT
BRANCH   1  15
ATOM     14  C   UNL     1      -0.018   1.526   0.011  0.00  0.00    +0.015 C 
ATOM     15  C   UNL     1      -0.001  -0.004   0.000  0.00  0.00    -0.009 C 
ATOM     16  C   UNL     1       0.718  -0.515   1.251  0.00  0.00    +0.015 C 
ATOM     17  C   UNL     1      -1.438  -0.530  -0.013  0.00  0.00    +0.015 C 
ENDBRANCH   1  15
BRANCH  13  18
ATOM     18  O   UNL     1       0.346  -2.740  -0.559  0.00  0.00    -0.506 OA
ATOM     19  H   UNL     1      -0.565  -3.003  -0.748  0.00  0.00    +0.292 HD
ENDBRANCH  13  18
BRANCH  12  20
ATOM     20  C   UNL     1       1.675  -3.751  -2.837  0.00  0.00    +0.142 C 
ATOM     21  N   UNL     1       1.179  -4.610  -1.991  0.00  0.00    -0.187 NA
BRANCH  21  22
ATOM     22  N   UNL     1       1.319  -5.984  -2.225  0.00  0.00    -0.203 N 
ATOM     23  C   UNL     1       0.806  -6.873  -1.351  0.00  0.00    +0.260 C 
ATOM     24  O   UNL     1       0.222  -6.481  -0.358  0.00  0.00    -0.269 OA
ATOM     25  H   UNL     1       1.785  -6.297  -3.017  0.00  0.00    +0.178 HD
BRANCH  23  26
ATOM     26  C   UNL     1       0.954  -8.316  -1.596  0.00  0.00    +0.034 C 
ATOM     27  C   UNL     1       0.547  -9.254  -0.661  0.00  0.00    +0.005 A 
ATOM     28  C   UNL     1      -0.028  -8.848   0.569  0.00  0.00    +0.010 A 
ATOM     29  C   UNL     1      -0.417  -9.788   1.466  0.00  0.00    +0.001 A 
ATOM     30  C   UNL     1      -0.264 -11.154   1.205  0.00  0.00    +0.002 A 
ATOM     31  C   UNL     1       0.279 -11.610   0.047  0.00  0.00    +0.024 A 
ATOM     32  C   UNL     1       0.708 -10.694  -0.937  0.00  0.00    +0.041 A 
ATOM     33  N   UNL     1       1.239 -11.139  -2.070  0.00  0.00    -0.285 N 
ATOM     34  C   UNL     1       1.665 -10.342  -3.039  0.00  0.00    +0.222 C 
ATOM     35  O   UNL     1       2.141 -10.816  -4.053  0.00  0.00    -0.275 OA
ATOM     36  C   UNL     1       1.552  -8.842  -2.887  0.00  0.00    +0.137 C 
ATOM     37  H   UNL     1       1.319 -12.098  -2.195  0.00  0.00    +0.155 HD
ENDBRANCH  23  26
ENDBRANCH  21  22
ENDBRANCH  12  20
TORSDOF 5
