REMARK  Name = ZINC02863579
REMARK  7 active torsions:
REMARK  status: ('A' for Active; 'I' for Inactive)
REMARK    1  A    between atoms: C_1  and  O_2
REMARK    2  A    between atoms: O_2  and  C_3
REMARK    3  A    between atoms: C_3  and  C_5
REMARK    4  A    between atoms: C_9  and  N_10
REMARK    5  A    between atoms: N_10  and  C_12
REMARK    6  A    between atoms: C_12  and  C_23
REMARK    7  A    between atoms: C_16  and  C_17
REMARK                            x       y       z     vdW  Elec       q    Type
REMARK                         _______ _______ _______ _____ _____    ______ ____
ROOT
ATOM      1  C   UNL     1      -3.915  -1.869  -5.155  0.00  0.00    +0.280 C 
ATOM      2  C   UNL     1      -2.437  -2.081  -5.417  0.00  0.00    +0.272 C 
ATOM      3  O   UNL     1      -1.769  -3.051  -5.128  0.00  0.00    -0.271 OA
ATOM      4  N   UNL     1      -2.028  -0.953  -6.040  0.00  0.00    -0.268 N 
ATOM      5  C   UNL     1      -3.077  -0.076  -6.195  0.00  0.00    +0.108 C 
ATOM      6  H   UNL     1      -1.120  -0.785  -6.338  0.00  0.00    +0.156 HD
ATOM      7  N   UNL     1      -4.178  -0.540  -5.711  0.00  0.00    -0.337 N 
ATOM      8  H   UNL     1      -5.086  -0.060  -5.715  0.00  0.00    +0.164 HD
ENDROOT
BRANCH   5   9
ATOM      9  C   UNL     1      -2.949   1.248  -6.844  0.00  0.00    +0.013 A 
ATOM     10  C   UNL     1      -4.064   2.078  -6.968  0.00  0.00    +0.011 A 
ATOM     11  C   UNL     1      -3.938   3.313  -7.569  0.00  0.00    +0.001 A 
ATOM     12  C   UNL     1      -2.711   3.725  -8.059  0.00  0.00    +0.000 A 
ATOM     13  C   UNL     1      -1.603   2.905  -7.944  0.00  0.00    +0.001 A 
ATOM     14  C   UNL     1      -1.715   1.669  -7.340  0.00  0.00    +0.011 A 
ENDBRANCH   5   9
BRANCH   1  15
ATOM     15  C   UNL     1      -4.746  -2.932  -5.878  0.00  0.00    +0.438 C 
ATOM     16  F   UNL     1      -6.105  -2.619  -5.762  0.00  0.00    -0.166 F 
ATOM     17  F   UNL     1      -4.388  -2.964  -7.230  0.00  0.00    -0.166 F 
ATOM     18  F   UNL     1      -4.504  -4.183  -5.301  0.00  0.00    -0.166 F 
ENDBRANCH   1  15
BRANCH   1  19
ATOM     19  N   UNL     1      -4.191  -1.893  -3.717  0.00  0.00    -0.301 N 
ATOM     20  H   UNL     1      -4.896  -2.461  -3.368  0.00  0.00    +0.149 HD
BRANCH  19  25
ATOM     21  C   UNL     1      -3.617  -0.923  -1.492  0.00  0.00    +0.091 A 
ATOM     22  C   UNL     1      -2.685  -0.032  -0.809  0.00  0.00    -0.021 A 
ATOM     23  C   UNL     1      -1.756   0.537  -1.605  0.00  0.00    -0.004 A 
ATOM     24  S   UNL     1      -2.083  -0.105  -3.224  0.00  0.00    -0.078 S 
ATOM     25  C   UNL     1      -3.449  -1.105  -2.858  0.00  0.00    +0.082 A 
ATOM     26  C   UNL     1      -0.682   1.502  -1.210  0.00  0.00    +0.043 C 
ATOM     27  C   UNL     1       0.056   0.964   0.023  0.00  0.00    +0.005 C 
ATOM     28  C   UNL     1      -0.656   1.475   1.272  0.00  0.00    +0.001 C 
ATOM     29  C   UNL     1      -2.157   1.596   1.008  0.00  0.00    +0.005 C 
ATOM     30  C   UNL     1      -2.753   0.229   0.690  0.00  0.00    +0.037 C 
BRANCH  21  31
ATOM     31  C   UNL     1      -4.689  -1.600  -0.764  0.00  0.00    +0.342 C 
ATOM     32  O   UNL     1      -5.777  -1.067  -0.648  0.00  0.00    -0.245 OA
BRANCH  31  34
ATOM     33  C   UNL     1      -5.564  -3.418   0.478  0.00  0.00    +0.280 C 
ATOM     34  O   UNL     1      -4.472  -2.815  -0.220  0.00  0.00    -0.464 OA
ENDBRANCH  31  34
ENDBRANCH  21  31
ENDBRANCH  19  25
ENDBRANCH   1  19
TORSDOF 6
