REMARK  Name = ZINC02082144
REMARK  9 active torsions:
REMARK  status: ('A' for Active; 'I' for Inactive)
REMARK    1  A    between atoms: C_1  and  C_2
REMARK    2  A    between atoms: N_6  and  C_7
REMARK    3  A    between atoms: C_7  and  C_8
REMARK    4  A    between atoms: N_10  and  C_11
REMARK    5  A    between atoms: C_12  and  C_25
REMARK    6  A    between atoms: C_17  and  C_21
REMARK    7  A    between atoms: C_21  and  C_22
REMARK    8  A    between atoms: C_21  and  C_23
REMARK    9  A    between atoms: C_21  and  C_24
REMARK                            x       y       z     vdW  Elec       q    Type
REMARK                         _______ _______ _______ _____ _____    ______ ____
ROOT
ATOM      1  C   UNL     1      -1.137  -2.080   0.002  0.00  0.00    +0.084 A 
ATOM      2  C   UNL     1      -2.212  -2.957   0.007  0.00  0.00    +0.068 A 
ATOM      3  C   UNL     1      -1.919  -4.380  -0.004  0.00  0.00    -0.023 A 
ATOM      4  C   UNL     1      -0.606  -4.696  -0.019  0.00  0.00    -0.004 A 
ATOM      5  S   UNL     1       0.235  -3.138  -0.025  0.00  0.00    -0.077 S 
ATOM      6  C   UNL     1      -0.007  -6.069  -0.034  0.00  0.00    +0.046 C 
ATOM      7  C   UNL     1      -1.108  -7.073  -0.407  0.00  0.00    -0.000 C 
ATOM      8  C   UNL     1      -2.348  -6.784   0.444  0.00  0.00    +0.009 C 
ATOM      9  C   UNL     1      -2.987  -5.466   0.001  0.00  0.00    +0.037 C 
ENDROOT
BRANCH   2  10
ATOM     10  C   UNL     1      -3.594  -2.466   0.024  0.00  0.00    +0.244 C 
ATOM     11  O   UNL     1      -4.178  -2.256  -1.023  0.00  0.00    -0.270 OA
ATOM     12  N   UNL     1      -4.217  -2.247   1.199  0.00  0.00    -0.325 N 
ATOM     13  H   UNL     1      -3.751  -2.414   2.034  0.00  0.00    +0.145 HD
ATOM     14  H   UNL     1      -5.131  -1.922   1.211  0.00  0.00    +0.145 HD
ENDBRANCH   2  10
BRANCH   1  17
ATOM     15  C   UNL     1       0.002  -0.004   0.002  0.00  0.00    +0.239 C 
ATOM     16  O   UNL     1       1.060  -0.596  -0.011  0.00  0.00    -0.273 OA
ATOM     17  N   UNL     1      -1.156  -0.694   0.009  0.00  0.00    -0.278 N 
ATOM     18  H   UNL     1      -2.002  -0.220   0.020  0.00  0.00    +0.155 HD
BRANCH  15  19
ATOM     19  C   UNL     1      -0.018   1.503   0.010  0.00  0.00    +0.239 C 
BRANCH  19  25
ATOM     20  C   UNL     1       1.645   2.138  -2.529  0.00  0.00    +0.067 C 
ATOM     21  C   UNL     1       2.091   2.291  -1.098  0.00  0.00    +0.057 A 
ATOM     22  C   UNL     1       3.300   2.734  -0.682  0.00  0.00    +0.112 A 
ATOM     23  C   UNL     1       3.304   2.724   0.718  0.00  0.00    +0.254 A 
ATOM     24  N   UNL     1       2.138   2.295   1.127  0.00  0.00    -0.144 NA
ATOM     25  N   UNL     1       1.356   2.010  -0.000  0.00  0.00    -0.256 N 
ATOM     26  N   UNL     1       4.432   3.132   1.585  0.00  0.00    +0.078 N 
ATOM     27  O   UNL     1       5.474   3.520   1.088  0.00  0.00    -0.125 OA
ATOM     28  O   UNL     1       4.318   3.080   2.797  0.00  0.00    -0.125 OA
ATOM     29 CL   UNL     1       4.614   3.228  -1.703  0.00  0.00    -0.078 Cl
ENDBRANCH  19  25
ENDBRANCH  15  19
ENDBRANCH   1  17
BRANCH   7  30
ATOM     30  C   UNL     1      -0.619  -8.496  -0.133  0.00  0.00    -0.035 C 
ATOM     31  C   UNL     1      -1.724  -9.493  -0.489  0.00  0.00    +0.011 C 
ATOM     32  C   UNL     1       0.620  -8.782  -0.985  0.00  0.00    +0.011 C 
ATOM     33  C   UNL     1      -0.263  -8.637   1.348  0.00  0.00    +0.011 C 
ENDBRANCH   7  30
TORSDOF 5
