REMARK  Name = ZINC39916349
REMARK  1 active torsions:
REMARK  status: ('A' for Active; 'I' for Inactive)
REMARK    1  A    between atoms: C_4  and  C_7
REMARK                            x       y       z     vdW  Elec       q    Type
REMARK                         _______ _______ _______ _____ _____    ______ ____
ROOT
ATOM      1  C   UNL     1       3.711  -0.707  -0.038  0.00  0.00    +0.156 C 
ATOM      2  C   UNL     1       4.047  -1.186   1.371  0.00  0.00    +0.149 C 
ATOM      3  C   UNL     1       5.256  -2.090   1.242  0.00  0.00    +0.034 C 
ATOM      4  C   UNL     1       6.302  -1.891   2.141  0.00  0.00    +0.014 A 
ATOM      5  C   UNL     1       7.421  -2.745   2.164  0.00  0.00    +0.011 A 
ATOM      6  C   UNL     1       8.401  -2.544   3.089  0.00  0.00    +0.001 A 
ATOM      7  C   UNL     1       8.323  -1.503   4.008  0.00  0.00    +0.002 A 
ATOM      8  C   UNL     1       7.275  -0.632   4.020  0.00  0.00    +0.024 A 
ATOM      9  C   UNL     1       6.233  -0.775   3.090  0.00  0.00    +0.042 A 
ATOM     10  N   UNL     1       5.226   0.110   3.073  0.00  0.00    -0.284 N 
ATOM     11  C   UNL     1       4.147   0.002   2.294  0.00  0.00    +0.228 C 
ATOM     12  O   UNL     1       3.266   0.842   2.312  0.00  0.00    -0.275 OA
ATOM     13  N   UNL     1       5.303  -2.983   0.246  0.00  0.00    -0.289 N 
ATOM     14  C   UNL     1       4.360  -2.917  -0.764  0.00  0.00    +0.186 C 
ATOM     15  N   UNL     1       3.612  -1.869  -0.926  0.00  0.00    -0.246 NA
ATOM     16  N   UNL     1       4.211  -3.988  -1.618  0.00  0.00    -0.266 N 
ATOM     17  C   UNL     1       3.272  -3.939  -2.633  0.00  0.00    +0.165 A 
ATOM     18  N   UNL     1       2.444  -2.968  -2.942  0.00  0.00    -0.225 NA
ATOM     19  C   UNL     1       1.572  -3.057  -3.970  0.00  0.00    +0.080 A 
ATOM     20  C   UNL     1       0.634  -2.093  -4.405  0.00  0.00    +0.029 A 
ATOM     21  C   UNL     1      -0.184  -2.345  -5.476  0.00  0.00    +0.002 A 
ATOM     22  C   UNL     1      -0.122  -3.546  -6.168  0.00  0.00    +0.001 A 
ATOM     23  C   UNL     1       0.784  -4.511  -5.770  0.00  0.00    +0.017 A 
ATOM     24  C   UNL     1       1.607  -4.268  -4.699  0.00  0.00    +0.041 A 
ATOM     25  S   UNL     1       2.884  -5.177  -3.862  0.00  0.00    -0.052 S 
ATOM     26  H   UNL     1       5.991  -3.667   0.232  0.00  0.00    +0.155 HD
ATOM     27  H   UNL     1       4.765  -4.777  -1.508  0.00  0.00    +0.157 HD
ATOM     28  H   UNL     1       5.276   0.872   3.671  0.00  0.00    +0.155 HD
ENDROOT
BRANCH   1  32
ATOM     29  C   UNL     1      -0.017   1.378   0.010  0.00  0.00    +0.000 A 
ATOM     30  C   UNL     1       1.171   2.086   0.002  0.00  0.00    +0.000 A 
ATOM     31  C   UNL     1       2.377   1.411  -0.013  0.00  0.00    +0.006 A 
ATOM     32  C   UNL     1       2.396   0.029  -0.020  0.00  0.00    -0.022 A 
ATOM     33  C   UNL     1       1.208  -0.679  -0.012  0.00  0.00    +0.006 A 
ATOM     34  C   UNL     1       0.002  -0.004   0.002  0.00  0.00    +0.000 A 
ENDBRANCH   1  32
TORSDOF 1
