REMARK  Name = ZINC20553384
REMARK  5 active torsions:
REMARK  status: ('A' for Active; 'I' for Inactive)
REMARK    1  A    between atoms: C_1  and  C_2
REMARK    2  A    between atoms: C_3  and  C_21
REMARK    3  A    between atoms: C_6  and  C_7
REMARK    4  A    between atoms: C_9  and  C_12
REMARK    5  A    between atoms: C_12  and  C_13
REMARK                            x       y       z     vdW  Elec       q    Type
REMARK                         _______ _______ _______ _____ _____    ______ ____
ROOT
ATOM      1  C   UNL     1      -0.934  -0.668  -1.804  0.00  0.00    +0.261 A 
ATOM      2  N   UNL     1      -1.209  -1.648  -2.636  0.00  0.00    -0.191 NA
ATOM      3  C   UNL     1      -0.870  -2.818  -2.090  0.00  0.00    +0.176 A 
ATOM      4  N   UNL     1      -0.374  -2.607  -0.904  0.00  0.00    -0.061 NA
ATOM      5  O   UNL     1      -0.399  -1.204  -0.693  0.00  0.00    -0.333 OA
ENDROOT
BRANCH   1  11
ATOM      6  C   UNL     1      -2.492   0.855   0.028  0.00  0.00    +0.041 C 
ATOM      7  C   UNL     1      -1.887   1.478  -1.204  0.00  0.00    -0.045 C 
ATOM      8  C   UNL     1      -2.076   2.948  -1.519  0.00  0.00    +0.076 C 
ATOM      9  S   UNL     1      -1.138   3.118  -3.092  0.00  0.00    -0.098 S 
ATOM     10  C   UNL     1      -0.594   1.423  -3.250  0.00  0.00    +0.101 C 
ATOM     11  C   UNL     1      -1.167   0.770  -2.049  0.00  0.00    +0.071 C 
ATOM     12  N   UNL     1       0.134   0.891  -4.192  0.00  0.00    -0.292 NA
ATOM     13  C   UNL     1      -3.555   3.278  -1.726  0.00  0.00    +0.024 C 
ATOM     14  H   UNL     1       0.359  -0.051  -4.157  0.00  0.00    +0.187 HD
ENDBRANCH   1  11
BRANCH   3  15
ATOM     15  C   UNL     1      -1.035  -4.167  -2.742  0.00  0.00    +0.114 C 
BRANCH  15  16
ATOM     16  C   UNL     1       0.209  -4.503  -3.523  0.00  0.00    -0.040 A 
ATOM     17  C   UNL     1       0.315  -4.126  -4.849  0.00  0.00    +0.005 A 
ATOM     18  C   UNL     1       1.456  -4.434  -5.566  0.00  0.00    +0.020 A 
ATOM     19  C   UNL     1       2.492  -5.119  -4.957  0.00  0.00    +0.041 A 
ATOM     20  C   UNL     1       2.385  -5.495  -3.630  0.00  0.00    +0.020 A 
ATOM     21  C   UNL     1       1.246  -5.182  -2.912  0.00  0.00    +0.005 A 
ATOM     22 CL   UNL     1       3.925  -5.507  -5.857  0.00  0.00    -0.084 Cl
ENDBRANCH  15  16
ENDBRANCH   3  15
TORSDOF 3
