REMARK  Name = ZINC32123868
REMARK  11 active torsions:
REMARK  status: ('A' for Active; 'I' for Inactive)
REMARK    1  A    between atoms: C_1  and  O_2
REMARK    2  A    between atoms: O_2  and  C_3
REMARK    3  A    between atoms: C_7  and  C_11
REMARK    4  A    between atoms: C_8  and  O_9
REMARK    5  A    between atoms: O_9  and  C_10
REMARK    6  A    between atoms: N_24  and  C_25
REMARK    7  A    between atoms: C_25  and  C_27
REMARK    8  A    between atoms: C_25  and  C_34
REMARK    9  A    between atoms: C_27  and  C_28
REMARK   10  A    between atoms: C_34  and  O_36
REMARK   11  A    between atoms: O_36  and  C_37
REMARK                            x       y       z     vdW  Elec       q    Type
REMARK                         _______ _______ _______ _____ _____    ______ ____
ROOT
ATOM      1  C   UNL     1       1.252  -3.879  -2.442  0.00  0.00    +0.160 C 
ATOM      2  C   UNL     1      -0.059  -4.274  -3.075  0.00  0.00    +0.064 A 
ATOM      3  C   UNL     1      -0.190  -4.686  -4.354  0.00  0.00    +0.066 A 
ATOM      4  N   UNL     1      -1.484  -4.945  -4.569  0.00  0.00    -0.240 NA
ATOM      5  C   UNL     1      -2.157  -4.713  -3.473  0.00  0.00    +0.197 A 
ATOM      6  N   UNL     1      -1.298  -4.293  -2.515  0.00  0.00    -0.346 N 
ATOM      7  H   UNL     1      -1.524  -4.051  -1.603  0.00  0.00    +0.167 HD
ATOM      8  C   UNL     1       0.954  -4.819  -5.327  0.00  0.00    +0.076 C 
ATOM      9  C   UNL     1       2.147  -4.011  -4.803  0.00  0.00    +0.116 C 
ATOM     10  N   UNL     1       2.326  -4.285  -3.368  0.00  0.00    -0.273 N 
ATOM     11  C   UNL     1       3.439  -4.893  -2.911  0.00  0.00    +0.304 C 
ATOM     12  O   UNL     1       3.606  -5.038  -1.716  0.00  0.00    -0.253 OA
ATOM     13  N   UNL     1       4.367  -5.340  -3.780  0.00  0.00    -0.286 N 
ATOM     14  H   UNL     1       4.271  -5.159  -4.729  0.00  0.00    +0.151 HD
ENDROOT
BRANCH   1  19
ATOM     15  C   UNL     1       2.280  -0.452  -1.207  0.00  0.00    +0.162 A 
ATOM     16  C   UNL     1       1.360   0.357  -1.854  0.00  0.00    +0.049 A 
ATOM     17  C   UNL     1       0.411  -0.205  -2.687  0.00  0.00    +0.004 A 
ATOM     18  C   UNL     1       0.377  -1.574  -2.876  0.00  0.00    +0.010 A 
ATOM     19  C   UNL     1       1.292  -2.387  -2.234  0.00  0.00    +0.024 A 
ATOM     20  C   UNL     1       2.250  -1.829  -1.402  0.00  0.00    +0.167 A 
BRANCH  15  22
ATOM     21  C   UNL     1       3.186   1.521  -0.234  0.00  0.00    +0.277 C 
ATOM     22  O   UNL     1       3.215   0.100  -0.387  0.00  0.00    -0.491 OA
ENDBRANCH  15  22
BRANCH  20  23
ATOM     23  O   UNL     1       3.155  -2.626  -0.774  0.00  0.00    -0.491 OA
ATOM     24  C   UNL     1       2.773  -3.170   0.491  0.00  0.00    +0.277 C 
ENDBRANCH  20  23
ENDBRANCH   1  19
BRANCH  13  25
ATOM     25  C   UNL     1       5.522  -6.098  -3.293  0.00  0.00    +0.187 C 
BRANCH  25  26
ATOM     26  C   UNL     1       6.602  -5.142  -2.854  0.00  0.00    +0.328 C 
ATOM     27  O   UNL     1       6.424  -3.950  -2.940  0.00  0.00    -0.249 OA
BRANCH  26  28
ATOM     28  O   UNL     1       7.760  -5.615  -2.368  0.00  0.00    -0.467 OA
ATOM     29  C   UNL     1       8.738  -4.652  -1.971  0.00  0.00    +0.280 C 
ENDBRANCH  26  28
ENDBRANCH  25  26
BRANCH  25  30
ATOM     30  C   UNL     1       6.056  -6.990  -4.415  0.00  0.00    +0.069 C 
BRANCH  30  31
ATOM     31  C   UNL     1       5.021  -8.026  -4.769  0.00  0.00    -0.045 A 
ATOM     32  C   UNL     1       5.007  -9.243  -4.114  0.00  0.00    +0.004 A 
ATOM     33  C   UNL     1       4.057 -10.193  -4.439  0.00  0.00    +0.000 A 
ATOM     34  C   UNL     1       3.120  -9.926  -5.419  0.00  0.00    +0.000 A 
ATOM     35  C   UNL     1       3.132  -8.708  -6.074  0.00  0.00    +0.000 A 
ATOM     36  C   UNL     1       4.080  -7.757  -5.746  0.00  0.00    +0.004 A 
ENDBRANCH  30  31
ENDBRANCH  25  30
ENDBRANCH  13  25
TORSDOF 8
