REMARK  Name = ZINC38664907
REMARK  9 active torsions:
REMARK  status: ('A' for Active; 'I' for Inactive)
REMARK    1  A    between atoms: C_1  and  C_2
REMARK    2  A    between atoms: C_2  and  C_4
REMARK    3  A    between atoms: C_2  and  N_32
REMARK    4  A    between atoms: C_4  and  O_5
REMARK    5  A    between atoms: O_5  and  C_6
REMARK    6  A    between atoms: C_9  and  C_12
REMARK    7  A    between atoms: C_14  and  C_25
REMARK    8  A    between atoms: C_19  and  O_24
REMARK    9  A    between atoms: C_28  and  O_31
REMARK                            x       y       z     vdW  Elec       q    Type
REMARK                         _______ _______ _______ _____ _____    ______ ____
ROOT
ATOM      1  C   UNL     1       5.555  -1.252  -6.088  0.00  0.00    +0.221 C 
ATOM      2  C   UNL     1       6.148  -2.471  -5.360  0.00  0.00    +0.126 C 
ATOM      3  S   UNL     1       6.976  -3.491  -6.620  0.00  0.00    -0.109 S 
ATOM      4  C   UNL     1       7.826  -2.287  -7.593  0.00  0.00    +0.054 A 
ATOM      5  C   UNL     1       8.800  -2.709  -8.489  0.00  0.00    +0.063 A 
ATOM      6  C   UNL     1       9.475  -1.785  -9.270  0.00  0.00    +0.118 A 
ATOM      7  C   UNL     1       9.171  -0.436  -9.154  0.00  0.00    +0.049 A 
ATOM      8  C   UNL     1       8.206  -0.016  -8.262  0.00  0.00    +0.050 A 
ATOM      9  C   UNL     1       7.526  -0.935  -7.467  0.00  0.00    +0.135 A 
ATOM     10  O   UNL     1       6.613  -0.451  -6.591  0.00  0.00    -0.482 OA
ENDROOT
BRANCH   1  14
ATOM     11  C   UNL     1       3.204   1.040  -3.353  0.00  0.00    +0.120 A 
ATOM     12  C   UNL     1       2.598   0.094  -4.168  0.00  0.00    +0.046 A 
ATOM     13  C   UNL     1       3.360  -0.645  -5.051  0.00  0.00    +0.011 A 
ATOM     14  C   UNL     1       4.726  -0.444  -5.124  0.00  0.00    -0.006 A 
ATOM     15  C   UNL     1       5.332   0.498  -4.313  0.00  0.00    +0.011 A 
ATOM     16  C   UNL     1       4.574   1.244  -3.432  0.00  0.00    +0.046 A 
BRANCH  11  17
ATOM     17  O   UNL     1       2.456   1.769  -2.484  0.00  0.00    -0.494 OA
BRANCH  17  18
ATOM     18  C   UNL     1       1.052   1.505  -2.457  0.00  0.00    +0.213 C 
BRANCH  18  20
ATOM     19  C   UNL     1       0.722   3.874  -1.735  0.00  0.00    -0.010 C 
ATOM     20  C   UNL     1       0.382   2.415  -1.425  0.00  0.00    -0.034 C 
BRANCH  20  21
ATOM     21  N   UNL     1       0.867   2.073  -0.082  0.00  0.00    +0.384 N 
ATOM     22  C   UNL     1       0.162   2.888   0.941  0.00  0.00    -0.078 C 
ATOM     23  C   UNL     1       0.338   2.059   2.238  0.00  0.00    -0.020 C 
ATOM     24  C   UNL     1       0.215   0.602   1.736  0.00  0.00    -0.020 C 
ATOM     25  C   UNL     1       0.545   0.665   0.234  0.00  0.00    -0.078 C 
ATOM     26  H   UNL     1       1.863   2.224  -0.022  0.00  0.00    -0.081 HD
ENDBRANCH  20  21
ENDBRANCH  18  20
ENDBRANCH  17  18
ENDBRANCH  11  17
ENDBRANCH   1  14
BRANCH   2  27
ATOM     27  C   UNL     1       7.146  -2.017  -4.326  0.00  0.00    -0.030 A 
ATOM     28  C   UNL     1       6.806  -2.034  -2.986  0.00  0.00    +0.008 A 
ATOM     29  C   UNL     1       7.719  -1.618  -2.036  0.00  0.00    +0.046 A 
ATOM     30  C   UNL     1       8.977  -1.184  -2.427  0.00  0.00    +0.117 A 
ATOM     31  C   UNL     1       9.315  -1.169  -3.773  0.00  0.00    +0.046 A 
ATOM     32  C   UNL     1       8.401  -1.590  -4.718  0.00  0.00    +0.008 A 
BRANCH  30  33
ATOM     33  O   UNL     1       9.877  -0.774  -1.495  0.00  0.00    -0.507 OA
ATOM     34  H   UNL     1      10.443  -1.481  -1.157  0.00  0.00    +0.292 HD
ENDBRANCH  30  33
ENDBRANCH   2  27
BRANCH   6  35
ATOM     35  O   UNL     1      10.430  -2.197 -10.146  0.00  0.00    -0.507 OA
ATOM     36  H   UNL     1      10.092  -2.401 -11.029  0.00  0.00    +0.292 HD
ENDBRANCH   6  35
TORSDOF 8
