REMARK  Name = ZINC08918030
REMARK  9 active torsions:
REMARK  status: ('A' for Active; 'I' for Inactive)
REMARK    1  A    between atoms: C_1  and  C_2
REMARK    2  A    between atoms: C_6  and  C_33
REMARK    3  A    between atoms: C_10  and  C_32
REMARK    4  A    between atoms: C_15  and  C_16
REMARK    5  A    between atoms: C_16  and  C_17
REMARK    6  A    between atoms: C_17  and  C_18
REMARK    7  A    between atoms: C_23  and  O_31
REMARK    8  A    between atoms: C_36  and  O_39
REMARK    9  A    between atoms: O_39  and  C_40
REMARK                            x       y       z     vdW  Elec       q    Type
REMARK                         _______ _______ _______ _____ _____    ______ ____
ROOT
ATOM      1  C   UNL     1      -6.071  -1.158  -3.436  0.00  0.00    +0.045 C 
ATOM      2  C   UNL     1      -7.132  -0.213  -3.938  0.00  0.00    -0.030 A 
ATOM      3  C   UNL     1      -8.553  -0.566  -3.858  0.00  0.00    +0.022 A 
ATOM      4  C   UNL     1      -8.957  -1.786  -3.315  0.00  0.00    +0.024 A 
ATOM      5  C   UNL     1     -10.307  -2.091  -3.259  0.00  0.00    +0.029 A 
ATOM      6  C   UNL     1     -11.077  -3.251  -2.767  0.00  0.00    +0.028 A 
ATOM      7  C   UNL     1     -12.377  -2.953  -2.990  0.00  0.00    +0.204 A 
ATOM      8  O   UNL     1     -12.481  -1.741  -3.562  0.00  0.00    -0.462 OA
ATOM      9  C   UNL     1     -11.267  -1.182  -3.745  0.00  0.00    +0.142 A 
ATOM     10  C   UNL     1     -10.859   0.030  -4.284  0.00  0.00    +0.035 A 
ATOM     11  C   UNL     1      -9.513   0.345  -4.345  0.00  0.00    +0.146 A 
ATOM     12  O   UNL     1      -9.110   1.524  -4.870  0.00  0.00    -0.422 OA
ATOM     13  C   UNL     1      -7.811   1.853  -4.940  0.00  0.00    +0.341 A 
ATOM     14  O   UNL     1      -7.497   2.927  -5.422  0.00  0.00    -0.245 OA
ATOM     15  C   UNL     1      -6.799   0.989  -4.472  0.00  0.00    +0.041 A 
ATOM     16  C   UNL     1     -11.884   1.005  -4.804  0.00  0.00    +0.051 C 
ENDROOT
BRANCH   6  17
ATOM     17  C   UNL     1     -10.536  -4.488  -2.156  0.00  0.00    -0.014 A 
ATOM     18  C   UNL     1      -9.511  -5.190  -2.789  0.00  0.00    +0.012 A 
ATOM     19  C   UNL     1      -9.007  -6.338  -2.215  0.00  0.00    +0.046 A 
ATOM     20  C   UNL     1      -9.525  -6.801  -1.014  0.00  0.00    +0.120 A 
ATOM     21  C   UNL     1     -10.549  -6.108  -0.383  0.00  0.00    +0.046 A 
ATOM     22  C   UNL     1     -11.055  -4.956  -0.949  0.00  0.00    +0.012 A 
BRANCH  20  23
ATOM     23  O   UNL     1      -9.030  -7.936  -0.453  0.00  0.00    -0.495 OA
ATOM     24  C   UNL     1      -7.976  -8.599  -1.155  0.00  0.00    +0.277 C 
ENDBRANCH  20  23
ENDBRANCH   6  17
BRANCH  15  25
ATOM     25  C   UNL     1      -5.351   1.397  -4.570  0.00  0.00    +0.052 C 
BRANCH  25  26
ATOM     26  C   UNL     1      -4.945   2.144  -3.298  0.00  0.00    +0.101 C 
BRANCH  26  27
ATOM     27  C   UNL     1      -3.498   2.553  -3.396  0.00  0.00    +0.216 C 
ATOM     28  O   UNL     1      -2.855   2.273  -4.385  0.00  0.00    -0.276 OA
ATOM     29  N   UNL     1      -2.918   3.228  -2.384  0.00  0.00    -0.301 N 
ATOM     30  C   UNL     1      -3.684   3.574  -1.178  0.00  0.00    +0.110 C 
ATOM     31  C   UNL     1      -2.928   3.058   0.050  0.00  0.00    +0.054 C 
ATOM     32  C   UNL     1      -1.500   3.610   0.036  0.00  0.00    +0.072 C 
ATOM     33  C   UNL     1      -0.754   3.109   1.275  0.00  0.00    +0.035 C 
ATOM     34  C   UNL     1      -0.728   1.579   1.267  0.00  0.00    +0.003 C 
ATOM     35  C   UNL     1      -0.013   1.086   0.008  0.00  0.00    +0.001 C 
ATOM     36  C   UNL     1      -0.752   1.593  -1.232  0.00  0.00    +0.008 C 
ATOM     37  C   UNL     1      -0.775   3.122  -1.221  0.00  0.00    +0.038 C 
ATOM     38  C   UNL     1      -1.508   3.633  -2.464  0.00  0.00    +0.114 C 
BRANCH  32  39
ATOM     39  O   UNL     1      -1.540   5.039   0.040  0.00  0.00    -0.388 OA
ATOM     40  H   UNL     1      -1.987   5.417   0.810  0.00  0.00    +0.210 HD
ENDBRANCH  32  39
ENDBRANCH  26  27
ENDBRANCH  25  26
ENDBRANCH  15  25
TORSDOF 6
