REMARK  Name = ZINC09003555
REMARK  13 active torsions:
REMARK  status: ('A' for Active; 'I' for Inactive)
REMARK    1  A    between atoms: C_1  and  C_2
REMARK    2  A    between atoms: C_2  and  C_3
REMARK    3  A    between atoms: C_2  and  O_4
REMARK    4  A    between atoms: O_4  and  C_5
REMARK    5  A    between atoms: C_5  and  C_7
REMARK    6  A    between atoms: C_10  and  N_13
REMARK    7  A    between atoms: C_14  and  C_16
REMARK    8  A    between atoms: C_16  and  N_17
REMARK    9  A    between atoms: C_21  and  C_33
REMARK   10  A    between atoms: C_23  and  S_24
REMARK   11  A    between atoms: S_24  and  C_25
REMARK   12  A    between atoms: C_25  and  C_26
REMARK   13  A    between atoms: C_26  and  C_27
REMARK                            x       y       z     vdW  Elec       q    Type
REMARK                         _______ _______ _______ _____ _____    ______ ____
ROOT
ATOM      1  N   UNL     1      -0.505   1.873   1.192  0.00  0.00    -0.279 N 
ATOM      2  C   UNL     1      -1.541   1.297   1.835  0.00  0.00    +0.256 A 
ATOM      3  O   UNL     1      -2.010   0.242   1.437  0.00  0.00    -0.268 OA
ATOM      4  C   UNL     1      -2.071   1.930   2.969  0.00  0.00    +0.098 A 
ATOM      5  C   UNL     1      -1.508   3.127   3.387  0.00  0.00    +0.079 A 
ATOM      6  N   UNL     1      -0.480   3.651   2.707  0.00  0.00    -0.223 NA
ATOM      7  C   UNL     1       0.015   3.048   1.647  0.00  0.00    +0.173 A 
ENDROOT
BRANCH   5   8
ATOM      8  C   UNL     1      -2.042   3.824   4.581  0.00  0.00    +0.001 A 
ATOM      9  C   UNL     1      -3.117   3.281   5.285  0.00  0.00    +0.010 A 
ATOM     10  C   UNL     1      -3.607   3.932   6.399  0.00  0.00    +0.001 A 
ATOM     11  C   UNL     1      -3.042   5.125   6.811  0.00  0.00    +0.000 A 
ATOM     12  C   UNL     1      -1.979   5.671   6.113  0.00  0.00    +0.001 A 
ATOM     13  C   UNL     1      -1.477   5.027   5.001  0.00  0.00    +0.010 A 
ENDBRANCH   5   8
BRANCH   1  14
ATOM     14  C   UNL     1       0.067   1.233   0.005  0.00  0.00    +0.223 C 
BRANCH  14  16
ATOM     15  N   UNL     1      -0.288   1.272  -2.443  0.00  0.00    -0.284 N 
ATOM     16  C   UNL     1      -0.647   1.728  -1.227  0.00  0.00    +0.237 C 
ATOM     17  O   UNL     1      -1.545   2.537  -1.123  0.00  0.00    -0.274 OA
ATOM     18  H   UNL     1       0.478   0.685  -2.534  0.00  0.00    +0.155 HD
BRANCH  15  22
ATOM     19  C   UNL     1      -2.471   2.386  -5.812  0.00  0.00    +0.059 A 
ATOM     20  C   UNL     1      -1.091   2.178  -5.907  0.00  0.00    +0.017 A 
ATOM     21  C   UNL     1      -0.373   1.810  -4.792  0.00  0.00    +0.024 A 
ATOM     22  C   UNL     1      -1.019   1.645  -3.571  0.00  0.00    +0.033 A 
ATOM     23  C   UNL     1      -2.392   1.845  -3.473  0.00  0.00    +0.024 A 
ATOM     24  C   UNL     1      -3.116   2.219  -4.583  0.00  0.00    +0.017 A 
BRANCH  19  25
ATOM     25  C   UNL     1      -3.243   2.781  -7.004  0.00  0.00    +0.339 C 
ATOM     26  O   UNL     1      -2.681   2.926  -8.072  0.00  0.00    -0.245 OA
BRANCH  25  27
ATOM     27  O   UNL     1      -4.572   2.980  -6.910  0.00  0.00    -0.458 OA
BRANCH  27  29
ATOM     28  C   UNL     1      -5.744   2.113  -8.861  0.00  0.00    +0.052 C 
ATOM     29  C   UNL     1      -5.269   3.367  -8.124  0.00  0.00    +0.171 C 
ATOM     30  C   UNL     1      -6.476   4.236  -7.765  0.00  0.00    +0.052 C 
ENDBRANCH  27  29
ENDBRANCH  25  27
ENDBRANCH  19  25
ENDBRANCH  15  22
ENDBRANCH  14  16
ENDBRANCH   1  14
BRANCH   7  31
ATOM     31  S   UNL     1       1.373   3.778   0.793  0.00  0.00    -0.087 S 
BRANCH  31  32
ATOM     32  C   UNL     1       1.624   5.255   1.808  0.00  0.00    +0.082 C 
BRANCH  32  33
ATOM     33  C   UNL     1       2.788   6.071   1.243  0.00  0.00    +0.046 C 
BRANCH  33  34
ATOM     34  C   UNL     1       2.997   7.301   2.088  0.00  0.00    -0.047 A 
ATOM     35  C   UNL     1       2.334   8.474   1.777  0.00  0.00    +0.003 A 
ATOM     36  C   UNL     1       2.522   9.601   2.555  0.00  0.00    +0.000 A 
ATOM     37  C   UNL     1       3.381   9.558   3.638  0.00  0.00    +0.000 A 
ATOM     38  C   UNL     1       4.048   8.387   3.945  0.00  0.00    +0.000 A 
ATOM     39  C   UNL     1       3.856   7.258   3.170  0.00  0.00    +0.003 A 
ENDBRANCH  33  34
ENDBRANCH  32  33
ENDBRANCH  31  32
ENDBRANCH   7  31
TORSDOF 11
