REMARK  Name = ZINC40813641
REMARK  8 active torsions:
REMARK  status: ('A' for Active; 'I' for Inactive)
REMARK    1  A    between atoms: C_1  and  C_2
REMARK    2  A    between atoms: C_2  and  C_3
REMARK    3  A    between atoms: C_3  and  O_4
REMARK    4  A    between atoms: O_4  and  C_5
REMARK    5  A    between atoms: C_5  and  C_7
REMARK    6  A    between atoms: C_8  and  C_30
REMARK    7  A    between atoms: N_16  and  N_17
REMARK    8  A    between atoms: C_18  and  C_20
REMARK                            x       y       z     vdW  Elec       q    Type
REMARK                         _______ _______ _______ _____ _____    ______ ____
ROOT
ATOM      1  C   UNL     1       1.369  -3.991  -2.398  0.00  0.00    +0.215 A 
ATOM      2  C   UNL     1       1.957  -4.717  -3.397  0.00  0.00    +0.011 A 
ATOM      3  C   UNL     1       1.765  -6.064  -3.066  0.00  0.00    +0.042 A 
ATOM      4  C   UNL     1       1.067  -6.103  -1.882  0.00  0.00    +0.115 A 
ATOM      5  O   UNL     1       0.845  -4.850  -1.493  0.00  0.00    -0.452 OA
ATOM      6  C   UNL     1       0.667  -7.391  -1.208  0.00  0.00    +0.075 C 
ATOM      7  C   UNL     1       0.678  -8.527  -2.234  0.00  0.00    +0.014 C 
ATOM      8  C   UNL     1       2.023  -8.582  -2.965  0.00  0.00    +0.058 C 
ATOM      9  C   UNL     1       2.183  -7.298  -3.767  0.00  0.00    +0.070 C 
ATOM     10  N   UNL     1       2.651  -7.287  -4.977  0.00  0.00    -0.184 NA
ATOM     11  C   UNL     1       2.668  -4.176  -4.610  0.00  0.00    +0.048 C 
ENDROOT
BRANCH  10  12
ATOM     12  N   UNL     1       3.031  -8.487  -5.592  0.00  0.00    -0.203 N 
ATOM     13  C   UNL     1       3.518  -8.476  -6.849  0.00  0.00    +0.264 C 
ATOM     14  O   UNL     1       3.627  -7.423  -7.450  0.00  0.00    -0.268 OA
ATOM     15  H   UNL     1       2.945  -9.326  -5.114  0.00  0.00    +0.178 HD
BRANCH  13  16
ATOM     16  C   UNL     1       3.918  -9.738  -7.496  0.00  0.00    +0.046 A 
ATOM     17  C   UNL     1       3.913 -10.932  -6.786  0.00  0.00    +0.014 A 
ATOM     18  C   UNL     1       4.291 -12.119  -7.397  0.00  0.00    +0.001 A 
ATOM     19  C   UNL     1       4.677 -12.164  -8.702  0.00  0.00    +0.008 A 
ATOM     20  C   UNL     1       4.706 -10.995  -9.481  0.00  0.00    -0.017 A 
ATOM     21  C   UNL     1       4.322  -9.762  -8.900  0.00  0.00    -0.006 A 
ATOM     22  C   UNL     1       4.344  -8.595  -9.675  0.00  0.00    +0.009 A 
ATOM     23  C   UNL     1       4.728  -8.662 -10.981  0.00  0.00    +0.001 A 
ATOM     24  C   UNL     1       5.099  -9.874 -11.557  0.00  0.00    +0.001 A 
ATOM     25  C   UNL     1       5.103 -11.025 -10.829  0.00  0.00    +0.008 A 
ENDBRANCH  13  16
ENDBRANCH  10  12
BRANCH   1  26
ATOM     26  C   UNL     1       1.319  -2.529  -2.318  0.00  0.00    +0.375 C 
ATOM     27  O   UNL     1       1.826  -1.854  -3.194  0.00  0.00    -0.241 OA
BRANCH  26  28
ATOM     28  O   UNL     1       0.711  -1.930  -1.273  0.00  0.00    -0.459 OA
BRANCH  28  29
ATOM     29  C   UNL     1       0.700  -0.501  -1.260  0.00  0.00    +0.232 C 
BRANCH  29  31
ATOM     30  C   UNL     1      -0.040   1.522   0.006  0.00  0.00    +0.007 C 
ATOM     31  C   UNL     1      -0.028  -0.008  -0.008  0.00  0.00    +0.038 C 
ENDBRANCH  29  31
ENDBRANCH  28  29
ENDBRANCH  26  28
ENDBRANCH   1  26
TORSDOF 6
