REMARK  Name = ZINC63383824
REMARK  7 active torsions:
REMARK  status: ('A' for Active; 'I' for Inactive)
REMARK    1  A    between atoms: C_1  and  C_2
REMARK    2  A    between atoms: C_13  and  C_16
REMARK    3  A    between atoms: C_16  and  C_17
REMARK    4  A    between atoms: N_28  and  C_31
REMARK    5  A    between atoms: C_31  and  C_32
REMARK    6  A    between atoms: C_32  and  O_33
REMARK    7  A    between atoms: O_33  and  C_34
REMARK                            x       y       z     vdW  Elec       q    Type
REMARK                         _______ _______ _______ _____ _____    ______ ____
ROOT
ATOM      1  C   UNL     1      -0.096   1.152  -0.088  0.00  0.00    +0.044 C 
ATOM      2  C   UNL     1      -0.038  -0.350   0.019  0.00  0.00    -0.050 A 
ATOM      3  C   UNL     1      -0.028  -1.126  -1.126  0.00  0.00    +0.005 A 
ATOM      4  C   UNL     1       0.025  -2.501  -1.035  0.00  0.00    +0.024 A 
ATOM      5  C   UNL     1       0.070  -3.120   0.213  0.00  0.00    +0.039 A 
ATOM      6  C   UNL     1       0.060  -2.328   1.357  0.00  0.00    +0.004 A 
ATOM      7  C   UNL     1       0.012  -0.956   1.262  0.00  0.00    +0.011 A 
ATOM      8  C   UNL     1       0.116  -3.283   2.517  0.00  0.00    +0.136 C 
ATOM      9  C   UNL     1      -1.100  -3.121   3.437  0.00  0.00    +0.122 C 
ATOM     10  C   UNL     1      -0.543  -3.364   4.867  0.00  0.00    +0.107 C 
ATOM     11  C   UNL     1       0.953  -3.682   4.662  0.00  0.00    +0.072 C 
ATOM     12  N   UNL     1       1.300  -3.036   3.361  0.00  0.00    -0.295 NA
ATOM     13  C   UNL     1      -0.696  -2.016   5.535  0.00  0.00    +0.227 C 
ATOM     14  O   UNL     1      -0.367  -1.756   6.672  0.00  0.00    -0.275 OA
ATOM     15  N   UNL     1      -1.250  -1.154   4.674  0.00  0.00    -0.239 N 
ATOM     16  C   UNL     1      -1.532  -1.672   3.456  0.00  0.00    +0.228 C 
ATOM     17  O   UNL     1      -2.042  -1.081   2.529  0.00  0.00    -0.275 OA
ATOM     18  C   UNL     1       0.158  -4.651   1.895  0.00  0.00    +0.243 C 
ATOM     19  O   UNL     1       0.210  -5.712   2.481  0.00  0.00    -0.273 OA
ATOM     20  N   UNL     1       0.127  -4.471   0.560  0.00  0.00    -0.283 N 
ATOM     21  H   UNL     1       2.124  -3.459   2.961  0.00  0.00    +0.124 HD
ATOM     22  H   UNL     1       0.142  -5.196  -0.084  0.00  0.00    +0.155 HD
ENDROOT
BRANCH  11  23
ATOM     23  C   UNL     1       1.787  -3.066   5.787  0.00  0.00    +0.052 C 
BRANCH  23  24
ATOM     24  C   UNL     1       3.225  -3.490   5.636  0.00  0.00    -0.040 C 
ATOM     25  C   UNL     1       4.216  -2.804   5.021  0.00  0.00    -0.001 A 
ATOM     26  C   UNL     1       4.249  -1.507   4.335  0.00  0.00    +0.010 A 
ATOM     27  C   UNL     1       5.416  -1.074   3.806  0.00  0.00    +0.001 A 
ATOM     28  C   UNL     1       6.592  -1.832   3.897  0.00  0.00    +0.002 A 
ATOM     29  C   UNL     1       6.640  -3.033   4.512  0.00  0.00    +0.026 A 
ATOM     30  C   UNL     1       5.471  -3.584   5.104  0.00  0.00    +0.043 A 
ATOM     31  N   UNL     1       5.264  -4.710   5.744  0.00  0.00    -0.380 N 
ATOM     32  C   UNL     1       3.855  -4.767   6.146  0.00  0.00    +0.144 C 
ATOM     33  H   UNL     1       5.933  -5.388   5.926  0.00  0.00    +0.160 HD
ENDBRANCH  23  24
ENDBRANCH  11  23
BRANCH  15  34
ATOM     34  C   UNL     1      -1.536   0.240   5.023  0.00  0.00    +0.144 C 
BRANCH  34  35
ATOM     35  C   UNL     1      -2.991   0.362   5.482  0.00  0.00    +0.179 C 
BRANCH  35  36
ATOM     36  O   UNL     1      -3.170  -0.367   6.698  0.00  0.00    -0.381 OA
ATOM     37  C   UNL     1      -4.501  -0.317   7.215  0.00  0.00    +0.194 C 
ENDBRANCH  35  36
ENDBRANCH  34  35
ENDBRANCH  15  34
TORSDOF 5
