REMARK  Name = ZINC23223784
REMARK  10 active torsions:
REMARK  status: ('A' for Active; 'I' for Inactive)
REMARK    1  A    between atoms: C_1  and  C_2
REMARK    2  A    between atoms: C_2  and  C_3
REMARK    3  A    between atoms: C_3  and  N_4
REMARK    4  A    between atoms: C_8  and  S_30
REMARK    5  A    between atoms: C_12  and  S_13
REMARK    6  A    between atoms: S_13  and  C_14
REMARK    7  A    between atoms: C_14  and  C_16
REMARK    8  A    between atoms: C_14  and  C_17
REMARK    9  A    between atoms: N_19  and  C_20
REMARK   10  A    between atoms: S_30  and  N_33
REMARK                            x       y       z     vdW  Elec       q    Type
REMARK                         _______ _______ _______ _____ _____    ______ ____
ROOT
ATOM      1  N   UNL     1      -2.411  10.560  -3.322  0.00  0.00    -0.319 N 
ATOM      2  C   UNL     1      -2.200  11.786  -2.713  0.00  0.00    +0.070 A 
ATOM      3  C   UNL     1      -2.207  13.097  -3.164  0.00  0.00    +0.030 A 
ATOM      4  C   UNL     1      -1.944  14.127  -2.284  0.00  0.00    +0.030 A 
ATOM      5  C   UNL     1      -1.673  13.860  -0.950  0.00  0.00    +0.107 A 
ATOM      6  C   UNL     1      -1.662  12.564  -0.485  0.00  0.00    +0.058 A 
ATOM      7  C   UNL     1      -1.926  11.509  -1.363  0.00  0.00    +0.092 A 
ATOM      8  N   UNL     1      -1.986  10.161  -1.210  0.00  0.00    -0.222 NA
ATOM      9  C   UNL     1      -2.275   9.600  -2.359  0.00  0.00    +0.171 A 
ENDROOT
BRANCH   5  10
ATOM     10  S   UNL     1      -1.340  15.189   0.158  0.00  0.00    +0.056 S 
ATOM     11  O   UNL     1      -1.946  16.346  -0.402  0.00  0.00    -0.153 OA
ATOM     12  O   UNL     1      -1.655  14.720   1.461  0.00  0.00    -0.153 OA
BRANCH  10  13
ATOM     13  N   UNL     1       0.295  15.451   0.131  0.00  0.00    -0.204 NA
ATOM     14  H   UNL     1       0.545  16.278   0.812  0.00  0.00    +0.144 HD
ATOM     15  H   UNL     1       0.607  15.712  -0.891  0.00  0.00    +0.144 HD
ENDBRANCH  10  13
ENDBRANCH   5  10
BRANCH   1  16
ATOM     16  C   UNL     1      -2.726  10.334  -4.735  0.00  0.00    +0.124 C 
BRANCH  16  18
ATOM     17  C   UNL     1      -4.572  10.119  -6.405  0.00  0.00    +0.005 C 
ATOM     18  C   UNL     1      -4.243  10.355  -4.930  0.00  0.00    +0.018 C 
ENDBRANCH  16  18
ENDBRANCH   1  16
BRANCH   9  19
ATOM     19  S   UNL     1      -2.453   7.867  -2.624  0.00  0.00    -0.075 S 
BRANCH  19  20
ATOM     20  C   UNL     1      -2.132   7.259  -0.950  0.00  0.00    +0.137 C 
ATOM     21  C   UNL     1      -3.235   7.749  -0.009  0.00  0.00    +0.029 C 
BRANCH  20  22
ATOM     22  C   UNL     1      -2.112   5.752  -0.958  0.00  0.00    +0.227 C 
ATOM     23  O   UNL     1      -2.637   5.143  -1.866  0.00  0.00    -0.275 OA
ATOM     24  N   UNL     1      -1.510   5.081   0.044  0.00  0.00    -0.309 N 
ATOM     25  H   UNL     1      -1.033   5.633   0.867  0.00  0.00    +0.149 HD
BRANCH  24  26
ATOM     26  C   UNL     1      -1.490   3.616   0.036  0.00  0.00    +0.035 C 
ATOM     27  C   UNL     1      -0.773   3.123  -1.223  0.00  0.00    +0.029 C 
ATOM     28  C   UNL     1      -0.753   1.593  -1.232  0.00  0.00    -0.008 C 
ATOM     29  C   UNL     1      -0.013   1.086   0.008  0.00  0.00    +0.007 C 
ATOM     30  C   UNL     1      -0.729   1.579   1.267  0.00  0.00    -0.008 C 
ATOM     31  C   UNL     1      -0.750   3.109   1.275  0.00  0.00    +0.029 C 
ATOM     32  C   UNL     1      -2.164   1.050   1.278  0.00  0.00    +0.007 C 
ATOM     33  C   UNL     1      -2.904   1.556   0.038  0.00  0.00    -0.008 C 
ATOM     34  C   UNL     1      -2.188   1.063  -1.221  0.00  0.00    +0.007 C 
ATOM     35  C   UNL     1      -2.925   3.086   0.047  0.00  0.00    +0.029 C 
ENDBRANCH  24  26
ENDBRANCH  20  22
ENDBRANCH  19  20
ENDBRANCH   9  19
TORSDOF 8
