REMARK  Name = ZINC39485736
REMARK  6 active torsions:
REMARK  status: ('A' for Active; 'I' for Inactive)
REMARK    1  A    between atoms: C_5  and  C_7
REMARK    2  A    between atoms: N_9  and  C_10
REMARK    3  A    between atoms: C_13  and  N_16
REMARK    4  A    between atoms: C_19  and  N_22
REMARK    5  A    between atoms: N_22  and  C_23
REMARK    6  A    between atoms: C_23  and  C_24
REMARK                            x       y       z     vdW  Elec       q    Type
REMARK                         _______ _______ _______ _____ _____    ______ ____
ROOT
ATOM      1  N   UNL     1      -0.023  -8.409  -0.406  0.00  0.00    -0.330 N 
ATOM      2  C   UNL     1       1.215  -9.194  -0.297  0.00  0.00    +0.103 C 
ATOM      3  C   UNL     1       1.028 -10.261   0.787  0.00  0.00    +0.003 C 
ATOM      4  C   UNL     1      -0.217 -11.092   0.470  0.00  0.00    -0.069 C 
ATOM      5  C   UNL     1      -1.450 -10.185   0.467  0.00  0.00    +0.003 C 
ATOM      6  C   UNL     1      -1.293  -9.118  -0.614  0.00  0.00    +0.103 C 
ENDROOT
BRANCH   1  10
ATOM      7  C   UNL     1       0.066  -4.252  -0.112  0.00  0.00    +0.034 A 
ATOM      8  C   UNL     1      -1.151  -4.917  -0.192  0.00  0.00    +0.025 A 
ATOM      9  C   UNL     1      -1.180  -6.294  -0.289  0.00  0.00    +0.025 A 
ATOM     10  C   UNL     1       0.007  -7.014  -0.307  0.00  0.00    +0.030 A 
ATOM     11  C   UNL     1       1.224  -6.349  -0.227  0.00  0.00    +0.025 A 
ATOM     12  C   UNL     1       1.253  -4.972  -0.135  0.00  0.00    +0.025 A 
BRANCH   7  15
ATOM     13  C   UNL     1       1.079  -2.158  -0.616  0.00  0.00    +0.251 C 
ATOM     14  O   UNL     1       1.985  -2.745  -1.176  0.00  0.00    -0.270 OA
ATOM     15  N   UNL     1       0.096  -2.855  -0.013  0.00  0.00    -0.281 N 
ATOM     16  H   UNL     1      -0.592  -2.390   0.489  0.00  0.00    +0.155 HD
BRANCH  13  21
ATOM     17  C   UNL     1       0.002   1.374   0.061  0.00  0.00    +0.001 A 
ATOM     18  C   UNL     1       1.014   2.089  -0.558  0.00  0.00    +0.003 A 
ATOM     19  C   UNL     1       2.046   1.428  -1.196  0.00  0.00    +0.039 A 
ATOM     20  C   UNL     1       2.075   0.045  -1.219  0.00  0.00    +0.135 A 
ATOM     21  C   UNL     1       1.057  -0.682  -0.595  0.00  0.00    +0.072 A 
ATOM     22  C   UNL     1       0.018  -0.004   0.046  0.00  0.00    +0.016 A 
ATOM     23  F   UNL     1       3.085  -0.601  -1.843  0.00  0.00    -0.205 F 
ENDBRANCH  13  21
ENDBRANCH   7  15
ENDBRANCH   1  10
BRANCH   4  24
ATOM     24  N   UNL     1      -0.380 -12.137   1.489  0.00  0.00    +0.383 N 
ATOM     25  H   UNL     1       0.465 -12.685   1.547  0.00  0.00    -0.085 HD
ATOM     26  H   UNL     1      -0.566 -11.709   2.384  0.00  0.00    -0.085 HD
BRANCH  24  27
ATOM     27  C   UNL     1      -1.504 -13.008   1.121  0.00  0.00    -0.049 C 
BRANCH  27  28
ATOM     28  C   UNL     1      -1.674 -14.097   2.183  0.00  0.00    +0.139 C 
ATOM     29  C   UNL     1      -2.702 -15.119   1.743  0.00  0.00    -0.023 C 
ATOM     30  C   UNL     1      -2.030 -16.267   1.670  0.00  0.00    +0.064 C 
ATOM     31  C   UNL     1      -2.963 -17.382   1.233  0.00  0.00    +0.057 C 
ATOM     32  C   UNL     1      -4.387 -16.831   1.467  0.00  0.00    +0.011 C 
ATOM     33  C   UNL     1      -4.151 -15.307   1.375  0.00  0.00    +0.035 C 
ATOM     34  N   UNL     1      -0.729 -16.064   2.010  0.00  0.00    -0.159 NA
ATOM     35  N   UNL     1      -0.445 -14.899   2.309  0.00  0.00    -0.181 NA
ENDBRANCH  27  28
ENDBRANCH  24  27
ENDBRANCH   4  24
TORSDOF 6
