REMARK  Name = ZINC09277066
REMARK  8 active torsions:
REMARK  status: ('A' for Active; 'I' for Inactive)
REMARK    1  A    between atoms: C_1  and  C_2
REMARK    2  A    between atoms: C_4  and  C_32
REMARK    3  A    between atoms: C_6  and  N_8
REMARK    4  A    between atoms: C_9  and  C_11
REMARK    5  A    between atoms: C_11  and  S_12
REMARK    6  A    between atoms: S_12  and  C_13
REMARK    7  A    between atoms: N_19  and  C_20
REMARK    8  A    between atoms: C_28  and  C_31
REMARK                            x       y       z     vdW  Elec       q    Type
REMARK                         _______ _______ _______ _____ _____    ______ ____
ROOT
ATOM      1  C   UNL     1       3.688   1.774   0.294  0.00  0.00    +0.177 A 
ATOM      2  N   UNL     1       4.828   1.169   0.065  0.00  0.00    -0.227 NA
ATOM      3  C   UNL     1       4.955  -0.175   0.101  0.00  0.00    +0.064 A 
ATOM      4  C   UNL     1       3.815  -0.901   0.378  0.00  0.00    +0.094 A 
ATOM      5  C   UNL     1       2.593  -0.264   0.635  0.00  0.00    +0.273 A 
ATOM      6  O   UNL     1       1.593  -0.913   0.895  0.00  0.00    -0.266 OA
ATOM      7  N   UNL     1       2.546   1.087   0.584  0.00  0.00    -0.255 N 
ATOM      8  S   UNL     1       4.275  -2.618   0.326  0.00  0.00    -0.115 S 
ATOM      9  C   UNL     1       5.924  -2.438  -0.473  0.00  0.00    +0.054 C 
ATOM     10  C   UNL     1       6.223  -0.965  -0.110  0.00  0.00    +0.071 C 
ATOM     11  C   UNL     1       6.952  -3.387   0.148  0.00  0.00    +0.020 C 
ENDROOT
BRANCH   7  12
ATOM     12  C   UNL     1       1.347   1.769   0.832  0.00  0.00    +0.052 A 
ATOM     13  C   UNL     1       0.498   2.086  -0.220  0.00  0.00    +0.029 A 
ATOM     14  C   UNL     1      -0.681   2.763   0.025  0.00  0.00    +0.040 A 
ATOM     15  C   UNL     1      -1.022   3.114   1.320  0.00  0.00    +0.124 A 
ATOM     16  C   UNL     1      -0.177   2.798   2.371  0.00  0.00    +0.040 A 
ATOM     17  C   UNL     1       1.005   2.127   2.129  0.00  0.00    +0.029 A 
ATOM     18  F   UNL     1      -2.178   3.772   1.558  0.00  0.00    -0.205 F 
ENDBRANCH   7  12
BRANCH   1  19
ATOM     19  S   UNL     1       3.629   3.534   0.223  0.00  0.00    -0.078 S 
BRANCH  19  20
ATOM     20  C   UNL     1       5.356   3.890  -0.184  0.00  0.00    +0.173 C 
BRANCH  20  22
ATOM     21  N   UNL     1       6.763   5.883  -0.597  0.00  0.00    -0.285 N 
ATOM     22  C   UNL     1       5.548   5.381  -0.299  0.00  0.00    +0.227 C 
ATOM     23  O   UNL     1       4.610   6.128  -0.123  0.00  0.00    -0.275 OA
ATOM     24  H   UNL     1       7.498   5.284  -0.803  0.00  0.00    +0.155 HD
BRANCH  21  30
ATOM     25  C   UNL     1       9.693   9.741   0.240  0.00  0.00    +0.044 C 
ATOM     26  C   UNL     1       8.374   9.165  -0.208  0.00  0.00    -0.048 A 
ATOM     27  C   UNL     1       7.362  10.005  -0.631  0.00  0.00    +0.006 A 
ATOM     28  C   UNL     1       6.150   9.481  -1.043  0.00  0.00    -0.048 A 
ATOM     29  C   UNL     1       5.949   8.114  -1.033  0.00  0.00    +0.026 A 
ATOM     30  C   UNL     1       6.964   7.267  -0.608  0.00  0.00    +0.034 A 
ATOM     31  C   UNL     1       8.177   7.798  -0.190  0.00  0.00    +0.026 A 
ATOM     32  C   UNL     1       5.049  10.401  -1.504  0.00  0.00    +0.044 C 
ENDBRANCH  21  30
ENDBRANCH  20  22
ENDBRANCH  19  20
ENDBRANCH   1  19
TORSDOF 5
