REMARK  Name = ZINC39974294
REMARK  14 active torsions:
REMARK  status: ('A' for Active; 'I' for Inactive)
REMARK    1  A    between atoms: C_1  and  C_2
REMARK    2  A    between atoms: C_2  and  C_3
REMARK    3  A    between atoms: C_3  and  C_4
REMARK    4  A    between atoms: C_3  and  C_5
REMARK    5  A    between atoms: C_3  and  N_6
REMARK    6  A    between atoms: N_6  and  C_7
REMARK    7  A    between atoms: C_7  and  N_9
REMARK    8  A    between atoms: N_9  and  C_10
REMARK    9  A    between atoms: C_13  and  S_16
REMARK   10  A    between atoms: S_16  and  N_19
REMARK   11  A    between atoms: N_19  and  C_20
REMARK   12  A    between atoms: C_21  and  C_28
REMARK   13  A    between atoms: C_23  and  C_27
REMARK   14  A    between atoms: C_25  and  C_26
REMARK                            x       y       z     vdW  Elec       q    Type
REMARK                         _______ _______ _______ _____ _____    ______ ____
ROOT
ATOM      1  C   UNL     1       2.664  -4.300  -2.176  0.00  0.00    +0.033 A 
ATOM      2  C   UNL     1       3.418  -3.612  -3.118  0.00  0.00    +0.025 A 
ATOM      3  C   UNL     1       3.998  -4.296  -4.169  0.00  0.00    +0.030 A 
ATOM      4  C   UNL     1       3.827  -5.663  -4.284  0.00  0.00    +0.109 A 
ATOM      5  C   UNL     1       3.076  -6.351  -3.348  0.00  0.00    +0.030 A 
ATOM      6  C   UNL     1       2.499  -5.674  -2.292  0.00  0.00    +0.025 A 
ENDROOT
BRANCH   4   7
ATOM      7  S   UNL     1       4.567  -6.532  -5.627  0.00  0.00    +0.072 S 
ATOM      8  O   UNL     1       3.746  -7.664  -5.880  0.00  0.00    -0.150 OA
ATOM      9  O   UNL     1       4.858  -5.564  -6.625  0.00  0.00    -0.150 OA
BRANCH   7  10
ATOM     10  N   UNL     1       6.022  -7.113  -5.092  0.00  0.00    -0.216 N 
ATOM     11  H   UNL     1       6.848  -6.774  -5.470  0.00  0.00    +0.174 HD
BRANCH  10  12
ATOM     12  C   UNL     1       6.060  -8.092  -4.096  0.00  0.00    +0.054 A 
ATOM     13  C   UNL     1       5.759  -9.412  -4.406  0.00  0.00    -0.028 A 
ATOM     14  C   UNL     1       5.797 -10.378  -3.420  0.00  0.00    +0.008 A 
ATOM     15  C   UNL     1       6.135 -10.031  -2.124  0.00  0.00    -0.050 A 
ATOM     16  C   UNL     1       6.435  -8.718  -1.812  0.00  0.00    +0.008 A 
ATOM     17  C   UNL     1       6.404  -7.748  -2.795  0.00  0.00    -0.028 A 
ATOM     18  C   UNL     1       6.737  -6.319  -2.455  0.00  0.00    +0.046 C 
ATOM     19  C   UNL     1       6.175 -11.088  -1.050  0.00  0.00    +0.044 C 
ATOM     20  C   UNL     1       5.390  -9.790  -5.818  0.00  0.00    +0.046 C 
ENDBRANCH  10  12
ENDBRANCH   7  10
ENDBRANCH   4   7
BRANCH   1  21
ATOM     21  N   UNL     1       2.076  -3.610  -1.110  0.00  0.00    -0.297 N 
ATOM     22  H   UNL     1       2.099  -3.987  -0.217  0.00  0.00    +0.154 HD
BRANCH  21  23
ATOM     23  C   UNL     1       1.478  -2.421  -1.325  0.00  0.00    +0.135 C 
ATOM     24  S   UNL     1       1.301  -1.827  -2.921  0.00  0.00    -0.019 S 
BRANCH  23  25
ATOM     25  N   UNL     1       1.019  -1.700  -0.283  0.00  0.00    -0.321 N 
ATOM     26  H   UNL     1       1.197  -1.992   0.625  0.00  0.00    +0.148 HD
BRANCH  25  27
ATOM     27  C   UNL     1       0.252  -0.475  -0.521  0.00  0.00    +0.028 C 
ATOM     28  C   UNL     1       1.099   0.508  -1.331  0.00  0.00    +0.031 C 
ATOM     29  C   UNL     1      -0.125   0.159   0.820  0.00  0.00    +0.031 C 
BRANCH  27  31
ATOM     30  C   UNL     1      -1.879   0.444  -1.447  0.00  0.00    +0.006 C 
ATOM     31  C   UNL     1      -1.020  -0.814  -1.300  0.00  0.00    +0.022 C 
ENDBRANCH  27  31
ENDBRANCH  25  27
ENDBRANCH  23  25
ENDBRANCH  21  23
ENDBRANCH   1  21
TORSDOF 8
