REMARK  Name = ZINC14162046
REMARK  14 active torsions:
REMARK  status: ('A' for Active; 'I' for Inactive)
REMARK    1  A    between atoms: C_1  and  C_2
REMARK    2  A    between atoms: C_2  and  O_3
REMARK    3  A    between atoms: O_3  and  C_4
REMARK    4  A    between atoms: C_9  and  C_10
REMARK    5  A    between atoms: C_13  and  S_16
REMARK    6  A    between atoms: S_16  and  C_17
REMARK    7  A    between atoms: C_17  and  C_18
REMARK    8  A    between atoms: N_20  and  C_21
REMARK    9  A    between atoms: C_22  and  C_32
REMARK   10  A    between atoms: C_23  and  C_31
REMARK   11  A    between atoms: C_24  and  C_26
REMARK   12  A    between atoms: C_26  and  O_28
REMARK   13  A    between atoms: O_28  and  C_29
REMARK   14  A    between atoms: C_29  and  C_30
REMARK                            x       y       z     vdW  Elec       q    Type
REMARK                         _______ _______ _______ _____ _____    ______ ____
ROOT
ATOM      1  C   UNL     1      -4.968   1.927   0.036  0.00  0.00    +0.173 C 
ENDROOT
BRANCH   1   2
ATOM      2  C   UNL     1      -3.564   2.474   0.032  0.00  0.00    +0.228 C 
ATOM      3  O   UNL     1      -3.380   3.672   0.038  0.00  0.00    -0.275 OA
ATOM      4  N   UNL     1      -2.512   1.631   0.023  0.00  0.00    -0.278 N 
ATOM      5  H   UNL     1      -2.660   0.672   0.018  0.00  0.00    +0.155 HD
BRANCH   4   6
ATOM      6  C   UNL     1      -1.224   2.132   0.019  0.00  0.00    +0.090 A 
ATOM      7  C   UNL     1      -0.017   1.428   0.010  0.00  0.00    +0.084 A 
ATOM      8  C   UNL     1       1.159   2.158   0.003  0.00  0.00    -0.010 A 
ATOM      9  C   UNL     1       1.052   3.534   0.011  0.00  0.00    +0.102 A 
ATOM     10  S   UNL     1      -0.712   3.788   0.029  0.00  0.00    -0.065 S 
ATOM     11  C   UNL     1       2.504   1.477  -0.013  0.00  0.00    +0.046 C 
BRANCH   9  12
ATOM     12  C   UNL     1       2.119   4.534   0.006  0.00  0.00    +0.346 C 
ATOM     13  O   UNL     1       3.283   4.181  -0.008  0.00  0.00    -0.244 OA
BRANCH  12  14
ATOM     14  O   UNL     1       1.812   5.848   0.016  0.00  0.00    -0.461 OA
BRANCH  14  15
ATOM     15  C   UNL     1       2.905   6.769   0.010  0.00  0.00    +0.229 C 
ATOM     16  C   UNL     1       2.365   8.201   0.023  0.00  0.00    +0.048 C 
ENDBRANCH  14  15
ENDBRANCH  12  14
ENDBRANCH   9  12
BRANCH   7  17
ATOM     17  C   UNL     1       0.002  -0.004   0.002  0.00  0.00    +0.102 C 
ATOM     18  N   UNL     1       0.018  -1.140  -0.004  0.00  0.00    -0.191 NA
ENDBRANCH   7  17
ENDBRANCH   4   6
ENDBRANCH   1   2
BRANCH   1  19
ATOM     19  S   UNL     1      -6.149   3.298   0.049  0.00  0.00    -0.077 S 
BRANCH  19  23
ATOM     20  C   UNL     1      -9.780   1.852   0.057  0.00  0.00    +0.166 A 
ATOM     21  N   UNL     1      -8.923   2.929   0.059  0.00  0.00    -0.316 N 
ATOM     22  H   UNL     1      -9.162   3.868   0.066  0.00  0.00    +0.169 HD
ATOM     23  C   UNL     1      -7.664   2.397   0.051  0.00  0.00    +0.190 A 
ATOM     24  N   UNL     1      -7.793   1.090   0.038  0.00  0.00    -0.122 NA
ATOM     25  N   UNL     1      -9.037   0.769   0.047  0.00  0.00    -0.128 NA
BRANCH  20  31
ATOM     26  C   UNL     1     -12.003   0.720   0.054  0.00  0.00    +0.131 A 
ATOM     27  C   UNL     1     -13.387   0.780   0.067  0.00  0.00    +0.046 A 
ATOM     28  C   UNL     1     -14.027   2.005   0.076  0.00  0.00    +0.004 A 
ATOM     29  C   UNL     1     -13.293   3.178   0.080  0.00  0.00    +0.001 A 
ATOM     30  C   UNL     1     -11.914   3.135   0.074  0.00  0.00    +0.015 A 
ATOM     31  C   UNL     1     -11.256   1.905   0.063  0.00  0.00    +0.061 A 
BRANCH  26  32
ATOM     32  O   UNL     1     -11.372  -0.483   0.038  0.00  0.00    -0.492 OA
BRANCH  32  34
ATOM     33  C   UNL     1     -11.318  -2.899   0.011  0.00  0.00    +0.048 C 
ATOM     34  C   UNL     1     -12.199  -1.649   0.029  0.00  0.00    +0.226 C 
ENDBRANCH  32  34
ENDBRANCH  26  32
ENDBRANCH  20  31
ENDBRANCH  19  23
ENDBRANCH   1  19
TORSDOF 11
