REMARK  Name = ZINC39737127
REMARK  6 active torsions:
REMARK  status: ('A' for Active; 'I' for Inactive)
REMARK    1  A    between atoms: C_1  and  C_2
REMARK    2  A    between atoms: C_2  and  C_4
REMARK    3  A    between atoms: C_2  and  S_15
REMARK    4  A    between atoms: N_6  and  C_7
REMARK    5  A    between atoms: S_15  and  C_16
REMARK    6  A    between atoms: C_20  and  C_22
REMARK                            x       y       z     vdW  Elec       q    Type
REMARK                         _______ _______ _______ _____ _____    ______ ____
ROOT
ATOM      1  C   UNL     1       2.574   0.012   1.240  0.00  0.00    +0.340 C 
ATOM      2  N   UNL     1       2.592   1.478   1.106  0.00  0.00    -0.219 N 
ATOM      3  N   UNL     1       3.117   1.733  -0.169  0.00  0.00    -0.145 NA
ATOM      4  C   UNL     1       3.397   0.608  -0.773  0.00  0.00    +0.238 C 
ATOM      5  O   UNL     1       3.105  -0.471  -0.002  0.00  0.00    -0.443 OA
ATOM      6  H   UNL     1       2.302   2.131   1.762  0.00  0.00    +0.173 HD
ENDROOT
BRANCH   4   7
ATOM      7  C   UNL     1       3.937   0.524  -2.063  0.00  0.00    +0.043 C 
ATOM      8  C   UNL     1       4.270   1.584  -2.909  0.00  0.00    +0.008 A 
ATOM      9  C   UNL     1       4.181   2.984  -2.763  0.00  0.00    +0.010 A 
ATOM     10  C   UNL     1       4.587   3.794  -3.774  0.00  0.00    +0.001 A 
ATOM     11  C   UNL     1       5.096   3.276  -4.967  0.00  0.00    +0.002 A 
ATOM     12  C   UNL     1       5.209   1.941  -5.176  0.00  0.00    +0.026 A 
ATOM     13  C   UNL     1       4.805   1.032  -4.165  0.00  0.00    +0.043 A 
ATOM     14  N   UNL     1       4.813  -0.286  -4.122  0.00  0.00    -0.380 N 
ATOM     15  C   UNL     1       4.288  -0.733  -2.829  0.00  0.00    +0.154 C 
ATOM     16  H   UNL     1       5.122  -0.868  -4.834  0.00  0.00    +0.160 HD
ENDBRANCH   4   7
BRANCH   1  17
ATOM     17  S   UNL     1       0.875  -0.581   1.476  0.00  0.00    -0.084 S 
BRANCH  17  19
ATOM     18  C   UNL     1      -0.037   1.542   0.012  0.00  0.00    +0.029 C 
ATOM     19  C   UNL     1      -0.005   0.013   0.005  0.00  0.00    +0.134 C 
BRANCH  19  20
ATOM     20  C   UNL     1      -1.414  -0.520   0.014  0.00  0.00    +0.230 C 
ATOM     21  O   UNL     1      -1.941  -0.825   1.063  0.00  0.00    -0.274 OA
ATOM     22  N   UNL     1      -2.090  -0.657  -1.144  0.00  0.00    -0.283 N 
ATOM     23  H   UNL     1      -1.694  -0.353  -1.976  0.00  0.00    +0.155 HD
BRANCH  22  24
ATOM     24  C   UNL     1      -3.364  -1.239  -1.147  0.00  0.00    +0.052 A 
ATOM     25  C   UNL     1      -4.225  -1.033  -0.077  0.00  0.00    +0.027 A 
ATOM     26  C   UNL     1      -5.481  -1.607  -0.082  0.00  0.00    +0.040 A 
ATOM     27  C   UNL     1      -5.883  -2.390  -1.151  0.00  0.00    +0.125 A 
ATOM     28  C   UNL     1      -5.026  -2.598  -2.219  0.00  0.00    +0.060 A 
ATOM     29  C   UNL     1      -3.771  -2.020  -2.222  0.00  0.00    +0.065 A 
ATOM     30 CL   UNL     1      -2.700  -2.275  -3.564  0.00  0.00    -0.082 Cl
ATOM     31  F   UNL     1      -7.112  -2.951  -1.153  0.00  0.00    -0.205 F 
ENDBRANCH  22  24
ENDBRANCH  19  20
ENDBRANCH  17  19
ENDBRANCH   1  17
TORSDOF 5
