REMARK  Name = ZINC12056729
REMARK  11 active torsions:
REMARK  status: ('A' for Active; 'I' for Inactive)
REMARK    1  A    between atoms: C_1  and  C_2
REMARK    2  A    between atoms: C_2  and  C_3
REMARK    3  A    between atoms: C_3  and  C_4
REMARK    4  A    between atoms: C_4  and  C_19
REMARK    5  A    between atoms: N_7  and  C_11
REMARK    6  A    between atoms: C_11  and  C_12
REMARK    7  A    between atoms: C_12  and  C_13
REMARK    8  A    between atoms: C_18  and  N_75
REMARK    9  A    between atoms: C_25  and  C_27
REMARK   10  A    between atoms: C_30  and  N_33
REMARK   11  A    between atoms: C_34  and  C_36
REMARK                            x       y       z     vdW  Elec       q    Type
REMARK                         _______ _______ _______ _____ _____    ______ ____
ROOT
ATOM      1  C   UNL     1       3.208  -1.790  -0.398  0.00  0.00    +0.115 C 
ATOM      2  C   UNL     1       1.974  -0.936  -0.611  0.00  0.00    +0.247 C 
ATOM      3  O   UNL     1       1.788  -0.125  -1.494  0.00  0.00    -0.273 OA
ATOM      4  N   UNL     1       1.127  -1.264   0.384  0.00  0.00    -0.224 N 
ATOM      5  C   UNL     1       1.646  -2.202   1.185  0.00  0.00    +0.309 C 
ATOM      6  O   UNL     1       1.067  -2.661   2.150  0.00  0.00    -0.252 OA
ATOM      7  N   UNL     1       2.879  -2.579   0.802  0.00  0.00    -0.285 N 
ATOM      8  H   UNL     1       3.442  -3.242   1.232  0.00  0.00    +0.151 HD
ENDROOT
BRANCH   1   9
ATOM      9  C   UNL     1       3.436  -2.708  -1.600  0.00  0.00    +0.024 C 
ATOM     10  C   UNL     1       3.882  -1.873  -2.802  0.00  0.00    +0.025 C 
ATOM     11  C   UNL     1       4.143  -2.799  -3.994  0.00  0.00    +0.108 C 
ATOM     12  N   UNL     1       2.942  -3.611  -4.234  0.00  0.00    -0.298 N 
ATOM     13  C   UNL     1       2.377  -4.383  -3.120  0.00  0.00    +0.108 C 
ATOM     14  C   UNL     1       2.135  -3.439  -1.938  0.00  0.00    +0.025 C 
ATOM     15  C   UNL     1       2.370  -3.646  -5.454  0.00  0.00    +0.247 C 
ATOM     16  O   UNL     1       1.419  -4.375  -5.659  0.00  0.00    -0.270 OA
BRANCH  15  17
ATOM     17  C   UNL     1       2.897  -2.798  -6.541  0.00  0.00    +0.037 A 
ATOM     18  C   UNL     1       2.021  -2.069  -7.349  0.00  0.00    +0.015 A 
ATOM     19  C   UNL     1       2.516  -1.275  -8.359  0.00  0.00    +0.024 A 
ATOM     20  C   UNL     1       3.888  -1.207  -8.582  0.00  0.00    +0.033 A 
ATOM     21  C   UNL     1       4.763  -1.936  -7.783  0.00  0.00    +0.024 A 
ATOM     22  C   UNL     1       4.274  -2.727  -6.769  0.00  0.00    +0.015 A 
BRANCH  20  23
ATOM     23  N   UNL     1       4.386  -0.407  -9.610  0.00  0.00    -0.286 N 
ATOM     24  C   UNL     1       5.482  -0.792 -10.293  0.00  0.00    +0.214 C 
ATOM     25  O   UNL     1       5.979  -1.877 -10.080  0.00  0.00    -0.276 OA
ATOM     26  C   UNL     1       6.089   0.125 -11.323  0.00  0.00    +0.109 C 
ATOM     27  H   UNL     1       3.945   0.428  -9.832  0.00  0.00    +0.155 HD
ENDBRANCH  20  23
ENDBRANCH  15  17
ENDBRANCH   1   9
BRANCH   1  28
ATOM     28  C   UNL     1       4.437  -0.914  -0.146  0.00  0.00    +0.035 C 
BRANCH  28  30
ATOM     29  C   UNL     1       5.435   0.818   1.353  0.00  0.00    +0.004 C 
ATOM     30  C   UNL     1       4.206  -0.058   1.101  0.00  0.00    -0.001 C 
ENDBRANCH  28  30
ENDBRANCH   1  28
BRANCH   4  31
ATOM     31  C   UNL     1      -0.201  -0.670   0.564  0.00  0.00    +0.116 C 
BRANCH  31  32
ATOM     32  C   UNL     1      -0.090   0.565   1.460  0.00  0.00    +0.004 C 
BRANCH  32  33
ATOM     33  C   UNL     1      -1.489   1.113   1.749  0.00  0.00    -0.068 C 
ATOM     34  C   UNL     1      -2.302   0.078   2.557  0.00  0.00    -0.017 C 
ATOM     35  C   UNL     1      -3.101   0.961   3.551  0.00  0.00    -0.020 C 
ATOM     36  C   UNL     1      -2.082   2.088   3.857  0.00  0.00    -0.079 C 
ATOM     37  C   UNL     1       0.012   2.705   2.794  0.00  0.00    -0.096 C 
ATOM     38  N   UNL     1      -1.409   2.335   2.569  0.00  0.00    +0.380 N 
ATOM     39  H   UNL     1      -1.883   3.104   2.080  0.00  0.00    -0.082 HD
ENDBRANCH  32  33
ENDBRANCH  31  32
ENDBRANCH   4  31
TORSDOF 8
