REMARK  Name = ZINC05275009
REMARK  3 active torsions:
REMARK  status: ('A' for Active; 'I' for Inactive)
REMARK    1  A    between atoms: C_1  and  C_2
REMARK    2  A    between atoms: C_9  and  C_13
REMARK    3  A    between atoms: C_9  and  O_17
REMARK                            x       y       z     vdW  Elec       q    Type
REMARK                         _______ _______ _______ _____ _____    ______ ____
ROOT
ATOM      1  C   UNL     1       5.913  -5.571  -2.191  0.00  0.00    +0.007 C 
ATOM      2  C   UNL     1       5.007  -5.022  -1.087  0.00  0.00    -0.013 C 
ATOM      3  C   UNL     1       3.583  -5.528  -1.308  0.00  0.00    +0.009 C 
ATOM      4  C   UNL     1       2.675  -5.073  -0.154  0.00  0.00    +0.053 C 
ATOM      5  C   UNL     1       2.868  -3.578  -0.013  0.00  0.00    +0.045 C 
ATOM      6  N   UNL     1       1.996  -2.665  -0.025  0.00  0.00    -0.184 NA
ATOM      7  N   UNL     1       2.518  -1.370  -0.029  0.00  0.00    -0.160 N 
ATOM      8  C   UNL     1       3.990  -1.454  -0.044  0.00  0.00    +0.258 C 
ATOM      9  C   UNL     1       4.255  -2.961   0.081  0.00  0.00    +0.096 C 
ATOM     10  C   UNL     1       5.058  -3.491  -1.109  0.00  0.00    +0.017 C 
ATOM     11  C   UNL     1       1.778  -0.205  -0.016  0.00  0.00    +0.184 A 
ATOM     12  N   UNL     1       2.200   1.040  -0.013  0.00  0.00    -0.223 NA
ATOM     13  C   UNL     1       1.355   2.093   0.000  0.00  0.00    +0.080 A 
ATOM     14  C   UNL     1       1.675   3.470   0.005  0.00  0.00    +0.029 A 
ATOM     15  C   UNL     1       0.687   4.419   0.020  0.00  0.00    +0.002 A 
ATOM     16  C   UNL     1      -0.655   4.068   0.031  0.00  0.00    +0.001 A 
ATOM     17  C   UNL     1      -1.005   2.730   0.031  0.00  0.00    +0.017 A 
ATOM     18  C   UNL     1      -0.022   1.772   0.012  0.00  0.00    +0.041 A 
ATOM     19  S   UNL     1       0.002  -0.004   0.002  0.00  0.00    -0.051 S 
ENDROOT
BRANCH   8  20
ATOM     20  C   UNL     1       4.586  -0.700   1.146  0.00  0.00    +0.438 C 
ATOM     21  F   UNL     1       4.087  -1.239   2.337  0.00  0.00    -0.166 F 
ATOM     22  F   UNL     1       5.979  -0.824   1.127  0.00  0.00    -0.166 F 
ATOM     23  F   UNL     1       4.236   0.652   1.064  0.00  0.00    -0.166 F 
ENDBRANCH   8  20
BRANCH   8  24
ATOM     24  O   UNL     1       4.512  -0.950  -1.275  0.00  0.00    -0.363 OA
ATOM     25  H   UNL     1       4.307  -0.019  -1.437  0.00  0.00    +0.212 HD
ENDBRANCH   8  24
TORSDOF 2
