REMARK  Name = ZINC20407394
REMARK  11 active torsions:
REMARK  status: ('A' for Active; 'I' for Inactive)
REMARK    1  A    between atoms: C_1  and  C_2
REMARK    2  A    between atoms: C_5  and  C_7
REMARK    3  A    between atoms: C_7  and  N_8
REMARK    4  A    between atoms: N_8  and  C_9
REMARK    5  A    between atoms: N_8  and  C_19
REMARK    6  A    between atoms: C_11  and  C_17
REMARK    7  A    between atoms: C_11  and  C_18
REMARK    8  A    between atoms: C_13  and  C_15
REMARK    9  A    between atoms: C_13  and  C_16
REMARK   10  A    between atoms: C_19  and  N_21
REMARK   11  A    between atoms: N_21  and  C_22
REMARK                            x       y       z     vdW  Elec       q    Type
REMARK                         _______ _______ _______ _____ _____    ______ ____
ROOT
ATOM      1  N   UNL     1      -2.451   1.364   2.742  0.00  0.00    -0.302 N 
ENDROOT
BRANCH   1   2
ATOM      2  C   UNL     1      -2.070   2.650   3.338  0.00  0.00    +0.073 C 
ATOM      3  C   UNL     1      -2.248   3.758   2.300  0.00  0.00    +0.009 C 
ATOM      4  C   UNL     1      -1.837   5.107   2.886  0.00  0.00    -0.072 C 
ATOM      5  N   UNL     1      -0.543   5.071   3.536  0.00  0.00    +0.386 N 
ATOM      6  C   UNL     1      -0.168   3.934   4.351  0.00  0.00    -0.072 C 
ATOM      7  C   UNL     1      -0.598   2.600   3.746  0.00  0.00    +0.009 C 
ATOM      8  C   UNL     1      -0.733   4.059   5.771  0.00  0.00    -0.010 C 
ATOM      9  C   UNL     1       1.372   3.916   4.472  0.00  0.00    -0.010 C 
ATOM     10  C   UNL     1      -2.925   5.602   3.846  0.00  0.00    -0.010 C 
ATOM     11  C   UNL     1      -1.762   6.117   1.719  0.00  0.00    -0.010 C 
ATOM     12  H   UNL     1       0.250   5.123   2.776  0.00  0.00    -0.084 HD
ATOM     13  H   UNL     1      -0.453   5.927   4.221  0.00  0.00    -0.084 HD
ENDBRANCH   1   2
BRANCH   1  14
ATOM     14  C   UNL     1      -1.845   0.937   1.617  0.00  0.00    +0.134 C 
ATOM     15  S   UNL     1      -0.541   1.827   0.956  0.00  0.00    -0.019 S 
BRANCH  14  16
ATOM     16  N   UNL     1      -2.267  -0.191   1.011  0.00  0.00    -0.324 N 
ATOM     17  H   UNL     1      -3.048  -0.808   1.479  0.00  0.00    +0.148 HD
BRANCH  16  18
ATOM     18  C   UNL     1      -1.684  -0.596  -0.271  0.00  0.00    +0.072 C 
ATOM     19  C   UNL     1      -0.424  -1.384  -0.032  0.00  0.00    +0.022 C 
ATOM     20  C   UNL     1       0.637  -1.145  -1.123  0.00  0.00    +0.002 C 
ATOM     21  C   UNL     1       0.036  -1.101  -2.541  0.00  0.00    +0.000 C 
ATOM     22  C   UNL     1      -1.010  -2.161  -2.756  0.00  0.00    +0.000 C 
ATOM     23  C   UNL     1      -2.395  -1.549  -2.461  0.00  0.00    +0.002 C 
ATOM     24  C   UNL     1      -2.683  -1.489  -1.035  0.00  0.00    +0.022 C 
ENDBRANCH  16  18
ENDBRANCH  14  16
ENDBRANCH   1  14
BRANCH   1  25
ATOM     25  C   UNL     1      -3.489   0.544   3.371  0.00  0.00    +0.181 C 
BRANCH  25  30
ATOM     26  C   UNL     1      -1.304  -3.547   5.353  0.00  0.00    +0.086 C 
ATOM     27  C   UNL     1      -1.905  -2.171   5.230  0.00  0.00    +0.102 A 
ATOM     28  C   UNL     1      -2.032  -1.276   6.226  0.00  0.00    +0.045 A 
ATOM     29  C   UNL     1      -2.644  -0.129   5.670  0.00  0.00    +0.046 A 
ATOM     30  C   UNL     1      -2.856  -0.392   4.368  0.00  0.00    +0.122 A 
ATOM     31  O   UNL     1      -2.411  -1.632   4.108  0.00  0.00    -0.463 OA
ENDBRANCH  25  30
ENDBRANCH   1  25
TORSDOF 6
