REMARK  Name = ZINC51262627
REMARK  6 active torsions:
REMARK  status: ('A' for Active; 'I' for Inactive)
REMARK    1  A    between atoms: C_1  and  C_2
REMARK    2  A    between atoms: C_6  and  C_8
REMARK    3  A    between atoms: C_10  and  C_11
REMARK    4  A    between atoms: C_10  and  C_13
REMARK    5  A    between atoms: N_15  and  C_16
REMARK    6  A    between atoms: C_21  and  N_22
REMARK                            x       y       z     vdW  Elec       q    Type
REMARK                         _______ _______ _______ _____ _____    ______ ____
ROOT
ATOM      1  C   UNL     1      -0.149  -4.991   3.676  0.00  0.00    +0.262 C 
ATOM      2  O   UNL     1      -0.215  -4.374   4.723  0.00  0.00    -0.269 OA
ATOM      3  N   UNL     1      -0.180  -6.338   3.685  0.00  0.00    -0.279 N 
ATOM      4  H   UNL     1      -0.055  -6.832   2.860  0.00  0.00    +0.155 HD
ENDROOT
BRANCH   3   5
ATOM      5  C   UNL     1      -0.393  -7.026   4.886  0.00  0.00    +0.068 A 
ATOM      6  C   UNL     1       0.184  -6.565   6.062  0.00  0.00    +0.075 A 
ATOM      7  C   UNL     1      -0.028  -7.245   7.251  0.00  0.00    +0.164 A 
ATOM      8  C   UNL     1      -0.820  -8.387   7.265  0.00  0.00    +0.164 A 
ATOM      9  C   UNL     1      -1.393  -8.846   6.088  0.00  0.00    +0.084 A 
ATOM     10  C   UNL     1      -1.185  -8.165   4.904  0.00  0.00    +0.151 A 
ATOM     11  O   UNL     1      -1.046  -9.064   8.425  0.00  0.00    -0.485 OA
ATOM     12  C   UNL     1      -0.156  -8.792   9.513  0.00  0.00    +0.270 C 
ATOM     13  C   UNL     1       0.009  -7.270   9.629  0.00  0.00    +0.270 C 
ATOM     14  O   UNL     1       0.547  -6.782   8.395  0.00  0.00    -0.485 OA
BRANCH  10  15
ATOM     15  N   UNL     1      -1.804  -8.655   3.651  0.00  0.00    +0.058 N 
ATOM     16  O   UNL     1      -2.553  -9.604   3.678  0.00  0.00    -0.126 OA
ATOM     17  O   UNL     1      -1.562  -8.106   2.602  0.00  0.00    -0.126 OA
ENDBRANCH  10  15
ENDBRANCH   3   5
BRANCH   1  20
ATOM     18  C   UNL     1      -0.003  -2.880   2.396  0.00  0.00    +0.208 C 
ATOM     19  O   UNL     1       0.023  -2.199   3.559  0.00  0.00    -0.286 OA
ATOM     20  C   UNL     1      -0.035  -4.269   2.405  0.00  0.00    +0.161 C 
BRANCH  18  26
ATOM     21  C   UNL     1      -1.900  -2.150  -2.159  0.00  0.00    +0.044 C 
ATOM     22  C   UNL     1      -0.908  -1.797  -1.080  0.00  0.00    -0.050 A 
ATOM     23  C   UNL     1       0.012  -0.784  -1.293  0.00  0.00    +0.003 A 
ATOM     24  C   UNL     1       0.926  -0.452  -0.309  0.00  0.00    +0.001 A 
ATOM     25  C   UNL     1       0.927  -1.129   0.892  0.00  0.00    +0.012 A 
ATOM     26  C   UNL     1       0.002  -2.152   1.115  0.00  0.00    +0.023 A 
ATOM     27  C   UNL     1      -0.923  -2.478   0.118  0.00  0.00    +0.015 A 
ENDBRANCH  18  26
BRANCH  20  28
ATOM     28  C   UNL     1       0.042  -4.995   1.173  0.00  0.00    +0.108 C 
ATOM     29  N   UNL     1       0.104  -5.571   0.196  0.00  0.00    -0.191 NA
ENDBRANCH  20  28
ENDBRANCH   1  20
TORSDOF 5
