REMARK  Name = ZINC36498102
REMARK  10 active torsions:
REMARK  status: ('A' for Active; 'I' for Inactive)
REMARK    1  A    between atoms: C_1  and  O_2
REMARK    2  A    between atoms: O_2  and  C_3
REMARK    3  A    between atoms: C_6  and  C_9
REMARK    4  A    between atoms: N_11  and  C_12
REMARK    5  A    between atoms: N_11  and  C_18
REMARK    6  A    between atoms: C_12  and  C_13
REMARK    7  A    between atoms: C_18  and  C_20
REMARK    8  A    between atoms: C_18  and  C_30
REMARK    9  A    between atoms: C_23  and  C_26
REMARK   10  A    between atoms: N_32  and  C_33
REMARK                            x       y       z     vdW  Elec       q    Type
REMARK                         _______ _______ _______ _____ _____    ______ ____
ROOT
ATOM      1  C   UNL     1       2.094  -4.763  -5.905  0.00  0.00    +0.193 C 
ENDROOT
BRANCH   1   2
ATOM      2  C   UNL     1       0.675  -5.171  -5.604  0.00  0.00    -0.018 A 
ATOM      3  C   UNL     1       0.235  -5.226  -4.295  0.00  0.00    +0.006 A 
ATOM      4  C   UNL     1      -1.067  -5.600  -4.019  0.00  0.00    +0.013 A 
ATOM      5  C   UNL     1      -1.929  -5.918  -5.052  0.00  0.00    +0.055 A 
ATOM      6  C   UNL     1      -1.489  -5.861  -6.361  0.00  0.00    +0.013 A 
ATOM      7  C   UNL     1      -0.188  -5.483  -6.638  0.00  0.00    +0.006 A 
BRANCH   5   8
ATOM      8  C   UNL     1      -3.348  -6.326  -4.751  0.00  0.00    +0.417 C 
ATOM      9  F   UNL     1      -4.165  -5.191  -4.730  0.00  0.00    -0.166 F 
ATOM     10  F   UNL     1      -3.799  -7.208  -5.739  0.00  0.00    -0.166 F 
ATOM     11  F   UNL     1      -3.397  -6.958  -3.504  0.00  0.00    -0.166 F 
ENDBRANCH   5   8
ENDBRANCH   1   2
BRANCH   1  12
ATOM     12  C   UNL     1       2.335  -4.840  -7.391  0.00  0.00    +0.238 C 
ATOM     13  O   UNL     1       2.982  -5.755  -7.854  0.00  0.00    -0.273 OA
ATOM     14  N   UNL     1       1.830  -3.892  -8.205  0.00  0.00    -0.311 N 
ATOM     15  H   UNL     1       1.312  -3.160  -7.835  0.00  0.00    +0.149 HD
BRANCH  14  16
ATOM     16  C   UNL     1       2.064  -3.967  -9.650  0.00  0.00    +0.073 C 
ATOM     17  C   UNL     1       3.413  -3.327  -9.982  0.00  0.00    +0.022 C 
ATOM     18  C   UNL     1       3.657  -3.405 -11.490  0.00  0.00    +0.002 C 
ATOM     19  C   UNL     1       2.543  -2.658 -12.227  0.00  0.00    +0.000 C 
ATOM     20  C   UNL     1       1.194  -3.299 -11.894  0.00  0.00    +0.002 C 
ATOM     21  C   UNL     1       0.950  -3.220 -10.386  0.00  0.00    +0.022 C 
ENDBRANCH  14  16
ENDBRANCH   1  12
BRANCH   1  24
ATOM     22  C   UNL     1       3.933  -5.167  -4.358  0.00  0.00    +0.248 C 
ATOM     23  O   UNL     1       4.860  -5.861  -3.987  0.00  0.00    -0.270 OA
ATOM     24  N   UNL     1       3.018  -5.665  -5.214  0.00  0.00    -0.275 N 
BRANCH  22  28
ATOM     25  C   UNL     1       3.575  -1.174  -2.958  0.00  0.00    +0.120 A 
ATOM     26  C   UNL     1       4.833  -1.744  -3.112  0.00  0.00    +0.046 A 
ATOM     27  C   UNL     1       4.953  -3.038  -3.566  0.00  0.00    +0.016 A 
ATOM     28  C   UNL     1       3.808  -3.779  -3.871  0.00  0.00    +0.037 A 
ATOM     29  C   UNL     1       2.545  -3.202  -3.714  0.00  0.00    +0.016 A 
ATOM     30  C   UNL     1       2.433  -1.909  -3.255  0.00  0.00    +0.046 A 
BRANCH  25  32
ATOM     31  C   UNL     1       4.674   0.801  -2.224  0.00  0.00    +0.277 C 
ATOM     32  O   UNL     1       3.461   0.102  -2.511  0.00  0.00    -0.495 OA
ENDBRANCH  25  32
ENDBRANCH  22  28
BRANCH  24  33
ATOM     33  C   UNL     1       2.949  -7.109  -5.452  0.00  0.00    +0.183 C 
BRANCH  33  34
ATOM     34  C   UNL     1       4.334  -7.642  -5.714  0.00  0.00    +0.122 A 
ATOM     35  C   UNL     1       5.142  -8.213  -4.803  0.00  0.00    +0.046 A 
ATOM     36  C   UNL     1       6.335  -8.563  -5.476  0.00  0.00    +0.041 A 
ATOM     37  C   UNL     1       6.185  -8.185  -6.758  0.00  0.00    +0.195 A 
ATOM     38  O   UNL     1       4.968  -7.633  -6.898  0.00  0.00    -0.466 OA
ENDBRANCH  33  34
ENDBRANCH  24  33
ENDBRANCH   1  24
TORSDOF 9
