REMARK  Name = ZINC31645991
REMARK  7 active torsions:
REMARK  status: ('A' for Active; 'I' for Inactive)
REMARK    1  A    between atoms: C_4  and  C_7
REMARK    2  A    between atoms: C_7  and  C_8
REMARK    3  A    between atoms: C_10  and  C_13
REMARK    4  A    between atoms: C_13  and  N_14
REMARK    5  A    between atoms: C_17  and  C_21
REMARK    6  A    between atoms: C_17  and  C_28
REMARK    7  A    between atoms: C_21  and  C_22
REMARK                            x       y       z     vdW  Elec       q    Type
REMARK                         _______ _______ _______ _____ _____    ______ ____
ROOT
ATOM      1  N   UNL     1       1.620   5.233  -1.367  0.00  0.00    -0.215 N 
ATOM      2  C   UNL     1       0.802   6.042  -2.069  0.00  0.00    +0.252 C 
ATOM      3  O   UNL     1      -0.237   6.539  -1.691  0.00  0.00    -0.272 OA
ATOM      4  C   UNL     1       1.452   6.201  -3.429  0.00  0.00    +0.142 C 
ATOM      5  N   UNL     1       2.676   5.388  -3.326  0.00  0.00    -0.281 N 
ATOM      6  C   UNL     1       2.688   4.867  -2.085  0.00  0.00    +0.310 C 
ATOM      7  O   UNL     1       3.569   4.144  -1.665  0.00  0.00    -0.252 OA
ATOM      8  H   UNL     1       3.360   5.311  -4.184  0.00  0.00    +0.152 HD
ENDROOT
BRANCH   4   9
ATOM      9  C   UNL     1       1.796   7.646  -3.686  0.00  0.00    -0.015 A 
ATOM     10  C   UNL     1       0.884   8.471  -4.317  0.00  0.00    +0.006 A 
ATOM     11  C   UNL     1       1.198   9.797  -4.550  0.00  0.00    +0.000 A 
ATOM     12  C   UNL     1       2.427  10.296  -4.159  0.00  0.00    +0.000 A 
ATOM     13  C   UNL     1       3.340   9.469  -3.532  0.00  0.00    +0.000 A 
ATOM     14  C   UNL     1       3.025   8.144  -3.296  0.00  0.00    +0.006 A 
ENDBRANCH   4   9
BRANCH   1  15
ATOM     15  C   UNL     1       1.374   4.812   0.015  0.00  0.00    +0.216 C 
BRANCH  15  18
ATOM     16  C   UNL     1      -0.018   1.503   0.010  0.00  0.00    +0.176 A 
ATOM     17  N   UNL     1       1.055   2.313   0.004  0.00  0.00    -0.194 NA
ATOM     18  C   UNL     1       0.575   3.534   0.015  0.00  0.00    +0.245 A 
ATOM     19  O   UNL     1      -0.757   3.428   0.027  0.00  0.00    -0.336 OA
ATOM     20  N   UNL     1      -1.076   2.257   0.019  0.00  0.00    -0.061 NA
BRANCH  16  21
ATOM     21  C   UNL     1       0.002  -0.004   0.002  0.00  0.00    +0.114 C 
BRANCH  21  25
ATOM     22  C   UNL     1       0.060  -1.450   4.021  0.00  0.00    +0.000 A 
ATOM     23  C   UNL     1      -1.147  -1.232   3.382  0.00  0.00    +0.000 A 
ATOM     24  C   UNL     1      -1.165  -0.764   2.082  0.00  0.00    +0.004 A 
ATOM     25  C   UNL     1       0.022  -0.514   1.420  0.00  0.00    -0.040 A 
ATOM     26  C   UNL     1       1.229  -0.737   2.057  0.00  0.00    +0.004 A 
ATOM     27  C   UNL     1       1.248  -1.200   3.360  0.00  0.00    +0.000 A 
ENDBRANCH  21  25
ENDBRANCH  16  21
ENDBRANCH  15  18
ENDBRANCH   1  15
BRANCH   4  28
ATOM     28  C   UNL     1       0.537   5.660  -4.530  0.00  0.00    +0.075 C 
BRANCH  28  29
ATOM     29  C   UNL     1       0.255   4.201  -4.276  0.00  0.00    -0.045 A 
ATOM     30  C   UNL     1       1.081   3.233  -4.814  0.00  0.00    +0.004 A 
ATOM     31  C   UNL     1       0.825   1.896  -4.578  0.00  0.00    +0.000 A 
ATOM     32  C   UNL     1      -0.264   1.526  -3.810  0.00  0.00    +0.000 A 
ATOM     33  C   UNL     1      -1.094   2.494  -3.276  0.00  0.00    +0.000 A 
ATOM     34  C   UNL     1      -0.834   3.832  -3.509  0.00  0.00    +0.004 A 
ENDBRANCH  28  29
ENDBRANCH   4  28
TORSDOF 7
