REMARK  Name = ZINC36635897
REMARK  5 active torsions:
REMARK  status: ('A' for Active; 'I' for Inactive)
REMARK    1  A    between atoms: C_1  and  C_2
REMARK    2  A    between atoms: C_6  and  N_9
REMARK    3  A    between atoms: C_7  and  C_8
REMARK    4  A    between atoms: N_9  and  C_10
REMARK    5  A    between atoms: N_15  and  C_18
REMARK                            x       y       z     vdW  Elec       q    Type
REMARK                         _______ _______ _______ _____ _____    ______ ____
ROOT
ATOM      1  C   UNL     1       0.023  -4.134   2.473  0.00  0.00    +0.166 C 
ATOM      2  C   UNL     1       0.692  -4.934   3.609  0.00  0.00    +0.128 C 
ATOM      3  C   UNL     1      -0.431  -5.794   4.146  0.00  0.00    +0.228 C 
ATOM      4  O   UNL     1      -0.334  -6.584   5.060  0.00  0.00    -0.275 OA
ATOM      5  N   UNL     1      -1.548  -5.543   3.452  0.00  0.00    -0.209 N 
ATOM      6  C   UNL     1      -1.408  -4.626   2.483  0.00  0.00    +0.247 C 
ATOM      7  O   UNL     1      -2.285  -4.249   1.736  0.00  0.00    -0.273 OA
ENDROOT
BRANCH   5   8
ATOM      8  C   UNL     1      -2.765  -6.188   3.715  0.00  0.00    +0.045 A 
ATOM      9  C   UNL     1      -3.299  -7.071   2.786  0.00  0.00    +0.025 A 
ATOM     10  C   UNL     1      -4.498  -7.705   3.046  0.00  0.00    +0.023 A 
ATOM     11  C   UNL     1      -5.167  -7.463   4.233  0.00  0.00    +0.059 A 
ATOM     12  C   UNL     1      -4.637  -6.583   5.162  0.00  0.00    +0.061 A 
ATOM     13  C   UNL     1      -3.435  -5.950   4.907  0.00  0.00    +0.045 A 
ATOM     14 CL   UNL     1      -5.479  -6.281   6.649  0.00  0.00    -0.082 Cl
ATOM     15 CL   UNL     1      -6.674  -8.261   4.557  0.00  0.00    -0.082 Cl
ENDBRANCH   5   8
BRANCH   1  16
ATOM     16  N   UNL     1       0.077  -2.697   2.752  0.00  0.00    -0.332 N 
ATOM     17  H   UNL     1       0.177  -2.384   3.665  0.00  0.00    +0.147 HD
BRANCH  16  23
ATOM     18  C   UNL     1      -0.006   1.970   1.216  0.00  0.00    +0.044 C 
ATOM     19  C   UNL     1      -0.060   0.491   0.931  0.00  0.00    -0.046 A 
ATOM     20  C   UNL     1      -0.203   0.043  -0.370  0.00  0.00    +0.004 A 
ATOM     21  C   UNL     1      -0.253  -1.312  -0.635  0.00  0.00    +0.002 A 
ATOM     22  C   UNL     1      -0.161  -2.224   0.398  0.00  0.00    +0.023 A 
ATOM     23  C   UNL     1      -0.017  -1.778   1.705  0.00  0.00    +0.031 A 
ATOM     24  C   UNL     1       0.039  -0.415   1.968  0.00  0.00    -0.027 A 
ATOM     25  C   UNL     1       0.200   0.074   3.384  0.00  0.00    +0.046 C 
ENDBRANCH  16  23
ENDBRANCH   1  16
TORSDOF 3
