REMARK  Name = ZINC09876591
REMARK  11 active torsions:
REMARK  status: ('A' for Active; 'I' for Inactive)
REMARK    1  A    between atoms: C_1  and  C_2
REMARK    2  A    between atoms: C_3  and  C_30
REMARK    3  A    between atoms: C_4  and  C_29
REMARK    4  A    between atoms: C_7  and  C_8
REMARK    5  A    between atoms: C_8  and  C_10
REMARK    6  A    between atoms: C_10  and  S_11
REMARK    7  A    between atoms: S_11  and  C_12
REMARK    8  A    between atoms: C_15  and  C_23
REMARK    9  A    between atoms: N_16  and  C_17
REMARK   10  A    between atoms: C_23  and  N_61
REMARK   11  A    between atoms: C_30  and  C_32
REMARK                            x       y       z     vdW  Elec       q    Type
REMARK                         _______ _______ _______ _____ _____    ______ ____
ROOT
ATOM      1  C   UNL     1      -4.617  -2.097   1.068  0.00  0.00    +0.196 A 
ATOM      2  N   UNL     1      -3.598  -2.921   0.991  0.00  0.00    -0.122 NA
ATOM      3  N   UNL     1      -3.997  -4.129   1.171  0.00  0.00    -0.135 NA
ATOM      4  C   UNL     1      -5.286  -4.152   1.363  0.00  0.00    +0.122 A 
ATOM      5  N   UNL     1      -5.730  -2.857   1.304  0.00  0.00    -0.276 N 
ENDROOT
BRANCH   5   6
ATOM      6  C   UNL     1      -7.049  -2.406   1.454  0.00  0.00    +0.050 A 
ATOM      7  C   UNL     1      -7.704  -2.563   2.668  0.00  0.00    +0.026 A 
ATOM      8  C   UNL     1      -9.002  -2.113   2.814  0.00  0.00    +0.002 A 
ATOM      9  C   UNL     1      -9.652  -1.516   1.750  0.00  0.00    +0.000 A 
ATOM     10  C   UNL     1      -9.004  -1.363   0.538  0.00  0.00    +0.002 A 
ATOM     11  C   UNL     1      -7.704  -1.806   0.387  0.00  0.00    +0.026 A 
ENDBRANCH   5   6
BRANCH   1  12
ATOM     12  S   UNL     1      -4.564  -0.344   0.893  0.00  0.00    -0.078 S 
BRANCH  12  13
ATOM     13  C   UNL     1      -2.792  -0.110   0.611  0.00  0.00    +0.158 C 
BRANCH  13  14
ATOM     14  C   UNL     1      -2.501   1.357   0.428  0.00  0.00    +0.190 C 
ATOM     15  O   UNL     1      -3.405   2.166   0.483  0.00  0.00    -0.290 OA
BRANCH  14  22
ATOM     16  C   UNL     1      -1.653   4.320   0.029  0.00  0.00    +0.047 C 
ATOM     17  C   UNL     1      -0.772   3.097   0.012  0.00  0.00    -0.012 A 
ATOM     18  C   UNL     1       0.625   3.068  -0.198  0.00  0.00    +0.041 A 
ATOM     19  C   UNL     1       1.020   1.740  -0.131  0.00  0.00    +0.024 A 
ATOM     20  N   UNL     1      -0.060   0.983   0.105  0.00  0.00    -0.355 N 
ATOM     21  H   UNL     1      -0.059   0.017   0.196  0.00  0.00    +0.166 HD
ATOM     22  C   UNL     1      -1.175   1.792   0.192  0.00  0.00    +0.087 A 
ATOM     23  C   UNL     1       2.430   1.232  -0.297  0.00  0.00    +0.064 C 
BRANCH  18  24
ATOM     24  C   UNL     1       1.494   4.224  -0.439  0.00  0.00    +0.162 C 
ATOM     25  O   UNL     1       1.978   4.826   0.497  0.00  0.00    -0.292 OA
ATOM     26  C   UNL     1       1.787   4.666  -1.850  0.00  0.00    +0.091 C 
ENDBRANCH  18  24
ENDBRANCH  14  22
ENDBRANCH  13  14
ENDBRANCH  12  13
ENDBRANCH   1  12
BRANCH   4  27
ATOM     27  C   UNL     1      -6.132  -5.376   1.603  0.00  0.00    -0.001 C 
BRANCH  27  33
ATOM     28  C   UNL     1      -7.525  -4.960  -0.333  0.00  0.00    -0.078 C 
ATOM     29  C   UNL     1      -7.883  -5.474  -1.729  0.00  0.00    -0.019 C 
ATOM     30  C   UNL     1      -8.540  -6.852  -1.607  0.00  0.00    -0.004 C 
ATOM     31  C   UNL     1      -7.581  -7.803  -0.885  0.00  0.00    -0.019 C 
ATOM     32  C   UNL     1      -7.231  -7.221   0.487  0.00  0.00    -0.078 C 
ATOM     33  N   UNL     1      -6.582  -5.907   0.300  0.00  0.00    +0.384 N 
ATOM     34  H   UNL     1      -5.766  -6.023  -0.313  0.00  0.00    -0.081 HD
ENDBRANCH  27  33
ENDBRANCH   4  27
TORSDOF 8
