REMARK  Name = ZINC43394460
REMARK  9 active torsions:
REMARK  status: ('A' for Active; 'I' for Inactive)
REMARK    1  A    between atoms: C_1  and  C_2
REMARK    2  A    between atoms: C_4  and  C_21
REMARK    3  A    between atoms: C_6  and  C_8
REMARK    4  A    between atoms: C_8  and  C_10
REMARK    5  A    between atoms: C_8  and  N_12
REMARK    6  A    between atoms: C_10  and  N_11
REMARK    7  A    between atoms: N_12  and  C_13
REMARK    8  A    between atoms: N_12  and  C_14
REMARK    9  A    between atoms: C_14  and  C_15
REMARK                            x       y       z     vdW  Elec       q    Type
REMARK                         _______ _______ _______ _____ _____    ______ ____
ROOT
ATOM      1  C   UNL     1       0.227  -3.135   1.916  0.00  0.00    +0.069 C 
ENDROOT
BRANCH   1   7
ATOM      2  C   UNL     1       1.923   1.081  -0.182  0.00  0.00    +0.044 C 
ATOM      3  C   UNL     1       1.509  -0.363  -0.305  0.00  0.00    -0.050 A 
ATOM      4  C   UNL     1       1.561  -0.996  -1.533  0.00  0.00    +0.006 A 
ATOM      5  C   UNL     1       1.182  -2.320  -1.645  0.00  0.00    -0.050 A 
ATOM      6  C   UNL     1       0.750  -3.012  -0.529  0.00  0.00    +0.008 A 
ATOM      7  C   UNL     1       0.698  -2.380   0.699  0.00  0.00    -0.032 A 
ATOM      8  C   UNL     1       1.082  -1.057   0.812  0.00  0.00    +0.008 A 
ATOM      9  C   UNL     1       1.238  -3.010  -2.984  0.00  0.00    +0.044 C 
ENDBRANCH   1   7
BRANCH   1  10
ATOM     10  N   UNL     1       0.940  -2.644   3.103  0.00  0.00    -0.296 NA
ATOM     11  C   UNL     1       0.229  -1.514   3.715  0.00  0.00    +0.105 C 
BRANCH  10  12
ATOM     12  C   UNL     1       1.147  -3.724   4.077  0.00  0.00    +0.127 C 
BRANCH  12  13
ATOM     13  C   UNL     1       2.200  -3.309   5.071  0.00  0.00    +0.005 A 
ATOM     14  C   UNL     1       2.050  -2.665   6.255  0.00  0.00    +0.027 A 
ATOM     15  C   UNL     1       3.172  -2.383   7.012  0.00  0.00    +0.025 A 
ATOM     16  C   UNL     1       4.389  -2.759   6.548  0.00  0.00    +0.060 A 
ATOM     17  S   UNL     1       3.968  -3.544   5.000  0.00  0.00    -0.099 S 
ATOM     18 BR   UNL     1       3.011  -1.487   8.669  0.00  0.00    -0.050 Br
ENDBRANCH  12  13
ENDBRANCH  10  12
ENDBRANCH   1  10
BRANCH   1  19
ATOM     19  C   UNL     1      -1.277  -2.919   2.099  0.00  0.00    -0.063 C 
BRANCH  19  20
ATOM     20  N   UNL     1      -1.742  -3.677   3.268  0.00  0.00    +0.379 N 
ATOM     21  H   UNL     1      -1.423  -4.632   3.198  0.00  0.00    -0.090 HD
ATOM     22  H   UNL     1      -1.371  -3.260   4.109  0.00  0.00    -0.090 HD
ATOM     23  H   UNL     1      -2.750  -3.660   3.301  0.00  0.00    -0.090 HD
ENDBRANCH  19  20
ENDBRANCH   1  19
TORSDOF 6
