REMARK  Name = ZINC06784726
REMARK  5 active torsions:
REMARK  status: ('A' for Active; 'I' for Inactive)
REMARK    1  A    between atoms: C_1  and  C_2
REMARK    2  A    between atoms: C_5  and  N_9
REMARK    3  A    between atoms: C_10  and  C_12
REMARK    4  A    between atoms: C_12  and  N_13
REMARK    5  A    between atoms: C_14  and  C_16
REMARK                            x       y       z     vdW  Elec       q    Type
REMARK                         _______ _______ _______ _____ _____    ______ ____
ROOT
ATOM      1  N   UNL     1       5.636   1.638   2.412  0.00  0.00    -0.283 N 
ATOM      2  C   UNL     1       4.350   1.290   2.206  0.00  0.00    +0.234 C 
ATOM      3  O   UNL     1       3.777   0.584   3.008  0.00  0.00    -0.274 OA
ATOM      4  H   UNL     1       6.114   2.148   1.740  0.00  0.00    +0.155 HD
ENDROOT
BRANCH   1   9
ATOM      5  C   UNL     1       8.255   0.113   7.209  0.00  0.00    +0.044 C 
ATOM      6  C   UNL     1       7.559   0.518   5.935  0.00  0.00    -0.049 A 
ATOM      7  C   UNL     1       6.621  -0.322   5.364  0.00  0.00    +0.005 A 
ATOM      8  C   UNL     1       5.982   0.046   4.196  0.00  0.00    +0.025 A 
ATOM      9  C   UNL     1       6.282   1.262   3.595  0.00  0.00    +0.052 A 
ATOM     10  C   UNL     1       7.229   2.102   4.169  0.00  0.00    +0.062 A 
ATOM     11  C   UNL     1       7.861   1.730   5.340  0.00  0.00    +0.025 A 
ATOM     12 CL   UNL     1       7.612   3.620   3.419  0.00  0.00    -0.082 Cl
ENDBRANCH   1   9
BRANCH   2  13
ATOM     13  C   UNL     1       3.624   1.779   0.979  0.00  0.00    +0.200 C 
BRANCH  13  14
ATOM     14  N   UNL     1       2.252   1.268   0.988  0.00  0.00    -0.306 N 
ATOM     15  C   UNL     1       1.411   1.579  -0.019  0.00  0.00    +0.217 C 
ATOM     16  O   UNL     1       1.790   2.282  -0.931  0.00  0.00    -0.276 OA
ATOM     17  H   UNL     1       1.948   0.705   1.717  0.00  0.00    +0.149 HD
BRANCH  15  18
ATOM     18  C   UNL     1      -0.002   1.052  -0.010  0.00  0.00    +0.075 C 
ATOM     19  C   UNL     1      -0.724   1.551   1.243  0.00  0.00    +0.013 C 
ATOM     20  C   UNL     1      -2.158   1.017   1.252  0.00  0.00    +0.001 C 
ATOM     21  C   UNL     1      -2.895   1.514   0.006  0.00  0.00    +0.000 C 
ATOM     22  C   UNL     1      -2.172   1.015  -1.247  0.00  0.00    +0.001 C 
ATOM     23  C   UNL     1      -0.739   1.549  -1.256  0.00  0.00    +0.013 C 
ENDBRANCH  15  18
ENDBRANCH  13  14
ENDBRANCH   2  13
TORSDOF 4
