REMARK  Name = ZINC01720329
REMARK  7 active torsions:
REMARK  status: ('A' for Active; 'I' for Inactive)
REMARK    1  A    between atoms: C_1  and  C_2
REMARK    2  A    between atoms: C_2  and  O_4
REMARK    3  A    between atoms: O_4  and  C_5
REMARK    4  A    between atoms: C_5  and  C_7
REMARK    5  A    between atoms: C_5  and  C_13
REMARK    6  A    between atoms: C_13  and  C_15
REMARK    7  A    between atoms: C_13  and  N_46
REMARK                            x       y       z     vdW  Elec       q    Type
REMARK                         _______ _______ _______ _____ _____    ______ ____
ROOT
ATOM      1  C   UNL     1      -1.026   3.962   1.510  0.00  0.00    +0.008 C 
ENDROOT
BRANCH   1   2
ATOM      2  C   UNL     1       0.023   3.181   2.259  0.00  0.00    -0.057 A 
ATOM      3  C   UNL     1       1.344   3.587   2.222  0.00  0.00    +0.002 A 
ATOM      4  C   UNL     1       2.305   2.873   2.913  0.00  0.00    +0.000 A 
ATOM      5  C   UNL     1       1.947   1.749   3.633  0.00  0.00    +0.000 A 
ATOM      6  C   UNL     1       0.627   1.340   3.666  0.00  0.00    +0.000 A 
ATOM      7  C   UNL     1      -0.335   2.056   2.978  0.00  0.00    +0.002 A 
ENDBRANCH   1   2
BRANCH   1  12
ATOM      8  C   UNL     1      -1.885   6.204   1.106  0.00  0.00    -0.078 C 
ATOM      9  C   UNL     1      -1.702   7.581   1.793  0.00  0.00    -0.020 C 
ATOM     10  C   UNL     1      -1.233   7.199   3.215  0.00  0.00    -0.020 C 
ATOM     11  C   UNL     1      -0.653   5.779   3.079  0.00  0.00    -0.078 C 
ATOM     12  N   UNL     1      -0.768   5.425   1.664  0.00  0.00    +0.387 N 
ATOM     13  H   UNL     1       0.102   5.667   1.174  0.00  0.00    -0.081 HD
ENDBRANCH   1  12
BRANCH   1  14
ATOM     14  C   UNL     1      -0.984   3.581   0.029  0.00  0.00    +0.197 C 
BRANCH  14  15
ATOM     15  C   UNL     1       0.342   3.992  -0.558  0.00  0.00    -0.009 A 
ATOM     16  C   UNL     1       0.542   5.297  -0.967  0.00  0.00    +0.007 A 
ATOM     17  C   UNL     1       1.760   5.675  -1.501  0.00  0.00    +0.000 A 
ATOM     18  C   UNL     1       2.774   4.745  -1.635  0.00  0.00    +0.000 A 
ATOM     19  C   UNL     1       2.572   3.438  -1.231  0.00  0.00    +0.000 A 
ATOM     20  C   UNL     1       1.355   3.062  -0.692  0.00  0.00    +0.007 A 
ENDBRANCH  14  15
BRANCH  14  21
ATOM     21  O   UNL     1      -2.057   4.261  -0.676  0.00  0.00    -0.458 OA
BRANCH  21  23
ATOM     22  C   UNL     1      -4.394   4.266  -1.472  0.00  0.00    +0.136 C 
ATOM     23  C   UNL     1      -3.235   3.622  -0.755  0.00  0.00    +0.304 C 
ATOM     24  O   UNL     1      -3.364   2.529  -0.257  0.00  0.00    -0.251 OA
ENDBRANCH  21  23
ENDBRANCH  14  21
ENDBRANCH   1  14
TORSDOF 6
