REMARK  Name = ZINC12540438
REMARK  3 active torsions:
REMARK  status: ('A' for Active; 'I' for Inactive)
REMARK    1  A    between atoms: C_1  and  C_2
REMARK    2  A    between atoms: C_4  and  C_12
REMARK    3  A    between atoms: C_12  and  N_14
REMARK                            x       y       z     vdW  Elec       q    Type
REMARK                         _______ _______ _______ _____ _____    ______ ____
ROOT
ATOM      1  C   UNL     1       0.043  -2.808  -2.521  0.00  0.00    +0.271 C 
ATOM      2  O   UNL     1       0.177  -4.019  -2.520  0.00  0.00    -0.268 OA
ENDROOT
BRANCH   1   3
ATOM      3  N   UNL     1      -0.088  -2.150  -3.677  0.00  0.00    -0.143 NA
ATOM      4  C   UNL     1      -0.185  -2.824  -4.817  0.00  0.00    +0.199 A 
ATOM      5  N   UNL     1      -0.280  -4.176  -4.928  0.00  0.00    -0.326 N 
ATOM      6  H   UNL     1      -0.289  -4.807  -4.191  0.00  0.00    +0.169 HD
ATOM      7  C   UNL     1      -0.363  -4.499  -6.278  0.00  0.00    +0.065 A 
ATOM      8  C   UNL     1      -0.474  -5.703  -6.959  0.00  0.00    +0.028 A 
ATOM      9  C   UNL     1      -0.538  -5.710  -8.338  0.00  0.00    +0.002 A 
ATOM     10  C   UNL     1      -0.491  -4.521  -9.045  0.00  0.00    +0.002 A 
ATOM     11  C   UNL     1      -0.380  -3.317  -8.378  0.00  0.00    +0.028 A 
ATOM     12  C   UNL     1      -0.315  -3.299  -6.992  0.00  0.00    +0.065 A 
ATOM     13  N   UNL     1      -0.210  -2.272  -6.060  0.00  0.00    -0.326 N 
ATOM     14  H   UNL     1      -0.162  -1.324  -6.262  0.00  0.00    +0.169 HD
ENDBRANCH   1   3
BRANCH   1  18
ATOM     15  C   UNL     1      -0.065   1.497   0.017  0.00  0.00    +0.065 C 
ATOM     16  C   UNL     1      -0.025  -0.009   0.006  0.00  0.00    +0.040 A 
ATOM     17  C   UNL     1      -0.010  -0.677  -1.216  0.00  0.00    +0.036 A 
ATOM     18  C   UNL     1       0.027  -2.064  -1.240  0.00  0.00    +0.050 A 
ATOM     19  C   UNL     1       0.047  -2.746   0.003  0.00  0.00    +0.013 A 
ATOM     20  C   UNL     1       0.085  -4.145   0.067  0.00  0.00    +0.011 A 
ATOM     21  C   UNL     1       0.104  -4.764   1.281  0.00  0.00    +0.001 A 
ATOM     22  C   UNL     1       0.087  -4.023   2.461  0.00  0.00    +0.002 A 
ATOM     23  C   UNL     1       0.050  -2.663   2.435  0.00  0.00    +0.028 A 
ATOM     24  C   UNL     1       0.029  -1.988   1.200  0.00  0.00    +0.072 A 
ATOM     25  N   UNL     1      -0.001  -0.654   1.146  0.00  0.00    -0.252 NA
ENDBRANCH   1  18
TORSDOF 2
