REMARK  Name = ZINC59170581
REMARK  5 active torsions:
REMARK  status: ('A' for Active; 'I' for Inactive)
REMARK    1  A    between atoms: C_8  and  C_22
REMARK    2  A    between atoms: N_10  and  C_11
REMARK    3  A    between atoms: C_14  and  S_17
REMARK    4  A    between atoms: S_17  and  N_20
REMARK    5  A    between atoms: N_24  and  C_25
REMARK                            x       y       z     vdW  Elec       q    Type
REMARK                         _______ _______ _______ _____ _____    ______ ____
ROOT
ATOM      1  C   UNL     1       0.133   1.290  -0.802  0.00  0.00    +0.001 A 
ATOM      2  C   UNL     1       1.069   2.025  -0.088  0.00  0.00    +0.004 A 
ATOM      3  C   UNL     1       2.252   1.445   0.327  0.00  0.00    +0.047 A 
ATOM      4  C   UNL     1       2.508   0.115   0.031  0.00  0.00    +0.137 A 
ATOM      5  C   UNL     1       1.556  -0.631  -0.689  0.00  0.00    +0.018 A 
ATOM      6  C   UNL     1       0.364  -0.023  -1.103  0.00  0.00    +0.011 A 
ATOM      7  C   UNL     1       1.824  -2.038  -0.992  0.00  0.00    +0.030 A 
ATOM      8  C   UNL     1       2.880  -2.645  -0.324  0.00  0.00    +0.098 A 
ATOM      9  C   UNL     1       3.637  -1.812   0.632  0.00  0.00    +0.212 A 
ATOM     10  N   UNL     1       4.267  -2.354   1.652  0.00  0.00    -0.325 N 
ATOM     11  O   UNL     1       3.665  -0.471   0.426  0.00  0.00    -0.439 OA
ATOM     12  H   UNL     1       4.157  -3.299   1.844  0.00  0.00    +0.169 HD
ENDROOT
BRANCH  10  13
ATOM     13  C   UNL     1       5.076  -1.586   2.443  0.00  0.00    +0.042 A 
ATOM     14  C   UNL     1       5.972  -0.684   1.863  0.00  0.00    +0.027 A 
ATOM     15  C   UNL     1       6.785   0.087   2.667  0.00  0.00    +0.030 A 
ATOM     16  C   UNL     1       6.714  -0.030   4.044  0.00  0.00    +0.105 A 
ATOM     17  C   UNL     1       5.830  -0.921   4.625  0.00  0.00    +0.030 A 
ATOM     18  C   UNL     1       5.007  -1.696   3.834  0.00  0.00    +0.027 A 
BRANCH  16  19
ATOM     19  S   UNL     1       7.757   0.960   5.063  0.00  0.00    +0.056 S 
ATOM     20  O   UNL     1       7.888   0.272   6.299  0.00  0.00    -0.153 OA
ATOM     21  O   UNL     1       8.879   1.319   4.268  0.00  0.00    -0.153 OA
BRANCH  19  22
ATOM     22  N   UNL     1       6.938   2.362   5.385  0.00  0.00    -0.204 NA
ATOM     23  H   UNL     1       7.093   2.834   6.219  0.00  0.00    +0.144 HD
ATOM     24  H   UNL     1       6.303   2.713   4.741  0.00  0.00    +0.144 HD
ENDBRANCH  19  22
ENDBRANCH  16  19
ENDBRANCH  10  13
BRANCH   8  25
ATOM     25  C   UNL     1       3.229  -4.056  -0.558  0.00  0.00    +0.253 C 
ATOM     26  O   UNL     1       2.515  -4.751  -1.256  0.00  0.00    -0.270 OA
ATOM     27  N   UNL     1       4.339  -4.577   0.000  0.00  0.00    -0.280 N 
ATOM     28  H   UNL     1       4.879  -4.039   0.600  0.00  0.00    +0.155 HD
BRANCH  27  29
ATOM     29  C   UNL     1       4.714  -5.894  -0.286  0.00  0.00    +0.048 A 
ATOM     30  C   UNL     1       3.748  -6.836  -0.617  0.00  0.00    +0.024 A 
ATOM     31  C   UNL     1       4.120  -8.136  -0.898  0.00  0.00    +0.002 A 
ATOM     32  C   UNL     1       5.454  -8.500  -0.852  0.00  0.00    +0.001 A 
ATOM     33  C   UNL     1       6.418  -7.566  -0.522  0.00  0.00    +0.017 A 
ATOM     34  C   UNL     1       6.053  -6.262  -0.245  0.00  0.00    +0.039 A 
ATOM     35 BR   UNL     1       7.373  -4.983   0.197  0.00  0.00    -0.048 Br
ENDBRANCH  27  29
ENDBRANCH   8  25
TORSDOF 5
