REMARK  Name = ZINC27004615
REMARK  8 active torsions:
REMARK  status: ('A' for Active; 'I' for Inactive)
REMARK    1  A    between atoms: C_1  and  C_2
REMARK    2  A    between atoms: C_4  and  C_28
REMARK    3  A    between atoms: C_5  and  N_9
REMARK    4  A    between atoms: C_10  and  C_12
REMARK    5  A    between atoms: C_12  and  C_14
REMARK    6  A    between atoms: C_12  and  N_15
REMARK    7  A    between atoms: N_15  and  C_16
REMARK    8  A    between atoms: C_20  and  N_22
REMARK                            x       y       z     vdW  Elec       q    Type
REMARK                         _______ _______ _______ _____ _____    ______ ____
ROOT
ATOM      1  C   UNL     1       0.436   0.197  -4.835  0.00  0.00    +0.154 C 
ATOM      2  C   UNL     1      -0.945   0.762  -5.171  0.00  0.00    +0.038 C 
ENDROOT
BRANCH   1   4
ATOM      3  N   UNL     1      -0.033   0.012  -2.413  0.00  0.00    -0.283 N 
ATOM      4  C   UNL     1       0.358  -0.592  -3.553  0.00  0.00    +0.237 C 
ATOM      5  O   UNL     1       0.647  -1.770  -3.548  0.00  0.00    -0.273 OA
ATOM      6  H   UNL     1      -0.374   1.057  -2.433  0.00  0.00    +0.155 HD
BRANCH   3  11
ATOM      7  C   UNL     1       0.080  -2.854   2.483  0.00  0.00    +0.044 C 
ATOM      8  C   UNL     1       0.050  -2.090   1.184  0.00  0.00    -0.049 A 
ATOM      9  C   UNL     1      -1.113  -2.045   0.438  0.00  0.00    +0.008 A 
ATOM     10  C   UNL     1      -1.145  -1.345  -0.753  0.00  0.00    -0.028 A 
ATOM     11  C   UNL     1      -0.006  -0.693  -1.204  0.00  0.00    +0.055 A 
ATOM     12  C   UNL     1       1.160  -0.734  -0.449  0.00  0.00    +0.063 A 
ATOM     13  C   UNL     1       1.185  -1.436   0.742  0.00  0.00    +0.025 A 
ATOM     14 CL   UNL     1       2.585   0.087  -1.003  0.00  0.00    -0.082 Cl
ATOM     15  C   UNL     1      -2.414  -1.297  -1.565  0.00  0.00    +0.046 C 
ENDBRANCH   3  11
ENDBRANCH   1   4
BRANCH   1  16
ATOM     16  N   UNL     1       0.883  -0.678  -5.921  0.00  0.00    -0.333 N 
ATOM     17  H   UNL     1       0.714  -1.764  -5.858  0.00  0.00    +0.147 HD
BRANCH  16  18
ATOM     18  C   UNL     1       1.525  -0.136  -7.037  0.00  0.00    +0.029 A 
ATOM     19  C   UNL     1       1.739   1.235  -7.117  0.00  0.00    +0.023 A 
ATOM     20  C   UNL     1       2.373   1.772  -8.221  0.00  0.00    +0.004 A 
ATOM     21  C   UNL     1       2.796   0.950  -9.247  0.00  0.00    +0.024 A 
ATOM     22  C   UNL     1       2.584  -0.421  -9.173  0.00  0.00    +0.041 A 
ATOM     23  C   UNL     1       1.953  -0.965  -8.063  0.00  0.00    +0.046 A 
BRANCH  22  24
ATOM     24  N   UNL     1       3.013  -1.254 -10.213  0.00  0.00    -0.234 N 
ATOM     25  C   UNL     1       3.698  -0.810 -11.437  0.00  0.00    +0.158 C 
ATOM     26  C   UNL     1       3.934  -2.116 -12.219  0.00  0.00    +0.253 C 
ATOM     27  O   UNL     1       3.364  -3.148 -11.363  0.00  0.00    -0.448 OA
ATOM     28  C   UNL     1       2.872  -2.586 -10.254  0.00  0.00    +0.407 C 
ATOM     29  O   UNL     1       2.343  -3.224  -9.365  0.00  0.00    -0.226 OA
ENDBRANCH  22  24
ENDBRANCH  16  18
ENDBRANCH   1  16
TORSDOF 5
