REMARK  Name = ZINC02083392
REMARK  11 active torsions:
REMARK  status: ('A' for Active; 'I' for Inactive)
REMARK    1  A    between atoms: C_1  and  C_2
REMARK    2  A    between atoms: C_4  and  C_35
REMARK    3  A    between atoms: C_8  and  C_29
REMARK    4  A    between atoms: C_9  and  C_23
REMARK    5  A    between atoms: N_10  and  C_11
REMARK    6  A    between atoms: C_11  and  C_12
REMARK    7  A    between atoms: C_12  and  C_14
REMARK    8  A    between atoms: C_12  and  O_22
REMARK    9  A    between atoms: C_14  and  N_66
REMARK   10  A    between atoms: C_15  and  C_16
REMARK   11  A    between atoms: C_15  and  N_66
REMARK                            x       y       z     vdW  Elec       q    Type
REMARK                         _______ _______ _______ _____ _____    ______ ____
ROOT
ATOM      1  C   UNL     1       2.258   0.341  -0.086  0.00  0.00    +0.044 C 
ATOM      2  C   UNL     1       1.061   1.234  -0.291  0.00  0.00    -0.049 A 
ATOM      3  C   UNL     1       1.182   2.603  -0.099  0.00  0.00    +0.008 A 
ATOM      4  C   UNL     1       0.100   3.437  -0.281  0.00  0.00    -0.026 A 
ATOM      5  C   UNL     1      -1.128   2.904  -0.662  0.00  0.00    +0.053 A 
ATOM      6  C   UNL     1      -1.243   1.517  -0.861  0.00  0.00    +0.009 A 
ATOM      7  C   UNL     1      -0.136   0.690  -0.665  0.00  0.00    +0.014 A 
ATOM      8  C   UNL     1      -2.640   1.269  -1.244  0.00  0.00    +0.015 A 
ATOM      9  C   UNL     1      -3.265   2.498  -1.262  0.00  0.00    +0.058 A 
ATOM     10  N   UNL     1      -2.359   3.470  -0.914  0.00  0.00    -0.337 N 
ATOM     11  C   UNL     1       0.247   4.922  -0.070  0.00  0.00    +0.046 C 
ENDROOT
BRANCH   9  12
ATOM     12  C   UNL     1      -4.683   2.731  -1.601  0.00  0.00    -0.001 A 
ATOM     13  C   UNL     1      -5.463   3.579  -0.811  0.00  0.00    +0.010 A 
ATOM     14  C   UNL     1      -6.785   3.797  -1.138  0.00  0.00    +0.001 A 
ATOM     15  C   UNL     1      -7.343   3.170  -2.237  0.00  0.00    +0.000 A 
ATOM     16  C   UNL     1      -6.577   2.324  -3.021  0.00  0.00    +0.001 A 
ATOM     17  C   UNL     1      -5.252   2.101  -2.710  0.00  0.00    +0.010 A 
ENDBRANCH   9  12
BRANCH   8  18
ATOM     18  C   UNL     1      -3.253  -0.042  -1.556  0.00  0.00    -0.015 A 
ATOM     19  C   UNL     1      -4.258  -0.557  -0.736  0.00  0.00    +0.008 A 
ATOM     20  C   UNL     1      -4.829  -1.777  -1.034  0.00  0.00    +0.001 A 
ATOM     21  C   UNL     1      -4.400  -2.494  -2.138  0.00  0.00    +0.000 A 
ATOM     22  C   UNL     1      -3.401  -1.990  -2.952  0.00  0.00    +0.001 A 
ATOM     23  C   UNL     1      -2.826  -0.769  -2.667  0.00  0.00    +0.008 A 
ENDBRANCH   8  18
BRANCH  10  24
ATOM     24  C   UNL     1      -2.659   4.901  -0.824  0.00  0.00    +0.151 C 
BRANCH  24  25
ATOM     25  C   UNL     1      -2.546   5.534  -2.212  0.00  0.00    +0.117 C 
BRANCH  25  26
ATOM     26  O   UNL     1      -1.189   5.475  -2.654  0.00  0.00    -0.392 OA
ATOM     27  H   UNL     1      -0.588   6.045  -2.156  0.00  0.00    +0.210 HD
ENDBRANCH  25  26
BRANCH  25  28
ATOM     28  C   UNL     1      -2.997   6.995  -2.144  0.00  0.00    -0.049 C 
BRANCH  28  29
ATOM     29  N   UNL     1      -3.001   7.563  -3.506  0.00  0.00    +0.383 N 
ATOM     30  H   UNL     1      -3.647   7.026  -4.095  0.00  0.00    -0.085 HD
ATOM     31  H   UNL     1      -2.054   7.508  -3.898  0.00  0.00    -0.085 HD
BRANCH  29  32
ATOM     32  C   UNL     1      -3.433   8.973  -3.471  0.00  0.00    -0.047 C 
BRANCH  32  33
ATOM     33  C   UNL     1      -3.427   9.526  -4.873  0.00  0.00    -0.064 A 
ATOM     34  C   UNL     1      -2.288  10.130  -5.373  0.00  0.00    +0.002 A 
ATOM     35  C   UNL     1      -2.281  10.632  -6.661  0.00  0.00    +0.000 A 
ATOM     36  C   UNL     1      -3.416  10.541  -7.444  0.00  0.00    +0.000 A 
ATOM     37  C   UNL     1      -4.557   9.943  -6.942  0.00  0.00    +0.000 A 
ATOM     38  C   UNL     1      -4.562   9.435  -5.656  0.00  0.00    +0.002 A 
ENDBRANCH  32  33
ENDBRANCH  29  32
ENDBRANCH  28  29
ENDBRANCH  25  28
ENDBRANCH  24  25
ENDBRANCH  10  24
TORSDOF 9
