REMARK  Name = ZINC55502725
REMARK  3 active torsions:
REMARK  status: ('A' for Active; 'I' for Inactive)
REMARK    1  A    between atoms: N_4  and  C_6
REMARK    2  A    between atoms: C_9  and  C_12
REMARK    3  A    between atoms: C_12  and  C_13
REMARK                            x       y       z     vdW  Elec       q    Type
REMARK                         _______ _______ _______ _____ _____    ______ ____
ROOT
ATOM      1  C   UNL     1       3.311  -6.224  -1.488  0.00  0.00    +0.115 A 
ATOM      2  N   UNL     1       3.743  -7.489  -1.734  0.00  0.00    -0.310 N 
ATOM      3  H   UNL     1       3.944  -8.076  -0.989  0.00  0.00    +0.170 HD
ATOM      4  C   UNL     1       3.896  -7.943  -2.992  0.00  0.00    +0.260 A 
ATOM      5  O   UNL     1       4.284  -9.081  -3.197  0.00  0.00    -0.267 OA
ATOM      6  C   UNL     1       3.596  -7.067  -4.086  0.00  0.00    +0.076 A 
ATOM      7  C   UNL     1       3.694  -7.349  -5.523  0.00  0.00    -0.012 A 
ATOM      8  C   UNL     1       3.338  -6.336  -6.354  0.00  0.00    +0.051 A 
ATOM      9  S   UNL     1       2.884  -4.991  -5.299  0.00  0.00    -0.062 S 
ATOM     10  C   UNL     1       3.157  -5.783  -3.733  0.00  0.00    +0.117 A 
ATOM     11  N   UNL     1       3.024  -5.406  -2.465  0.00  0.00    -0.226 NA
ATOM     12  S   UNL     1       3.331  -6.379  -8.111  0.00  0.00    -0.118 S 
ATOM     13  C   UNL     1       4.212  -7.943  -8.441  0.00  0.00    +0.075 C 
ATOM     14  C   UNL     1       3.674  -8.980  -7.446  0.00  0.00    +0.016 C 
ATOM     15  C   UNL     1       4.179  -8.695  -6.040  0.00  0.00    +0.038 C 
ENDROOT
BRANCH   1  16
ATOM     16  C   UNL     1       3.154  -5.760  -0.063  0.00  0.00    +0.109 C 
BRANCH  16  20
ATOM     17  C   UNL     1       1.755  -1.722  -0.025  0.00  0.00    +0.065 A 
ATOM     18  C   UNL     1       0.847  -2.773  -0.028  0.00  0.00    +0.028 A 
ATOM     19  C   UNL     1       1.303  -4.077  -0.040  0.00  0.00    +0.006 A 
ATOM     20  C   UNL     1       2.661  -4.336  -0.050  0.00  0.00    -0.040 A 
ATOM     21  C   UNL     1       3.567  -3.292  -0.046  0.00  0.00    +0.006 A 
ATOM     22  C   UNL     1       3.118  -1.986  -0.039  0.00  0.00    +0.028 A 
BRANCH  17  26
ATOM     23  C   UNL     1      -0.016   1.349   0.009  0.00  0.00    +0.041 A 
ATOM     24  C   UNL     1       1.309   1.798  -0.001  0.00  0.00    +0.135 A 
ATOM     25  N   UNL     1       2.096   0.752  -0.014  0.00  0.00    -0.175 NA
ATOM     26  N   UNL     1       1.296  -0.398  -0.012  0.00  0.00    -0.240 N 
ATOM     27  C   UNL     1       0.002  -0.004   0.002  0.00  0.00    +0.114 A 
ENDBRANCH  17  26
ENDBRANCH  16  20
ENDBRANCH   1  16
TORSDOF 3
