REMARK  Name = ZINC01334413
REMARK  15 active torsions:
REMARK  status: ('A' for Active; 'I' for Inactive)
REMARK    1  A    between atoms: C_1  and  C_2
REMARK    2  A    between atoms: C_2  and  C_3
REMARK    3  A    between atoms: C_2  and  C_4
REMARK    4  A    between atoms: C_4  and  C_6
REMARK    5  A    between atoms: C_4  and  N_20
REMARK    6  A    between atoms: N_10  and  C_11
REMARK    7  A    between atoms: C_11  and  C_12
REMARK    8  A    between atoms: C_15  and  O_18
REMARK    9  A    between atoms: O_18  and  C_19
REMARK   10  A    between atoms: N_20  and  C_21
REMARK   11  A    between atoms: N_20  and  C_30
REMARK   12  A    between atoms: C_21  and  C_22
REMARK   13  A    between atoms: C_25  and  O_28
REMARK   14  A    between atoms: O_28  and  C_29
REMARK   15  A    between atoms: C_30  and  C_31
REMARK                            x       y       z     vdW  Elec       q    Type
REMARK                         _______ _______ _______ _____ _____    ______ ____
ROOT
ATOM      1  N   UNL     1      -2.012  -0.256   0.870  0.00  0.00    -0.284 NA
ENDROOT
BRANCH   1   2
ATOM      2  C   UNL     1      -1.473  -1.125  -0.184  0.00  0.00    +0.130 C 
BRANCH   2   3
ATOM      3  C   UNL     1      -2.419  -1.138  -1.357  0.00  0.00    +0.169 A 
ATOM      4  N   UNL     1      -3.723  -1.255  -1.310  0.00  0.00    -0.112 NA
ATOM      5  N   UNL     1      -4.170  -1.222  -2.518  0.00  0.00    -0.023 NA
ATOM      6  N   UNL     1      -3.185  -1.086  -3.335  0.00  0.00    -0.044 NA
ATOM      7  N   UNL     1      -2.088  -1.025  -2.658  0.00  0.00    -0.223 N 
BRANCH   7   8
ATOM      8  C   UNL     1      -0.737  -0.867  -3.201  0.00  0.00    +0.182 C 
BRANCH   8   9
ATOM      9  C   UNL     1      -0.144  -2.224  -3.477  0.00  0.00    -0.026 A 
ATOM     10  C   UNL     1       0.573  -2.877  -2.492  0.00  0.00    +0.009 A 
ATOM     11  C   UNL     1       1.118  -4.122  -2.742  0.00  0.00    +0.046 A 
ATOM     12  C   UNL     1       0.945  -4.716  -3.984  0.00  0.00    +0.120 A 
ATOM     13  C   UNL     1       0.224  -4.059  -4.971  0.00  0.00    +0.046 A 
ATOM     14  C   UNL     1      -0.323  -2.817  -4.713  0.00  0.00    +0.009 A 
BRANCH  12  15
ATOM     15  O   UNL     1       1.480  -5.940  -4.233  0.00  0.00    -0.495 OA
ATOM     16  C   UNL     1       1.262  -6.491  -5.533  0.00  0.00    +0.277 C 
ENDBRANCH  12  15
ENDBRANCH   8   9
ENDBRANCH   7   8
ENDBRANCH   2   3
BRANCH   2  18
ATOM     17  C   UNL     1      -0.278  -2.549   1.485  0.00  0.00    +0.009 C 
ATOM     18  C   UNL     1      -1.313  -2.546   0.358  0.00  0.00    +0.008 C 
ATOM     19  C   UNL     1      -2.657  -3.039   0.899  0.00  0.00    +0.009 C 
ENDBRANCH   2  18
ENDBRANCH   1   2
BRANCH   1  20
ATOM     20  C   UNL     1      -3.475  -0.371   0.951  0.00  0.00    +0.120 C 
BRANCH  20  21
ATOM     21  C   UNL     1      -3.950   0.182   2.269  0.00  0.00    -0.033 A 
ATOM     22  C   UNL     1      -3.932  -0.615   3.399  0.00  0.00    +0.008 A 
ATOM     23  C   UNL     1      -4.367  -0.110   4.609  0.00  0.00    +0.046 A 
ATOM     24  C   UNL     1      -4.824   1.197   4.689  0.00  0.00    +0.120 A 
ATOM     25  C   UNL     1      -4.842   1.995   3.554  0.00  0.00    +0.046 A 
ATOM     26  C   UNL     1      -4.400   1.487   2.348  0.00  0.00    +0.008 A 
BRANCH  24  27
ATOM     27  O   UNL     1      -5.254   1.696   5.878  0.00  0.00    -0.495 OA
ATOM     28  C   UNL     1      -5.814   3.011   5.866  0.00  0.00    +0.277 C 
ENDBRANCH  24  27
ENDBRANCH  20  21
ENDBRANCH   1  20
BRANCH   1  29
ATOM     29  C   UNL     1      -1.605   1.141   0.661  0.00  0.00    +0.126 C 
BRANCH  29  30
ATOM     30  C   UNL     1      -0.142   1.291   0.987  0.00  0.00    +0.031 A 
ATOM     31  C   UNL     1       0.785   1.190   0.000  0.00  0.00    +0.020 A 
ATOM     32  C   UNL     1       2.197   1.342   0.349  0.00  0.00    +0.003 A 
ATOM     33  C   UNL     1       3.196   1.246  -0.627  0.00  0.00    +0.059 A 
ATOM     34  C   UNL     1       4.519   1.395  -0.270  0.00  0.00    +0.163 A 
ATOM     35  C   UNL     1       4.865   1.641   1.062  0.00  0.00    +0.164 A 
ATOM     36  C   UNL     1       3.884   1.735   2.034  0.00  0.00    +0.075 A 
ATOM     37  C   UNL     1       2.546   1.587   1.691  0.00  0.00    +0.053 A 
ATOM     38  N   UNL     1       1.555   1.679   2.647  0.00  0.00    -0.322 N 
ATOM     39  H   UNL     1       1.796   1.847   3.571  0.00  0.00    +0.169 HD
ATOM     40  C   UNL     1       0.259   1.542   2.315  0.00  0.00    +0.254 A 
ATOM     41  O   UNL     1      -0.590   1.634   3.185  0.00  0.00    -0.268 OA
ATOM     42  O   UNL     1       6.168   1.797   1.422  0.00  0.00    -0.485 OA
ATOM     43  C   UNL     1       7.153   1.328   0.496  0.00  0.00    +0.270 C 
ATOM     44  C   UNL     1       6.771   1.823  -0.905  0.00  0.00    +0.270 C 
ATOM     45  O   UNL     1       5.480   1.296  -1.230  0.00  0.00    -0.485 OA
ENDBRANCH  29  30
ENDBRANCH   1  29
TORSDOF 11
