REMARK  Name = ZINC39669322
REMARK  5 active torsions:
REMARK  status: ('A' for Active; 'I' for Inactive)
REMARK    1  A    between atoms: C_4  and  C_37
REMARK    2  A    between atoms: C_5  and  C_7
REMARK    3  A    between atoms: C_11  and  C_20
REMARK    4  A    between atoms: N_22  and  C_23
REMARK    5  A    between atoms: C_23  and  C_24
REMARK                            x       y       z     vdW  Elec       q    Type
REMARK                         _______ _______ _______ _____ _____    ______ ____
ROOT
ATOM      1  C   UNL     1       1.187  -1.958  -0.101  0.00  0.00    +0.247 C 
ATOM      2  O   UNL     1       2.272  -2.506  -0.125  0.00  0.00    -0.270 OA
ATOM      3  N   UNL     1       0.066  -2.689   0.061  0.00  0.00    -0.296 N 
ATOM      4  C   UNL     1      -1.338  -2.218   0.023  0.00  0.00    +0.121 C 
ATOM      5  C   UNL     1      -2.104  -3.335  -0.720  0.00  0.00    +0.100 C 
ATOM      6  C   UNL     1      -1.248  -4.597  -0.522  0.00  0.00    -0.004 C 
ATOM      7  C   UNL     1      -0.040  -4.146   0.311  0.00  0.00    +0.115 C 
ATOM      8  C   UNL     1      -0.779  -5.136  -1.871  0.00  0.00    -0.010 C 
ATOM      9  C   UNL     1       0.022  -6.422  -1.651  0.00  0.00    -0.082 C 
ATOM     10  N   UNL     1      -0.819  -7.414  -0.971  0.00  0.00    +0.379 N 
ATOM     11  C   UNL     1      -1.189  -6.927   0.364  0.00  0.00    -0.082 C 
ATOM     12  C   UNL     1      -2.041  -5.662   0.229  0.00  0.00    -0.010 C 
ATOM     13  H   UNL     1      -1.655  -7.573  -1.513  0.00  0.00    -0.086 HD
ATOM     14  H   UNL     1      -0.309  -8.280  -0.882  0.00  0.00    -0.086 HD
ENDROOT
BRANCH   1  19
ATOM     15  C   UNL     1       0.149   1.614   0.419  0.00  0.00    +0.001 A 
ATOM     16  C   UNL     1       0.927   2.261  -0.525  0.00  0.00    +0.001 A 
ATOM     17  C   UNL     1       1.789   1.539  -1.331  0.00  0.00    +0.013 A 
ATOM     18  C   UNL     1       1.879   0.169  -1.199  0.00  0.00    +0.067 A 
ATOM     19  C   UNL     1       1.097  -0.489  -0.248  0.00  0.00    +0.049 A 
ATOM     20  C   UNL     1       0.229   0.245   0.563  0.00  0.00    +0.013 A 
BRANCH  18  21
ATOM     21  C   UNL     1       2.817  -0.616  -2.078  0.00  0.00    +0.418 C 
ATOM     22  F   UNL     1       3.485   0.258  -2.943  0.00  0.00    -0.166 F 
ATOM     23  F   UNL     1       3.751  -1.288  -1.282  0.00  0.00    -0.166 F 
ATOM     24  F   UNL     1       2.088  -1.546  -2.827  0.00  0.00    -0.166 F 
ENDBRANCH  18  21
ENDBRANCH   1  19
BRANCH   5  25
ATOM     25  C   UNL     1      -3.471  -3.526  -0.116  0.00  0.00    +0.218 C 
ATOM     26  O   UNL     1      -3.647  -3.318   1.066  0.00  0.00    -0.275 OA
ATOM     27  N   UNL     1      -4.500  -3.928  -0.889  0.00  0.00    -0.315 N 
ATOM     28  H   UNL     1      -4.360  -4.095  -1.835  0.00  0.00    +0.149 HD
BRANCH  27  29
ATOM     29  C   UNL     1      -5.829  -4.113  -0.302  0.00  0.00    +0.109 C 
BRANCH  29  30
ATOM     30  C   UNL     1      -6.807  -4.569  -1.387  0.00  0.00    +0.024 C 
ATOM     31  C   UNL     1      -8.219  -4.644  -0.803  0.00  0.00    +0.008 C 
ATOM     32  C   UNL     1      -9.203  -5.069  -1.895  0.00  0.00    +0.019 C 
ATOM     33  C   UNL     1      -8.819  -6.459  -2.411  0.00  0.00    +0.108 C 
ATOM     34  N   UNL     1      -7.414  -6.432  -2.841  0.00  0.00    -0.299 N 
ATOM     35  C   UNL     1      -6.395  -5.954  -1.898  0.00  0.00    +0.113 C 
ATOM     36  C   UNL     1      -7.058  -6.850  -4.112  0.00  0.00    +0.218 A 
ATOM     37  N   UNL     1      -5.782  -6.819  -4.469  0.00  0.00    -0.223 NA
ATOM     38  C   UNL     1      -5.407  -7.211  -5.675  0.00  0.00    +0.116 A 
ATOM     39  C   UNL     1      -6.368  -7.658  -6.569  0.00  0.00    +0.039 A 
ATOM     40  C   UNL     1      -7.693  -7.678  -6.163  0.00  0.00    +0.116 A 
ATOM     41  N   UNL     1      -7.999  -7.276  -4.941  0.00  0.00    -0.223 NA
ENDBRANCH  29  30
ENDBRANCH  27  29
ENDBRANCH   5  25
TORSDOF 5
