REMARK  Name = ZINC52916576
REMARK  7 active torsions:
REMARK  status: ('A' for Active; 'I' for Inactive)
REMARK    1  A    between atoms: C_1  and  C_2
REMARK    2  A    between atoms: C_2  and  O_3
REMARK    3  A    between atoms: O_3  and  C_4
REMARK    4  A    between atoms: C_11  and  C_13
REMARK    5  A    between atoms: C_13  and  C_15
REMARK    6  A    between atoms: C_13  and  N_16
REMARK    7  A    between atoms: C_19  and  C_24
REMARK                            x       y       z     vdW  Elec       q    Type
REMARK                         _______ _______ _______ _____ _____    ______ ____
ROOT
ATOM      1  C   UNL     1      -1.498  -1.849   0.006  0.00  0.00    +0.163 A 
ATOM      2  C   UNL     1      -0.391  -2.678  -0.003  0.00  0.00    +0.049 A 
ATOM      3  C   UNL     1      -0.541  -4.056  -0.009  0.00  0.00    +0.004 A 
ATOM      4  C   UNL     1      -1.798  -4.620  -0.006  0.00  0.00    +0.012 A 
ATOM      5  C   UNL     1      -2.924  -3.796   0.004  0.00  0.00    +0.024 A 
ATOM      6  C   UNL     1      -2.778  -2.400   0.016  0.00  0.00    +0.177 A 
ATOM      7  O   UNL     1      -4.017  -1.867   0.030  0.00  0.00    -0.454 OA
ATOM      8  C   UNL     1      -4.953  -2.832   0.034  0.00  0.00    +0.127 A 
ATOM      9  C   UNL     1      -4.372  -4.039   0.010  0.00  0.00    +0.055 A 
ENDROOT
BRANCH   8  10
ATOM     10  C   UNL     1      -6.441  -2.591   0.050  0.00  0.00    +0.146 C 
ATOM     11  C   UNL     1      -6.918  -2.255  -1.365  0.00  0.00    +0.037 C 
BRANCH  10  12
ATOM     12  N   UNL     1      -6.745  -1.473   0.946  0.00  0.00    -0.242 N 
ATOM     13  C   UNL     1      -7.533  -1.568   2.035  0.00  0.00    +0.242 C 
ATOM     14  O   UNL     1      -8.102  -2.558   2.443  0.00  0.00    -0.273 OA
ATOM     15  C   UNL     1      -7.558  -0.181   2.645  0.00  0.00    +0.155 C 
ATOM     16  N   UNL     1      -6.702   0.609   1.744  0.00  0.00    -0.315 N 
ATOM     17  C   UNL     1      -6.270  -0.232   0.788  0.00  0.00    +0.140 C 
ATOM     18  S   UNL     1      -5.233   0.234  -0.492  0.00  0.00    -0.018 S 
ATOM     19  C   UNL     1      -8.984   0.374   2.662  0.00  0.00    +0.038 C 
ATOM     20  H   UNL     1      -6.488   1.552   1.827  0.00  0.00    +0.148 HD
ENDBRANCH  10  12
ENDBRANCH   8  10
BRANCH   1  21
ATOM     21  O   UNL     1      -1.339  -0.499   0.012  0.00  0.00    -0.489 OA
BRANCH  21  23
ATOM     22  C   UNL     1      -0.019   1.526   0.010  0.00  0.00    +0.048 C 
ATOM     23  C   UNL     1       0.002  -0.004   0.002  0.00  0.00    +0.226 C 
ENDBRANCH  21  23
ENDBRANCH   1  21
TORSDOF 4
