REMARK  Name = ZINC38865930
REMARK  7 active torsions:
REMARK  status: ('A' for Active; 'I' for Inactive)
REMARK    1  A    between atoms: C_1  and  C_2
REMARK    2  A    between atoms: C_4  and  N_17
REMARK    3  A    between atoms: C_9  and  C_12
REMARK    4  A    between atoms: C_18  and  C_20
REMARK    5  A    between atoms: C_20  and  C_22
REMARK    6  A    between atoms: C_20  and  O_23
REMARK    7  A    between atoms: O_23  and  C_24
REMARK                            x       y       z     vdW  Elec       q    Type
REMARK                         _______ _______ _______ _____ _____    ______ ____
ROOT
ATOM      1  C   UNL     1       0.049   1.839  -0.369  0.00  0.00    +0.067 C 
ATOM      2  C   UNL     1      -0.116   0.344  -0.281  0.00  0.00    +0.062 A 
ATOM      3  C   UNL     1      -0.078  -0.547  -1.357  0.00  0.00    +0.068 A 
ATOM      4  C   UNL     1      -0.267  -1.803  -0.868  0.00  0.00    +0.131 A 
ATOM      5  N   UNL     1      -0.418  -1.696   0.482  0.00  0.00    -0.194 N 
ATOM      6  N   UNL     1      -0.313  -0.340   0.818  0.00  0.00    -0.168 NA
ATOM      7  C   UNL     1      -0.635  -2.747   1.370  0.00  0.00    +0.196 A 
ATOM      8  N   UNL     1      -0.795  -2.714   2.679  0.00  0.00    -0.218 NA
ATOM      9  C   UNL     1      -0.994  -3.822   3.377  0.00  0.00    +0.115 A 
ATOM     10  C   UNL     1      -1.034  -5.026   2.725  0.00  0.00    +0.080 A 
ATOM     11  S   UNL     1      -0.777  -4.497   1.036  0.00  0.00    -0.056 S 
ENDROOT
BRANCH   9  12
ATOM     12  C   UNL     1      -1.171  -3.760   4.843  0.00  0.00    +0.153 A 
ATOM     13  C   UNL     1      -1.157  -2.632   5.601  0.00  0.00    +0.051 A 
ATOM     14  C   UNL     1      -1.363  -3.037   6.936  0.00  0.00    +0.042 A 
ATOM     15  C   UNL     1      -1.490  -4.378   6.926  0.00  0.00    +0.196 A 
ATOM     16  O   UNL     1      -1.379  -4.811   5.659  0.00  0.00    -0.461 OA
ENDBRANCH   9  12
BRANCH   4  17
ATOM     17  N   UNL     1      -0.299  -2.982  -1.611  0.00  0.00    -0.267 N 
ATOM     18  C   UNL     1      -0.134  -2.941  -2.947  0.00  0.00    +0.259 C 
ATOM     19  O   UNL     1       0.044  -1.878  -3.504  0.00  0.00    -0.271 OA
ATOM     20  H   UNL     1      -0.441  -3.832  -1.165  0.00  0.00    +0.156 HD
BRANCH  18  21
ATOM     21  C   UNL     1      -0.169  -4.215  -3.751  0.00  0.00    +0.256 C 
ATOM     22  C   UNL     1       1.016  -5.100  -3.356  0.00  0.00    +0.062 C 
BRANCH  21  23
ATOM     23  O   UNL     1      -0.088  -3.904  -5.143  0.00  0.00    -0.480 OA
BRANCH  23  24
ATOM     24  C   UNL     1      -0.609  -4.811  -6.010  0.00  0.00    +0.122 A 
ATOM     25  C   UNL     1      -1.088  -6.025  -5.540  0.00  0.00    +0.045 A 
ATOM     26  C   UNL     1      -1.618  -6.946  -6.423  0.00  0.00    +0.004 A 
ATOM     27  C   UNL     1      -1.669  -6.659  -7.775  0.00  0.00    +0.000 A 
ATOM     28  C   UNL     1      -1.191  -5.450  -8.246  0.00  0.00    +0.004 A 
ATOM     29  C   UNL     1      -0.666  -4.523  -7.366  0.00  0.00    +0.045 A 
ENDBRANCH  23  24
ENDBRANCH  21  23
ENDBRANCH  18  21
ENDBRANCH   4  17
TORSDOF 5
