REMARK  Name = ZINC54646962
REMARK  10 active torsions:
REMARK  status: ('A' for Active; 'I' for Inactive)
REMARK    1  A    between atoms: C_1  and  C_2
REMARK    2  A    between atoms: C_7  and  C_8
REMARK    3  A    between atoms: C_7  and  C_9
REMARK    4  A    between atoms: N_12  and  C_15
REMARK    5  A    between atoms: C_15  and  C_16
REMARK    6  A    between atoms: C_16  and  C_17
REMARK    7  A    between atoms: C_17  and  C_18
REMARK    8  A    between atoms: N_20  and  C_21
REMARK    9  A    between atoms: C_24  and  S_27
REMARK   10  A    between atoms: S_27  and  N_30
REMARK                            x       y       z     vdW  Elec       q    Type
REMARK                         _______ _______ _______ _____ _____    ______ ____
ROOT
ATOM      1  C   UNL     1       0.499  -4.355  -5.418  0.00  0.00    +0.217 C 
ATOM      2  O   UNL     1      -0.677  -4.355  -5.124  0.00  0.00    -0.275 OA
ATOM      3  N   UNL     1       0.908  -4.940  -6.562  0.00  0.00    -0.285 N 
ATOM      4  H   UNL     1       1.838  -4.882  -6.831  0.00  0.00    +0.155 HD
ENDROOT
BRANCH   3   5
ATOM      5  C   UNL     1      -0.010  -5.630  -7.362  0.00  0.00    +0.033 A 
ATOM      6  C   UNL     1       0.385  -6.771  -8.048  0.00  0.00    +0.025 A 
ATOM      7  C   UNL     1      -0.524  -7.450  -8.836  0.00  0.00    +0.030 A 
ATOM      8  C   UNL     1      -1.825  -6.994  -8.943  0.00  0.00    +0.109 A 
ATOM      9  C   UNL     1      -2.221  -5.858  -8.261  0.00  0.00    +0.030 A 
ATOM     10  C   UNL     1      -1.319  -5.178  -7.466  0.00  0.00    +0.025 A 
BRANCH   8  11
ATOM     11  S   UNL     1      -2.981  -7.863  -9.950  0.00  0.00    +0.073 S 
ATOM     12  O   UNL     1      -3.985  -6.927 -10.315  0.00  0.00    -0.150 OA
ATOM     13  O   UNL     1      -2.221  -8.581 -10.913  0.00  0.00    -0.150 OA
BRANCH  11  14
ATOM     14  N   UNL     1      -3.715  -8.994  -8.988  0.00  0.00    -0.199 N 
ATOM     15  C   UNL     1      -4.516  -8.589  -7.927  0.00  0.00    +0.138 A 
ATOM     16  C   UNL     1      -5.126  -9.544  -7.120  0.00  0.00    +0.045 A 
ATOM     17  C   UNL     1      -5.920  -9.127  -6.067  0.00  0.00    +0.005 A 
ATOM     18  C   UNL     1      -6.080  -7.764  -5.857  0.00  0.00    +0.020 A 
ATOM     19  C   UNL     1      -5.446  -6.871  -6.697  0.00  0.00    +0.113 A 
ATOM     20  N   UNL     1      -4.689  -7.298  -7.690  0.00  0.00    -0.239 NA
ATOM     21  H   UNL     1      -3.586  -9.939  -9.165  0.00  0.00    +0.175 HD
ENDBRANCH  11  14
ENDBRANCH   8  11
ENDBRANCH   3   5
BRANCH   1  22
ATOM     22  C   UNL     1       1.505  -3.702  -4.505  0.00  0.00    +0.097 C 
BRANCH  22  23
ATOM     23  C   UNL     1       0.784  -3.120  -3.287  0.00  0.00    +0.029 C 
BRANCH  23  24
ATOM     24  C   UNL     1       1.805  -2.457  -2.360  0.00  0.00    +0.117 C 
BRANCH  24  35
ATOM     25  C   UNL     1      -0.037   1.526   0.007  0.00  0.00    +0.021 C 
ATOM     26  C   UNL     1      -0.006  -0.003   0.000  0.00  0.00    +0.051 C 
ATOM     27  C   UNL     1      -1.414  -0.640   0.094  0.00  0.00    +0.017 C 
ATOM     28  C   UNL     1      -1.225  -1.984   0.822  0.00  0.00    +0.014 C 
ATOM     29  C   UNL     1       0.288  -2.091   1.132  0.00  0.00    +0.082 C 
ATOM     30  C   UNL     1       0.737  -0.606   1.226  0.00  0.00    -0.010 C 
ATOM     31  C   UNL     1       0.260   0.034   2.531  0.00  0.00    +0.012 C 
ATOM     32  C   UNL     1       2.253  -0.475   1.072  0.00  0.00    +0.012 C 
ATOM     33  C   UNL     1       0.952  -2.671  -0.104  0.00  0.00    +0.225 C 
ATOM     34  O   UNL     1       1.332  -3.822  -0.110  0.00  0.00    -0.275 OA
ATOM     35  N   UNL     1       1.115  -1.899  -1.194  0.00  0.00    -0.241 N 
ATOM     36  C   UNL     1       0.679  -0.578  -1.226  0.00  0.00    +0.228 C 
ATOM     37  O   UNL     1       0.804   0.096  -2.227  0.00  0.00    -0.275 OA
ENDBRANCH  24  35
ENDBRANCH  23  24
ENDBRANCH  22  23
ENDBRANCH   1  22
TORSDOF 7
