REMARK  Name = ZINC36316052
REMARK  19 active torsions:
REMARK  status: ('A' for Active; 'I' for Inactive)
REMARK    1  A    between atoms: C_1  and  C_2
REMARK    2  A    between atoms: C_2  and  C_3
REMARK    3  A    between atoms: C_3  and  N_4
REMARK    4  A    between atoms: N_4  and  C_5
REMARK    5  A    between atoms: N_4  and  C_26
REMARK    6  A    between atoms: C_5  and  C_6
REMARK    7  A    between atoms: C_7  and  C_20
REMARK    8  A    between atoms: N_9  and  C_19
REMARK    9  A    between atoms: C_10  and  O_11
REMARK   10  A    between atoms: O_11  and  C_12
REMARK   11  A    between atoms: C_15  and  C_18
REMARK   12  A    between atoms: C_26  and  C_27
REMARK   13  A    between atoms: C_27  and  C_29
REMARK   14  A    between atoms: C_27  and  O_35
REMARK   15  A    between atoms: C_29  and  O_30
REMARK   16  A    between atoms: O_30  and  C_31
REMARK   17  A    between atoms: C_31  and  C_32
REMARK   18  A    between atoms: C_32  and  C_33
REMARK   19  A    between atoms: C_32  and  C_34
REMARK                            x       y       z     vdW  Elec       q    Type
REMARK                         _______ _______ _______ _____ _____    ______ ____
ROOT
ATOM      1  C   UNL     1       3.170  -1.973  -0.921  0.00  0.00    +0.025 A 
ATOM      2  C   UNL     1       3.746  -0.733  -1.256  0.00  0.00    +0.098 A 
ATOM      3  N   UNL     1       4.918  -0.653  -0.662  0.00  0.00    -0.168 NA
ATOM      4  N   UNL     1       5.124  -1.832   0.065  0.00  0.00    -0.235 N 
ATOM      5  C   UNL     1       4.035  -2.626  -0.104  0.00  0.00    +0.221 A 
ATOM      6  C   UNL     1       6.305  -2.151   0.871  0.00  0.00    +0.176 C 
ENDROOT
BRANCH   2   7
ATOM      7  C   UNL     1       3.138   0.304  -2.126  0.00  0.00    +0.002 A 
ATOM      8  C   UNL     1       3.199   1.647  -1.762  0.00  0.00    +0.010 A 
ATOM      9  C   UNL     1       2.632   2.607  -2.575  0.00  0.00    +0.001 A 
ATOM     10  C   UNL     1       2.004   2.237  -3.751  0.00  0.00    +0.000 A 
ATOM     11  C   UNL     1       1.940   0.905  -4.118  0.00  0.00    +0.001 A 
ATOM     12  C   UNL     1       2.509  -0.062  -3.314  0.00  0.00    +0.010 A 
ENDBRANCH   2   7
BRANCH   1  13
ATOM     13  C   UNL     1       1.829  -2.482  -1.383  0.00  0.00    -0.035 C 
BRANCH  13  14
ATOM     14  N   UNL     1       0.821  -2.216  -0.348  0.00  0.00    +0.384 N 
ATOM     15  H   UNL     1       1.104  -2.651   0.517  0.00  0.00    -0.081 HD
BRANCH  14  16
ATOM     16  C   UNL     1       0.696  -0.766  -0.148  0.00  0.00    -0.079 C 
BRANCH  16  18
ATOM     17  C   UNL     1      -0.270   1.010   1.320  0.00  0.00    +0.002 C 
ATOM     18  C   UNL     1      -0.242  -0.492   1.029  0.00  0.00    -0.022 C 
ENDBRANCH  16  18
ENDBRANCH  14  16
BRANCH  14  19
ATOM     19  C   UNL     1      -0.474  -2.765  -0.772  0.00  0.00    -0.044 C 
BRANCH  19  20
ATOM     20  C   UNL     1      -0.392  -4.292  -0.811  0.00  0.00    +0.124 C 
BRANCH  20  21
ATOM     21  O   UNL     1       0.476  -4.696  -1.872  0.00  0.00    -0.391 OA
ATOM     22  H   UNL     1       0.189  -4.403  -2.748  0.00  0.00    +0.210 HD
ENDBRANCH  20  21
BRANCH  20  23
ATOM     23  C   UNL     1      -1.788  -4.872  -1.046  0.00  0.00    +0.189 C 
BRANCH  23  24
ATOM     24  O   UNL     1      -1.731  -6.298  -0.966  0.00  0.00    -0.377 OA
BRANCH  24  25
ATOM     25  C   UNL     1      -2.989  -6.942  -1.172  0.00  0.00    +0.163 C 
BRANCH  25  26
ATOM     26  C   UNL     1      -2.810  -8.458  -1.065  0.00  0.00    +0.009 C 
ATOM     27  C   UNL     1      -4.176  -9.141  -1.161  0.00  0.00    +0.009 C 
ATOM     28  C   UNL     1      -1.914  -8.947  -2.205  0.00  0.00    +0.009 C 
ENDBRANCH  25  26
ENDBRANCH  24  25
ENDBRANCH  23  24
ENDBRANCH  20  23
ENDBRANCH  19  20
ENDBRANCH  14  19
ENDBRANCH  13  14
ENDBRANCH   1  13
BRANCH   5  29
ATOM     29  O   UNL     1       3.848  -3.854   0.443  0.00  0.00    -0.438 OA
BRANCH  29  30
ATOM     30  C   UNL     1       4.349  -4.930  -0.217  0.00  0.00    +0.130 A 
ATOM     31  C   UNL     1       5.125  -4.749  -1.353  0.00  0.00    +0.046 A 
ATOM     32  C   UNL     1       5.634  -5.845  -2.022  0.00  0.00    +0.007 A 
ATOM     33  C   UNL     1       5.372  -7.122  -1.560  0.00  0.00    -0.050 A 
ATOM     34  C   UNL     1       4.599  -7.305  -0.428  0.00  0.00    +0.007 A 
ATOM     35  C   UNL     1       4.092  -6.212   0.248  0.00  0.00    +0.046 A 
ATOM     36  C   UNL     1       5.929  -8.316  -2.292  0.00  0.00    +0.044 C 
ENDBRANCH  29  30
ENDBRANCH   5  29
TORSDOF 14
