REMARK  Name = ZINC21755132
REMARK  10 active torsions:
REMARK  status: ('A' for Active; 'I' for Inactive)
REMARK    1  A    between atoms: C_1  and  N_2
REMARK    2  A    between atoms: N_2  and  C_3
REMARK    3  A    between atoms: N_2  and  C_4
REMARK    4  A    between atoms: C_7  and  C_10
REMARK    5  A    between atoms: C_10  and  C_12
REMARK    6  A    between atoms: C_10  and  N_27
REMARK    7  A    between atoms: C_12  and  N_13
REMARK    8  A    between atoms: N_13  and  S_14
REMARK    9  A    between atoms: S_14  and  C_17
REMARK   10  A    between atoms: N_30  and  C_33
REMARK                            x       y       z     vdW  Elec       q    Type
REMARK                         _______ _______ _______ _____ _____    ______ ____
ROOT
ATOM      1  C   UNL     1      -0.022  -0.028  -0.079  0.00  0.00    +0.102 C 
ENDROOT
BRANCH   1   5
ATOM      2  C   UNL     1       0.485   4.184  -0.600  0.00  0.00    +0.029 A 
ATOM      3  C   UNL     1       1.596   3.361  -0.455  0.00  0.00    +0.023 A 
ATOM      4  C   UNL     1       1.428   2.001  -0.286  0.00  0.00    +0.007 A 
ATOM      5  C   UNL     1       0.157   1.457  -0.262  0.00  0.00    -0.029 A 
ATOM      6  C   UNL     1      -0.950   2.272  -0.412  0.00  0.00    +0.007 A 
ATOM      7  C   UNL     1      -0.790   3.634  -0.575  0.00  0.00    +0.023 A 
BRANCH   2   9
ATOM      8  C   UNL     1       1.996   6.123  -0.917  0.00  0.00    +0.129 C 
ATOM      9  N   UNL     1       0.651   5.560  -0.770  0.00  0.00    -0.336 N 
ATOM     10  C   UNL     1      -0.519   6.440  -0.803  0.00  0.00    +0.129 C 
ENDBRANCH   2   9
ENDBRANCH   1   5
BRANCH   1  11
ATOM     11  N   UNL     1      -1.092  -0.275   0.897  0.00  0.00    -0.291 NA
ATOM     12  C   UNL     1      -0.794  -1.458   1.717  0.00  0.00    +0.104 C 
ATOM     13  C   UNL     1      -1.890  -1.634   2.771  0.00  0.00    +0.120 C 
ATOM     14  N   UNL     1      -3.191  -1.775   2.102  0.00  0.00    -0.327 N 
ATOM     15  C   UNL     1      -3.489  -0.593   1.282  0.00  0.00    +0.120 C 
ATOM     16  C   UNL     1      -2.393  -0.416   0.228  0.00  0.00    +0.104 C 
BRANCH  14  17
ATOM     17  C   UNL     1      -4.209  -2.011   3.030  0.00  0.00    +0.030 A 
ATOM     18  C   UNL     1      -5.310  -1.166   3.084  0.00  0.00    +0.026 A 
ATOM     19  C   UNL     1      -6.317  -1.403   3.999  0.00  0.00    +0.040 A 
ATOM     20  C   UNL     1      -6.224  -2.476   4.870  0.00  0.00    +0.124 A 
ATOM     21  C   UNL     1      -5.125  -3.316   4.821  0.00  0.00    +0.040 A 
ATOM     22  C   UNL     1      -4.118  -3.086   3.904  0.00  0.00    +0.026 A 
ATOM     23  F   UNL     1      -7.208  -2.703   5.767  0.00  0.00    -0.205 F 
ENDBRANCH  14  17
ENDBRANCH   1  11
BRANCH   1  24
ATOM     24  C   UNL     1      -0.396  -0.666  -1.418  0.00  0.00    +0.129 C 
BRANCH  24  25
ATOM     25  N   UNL     1      -0.561  -2.111  -1.241  0.00  0.00    -0.188 NA
ATOM     26  H   UNL     1       0.009  -2.639  -0.462  0.00  0.00    +0.148 HD
BRANCH  25  27
ATOM     27  S   UNL     1      -1.407  -2.991  -2.360  0.00  0.00    +0.058 S 
ATOM     28  O   UNL     1      -1.367  -4.344  -1.928  0.00  0.00    -0.153 OA
ATOM     29  O   UNL     1      -2.627  -2.298  -2.583  0.00  0.00    -0.153 OA
BRANCH  27  30
ATOM     30  C   UNL     1      -0.503  -2.918  -3.871  0.00  0.00    +0.106 A 
ATOM     31  C   UNL     1      -0.769  -1.897  -4.782  0.00  0.00    +0.029 A 
ATOM     32  C   UNL     1      -0.085  -1.809  -5.955  0.00  0.00    +0.010 A 
ATOM     33  C   UNL     1       0.896  -2.768  -6.262  0.00  0.00    -0.018 A 
ATOM     34  C   UNL     1       1.617  -2.713  -7.467  0.00  0.00    +0.008 A 
ATOM     35  C   UNL     1       2.561  -3.659  -7.730  0.00  0.00    +0.001 A 
ATOM     36  C   UNL     1       2.822  -4.683  -6.822  0.00  0.00    +0.001 A 
ATOM     37  C   UNL     1       2.143  -4.768  -5.645  0.00  0.00    +0.008 A 
ATOM     38  C   UNL     1       1.162  -3.809  -5.338  0.00  0.00    -0.016 A 
ATOM     39  C   UNL     1       0.440  -3.864  -4.134  0.00  0.00    +0.037 A 
ENDBRANCH  27  30
ENDBRANCH  25  27
ENDBRANCH  24  25
ENDBRANCH   1  24
TORSDOF 8
