REMARK  Name = ZINC33514599
REMARK  6 active torsions:
REMARK  status: ('A' for Active; 'I' for Inactive)
REMARK    1  A    between atoms: C_4  and  C_7
REMARK    2  A    between atoms: C_9  and  C_28
REMARK    3  A    between atoms: N_10  and  C_12
REMARK    4  A    between atoms: C_15  and  C_18
REMARK    5  A    between atoms: N_20  and  N_21
REMARK    6  A    between atoms: N_21  and  C_22
REMARK                            x       y       z     vdW  Elec       q    Type
REMARK                         _______ _______ _______ _____ _____    ______ ____
ROOT
ATOM      1  C   UNL     1       3.443   0.770  -0.415  0.00  0.00    +0.066 A 
ATOM      2  C   UNL     1       4.265  -0.217   0.119  0.00  0.00    +0.028 A 
ATOM      3  C   UNL     1       5.623  -0.181  -0.105  0.00  0.00    +0.015 A 
ATOM      4  C   UNL     1       6.177   0.856  -0.861  0.00  0.00    +0.038 A 
ATOM      5  C   UNL     1       5.350   1.849  -1.391  0.00  0.00    +0.015 A 
ATOM      6  C   UNL     1       3.992   1.804  -1.168  0.00  0.00    +0.028 A 
ENDROOT
BRANCH   1  10
ATOM      7  C   UNL     1       0.018   1.381   0.303  0.00  0.00    +0.094 A 
ATOM      8  C   UNL     1      -0.007   0.008   0.004  0.00  0.00    +0.058 A 
ATOM      9  C   UNL     1       1.267  -0.376  -0.298  0.00  0.00    +0.075 A 
ATOM     10  N   UNL     1       2.066   0.728  -0.190  0.00  0.00    -0.232 N 
ATOM     11  N   UNL     1       1.258   1.809   0.187  0.00  0.00    -0.166 NA
BRANCH   7  15
ATOM     12  C   UNL     1      -3.341   3.754   1.383  0.00  0.00    +0.000 A 
ATOM     13  C   UNL     1      -2.087   4.332   1.303  0.00  0.00    +0.001 A 
ATOM     14  C   UNL     1      -0.993   3.566   0.954  0.00  0.00    +0.010 A 
ATOM     15  C   UNL     1      -1.154   2.209   0.681  0.00  0.00    +0.002 A 
ATOM     16  C   UNL     1      -2.421   1.634   0.757  0.00  0.00    +0.010 A 
ATOM     17  C   UNL     1      -3.507   2.408   1.113  0.00  0.00    +0.001 A 
ENDBRANCH   7  15
BRANCH   9  18
ATOM     18  C   UNL     1       1.703  -1.739  -0.674  0.00  0.00    +0.000 A 
ATOM     19  C   UNL     1       2.841  -1.917  -1.462  0.00  0.00    +0.010 A 
ATOM     20  C   UNL     1       3.246  -3.191  -1.804  0.00  0.00    +0.001 A 
ATOM     21  C   UNL     1       2.520  -4.289  -1.378  0.00  0.00    +0.000 A 
ATOM     22  C   UNL     1       1.389  -4.119  -0.601  0.00  0.00    +0.001 A 
ATOM     23  C   UNL     1       0.976  -2.850  -0.247  0.00  0.00    +0.010 A 
ENDBRANCH   9  18
ENDBRANCH   1  10
BRANCH   4  24
ATOM     24  C   UNL     1       7.634   0.902  -1.098  0.00  0.00    +0.260 C 
ATOM     25  O   UNL     1       8.115   1.804  -1.755  0.00  0.00    -0.269 OA
ATOM     26  N   UNL     1       8.430  -0.057  -0.586  0.00  0.00    -0.232 N 
ATOM     27  H   UNL     1       7.995  -0.874   0.009  0.00  0.00    +0.173 HD
BRANCH  26  28
ATOM     28  N   UNL     1       9.812  -0.014  -0.811  0.00  0.00    -0.264 N 
ATOM     29  H   UNL     1      10.248   0.803  -1.405  0.00  0.00    +0.170 HD
BRANCH  28  30
ATOM     30  C   UNL     1      10.638  -1.007  -0.280  0.00  0.00    +0.044 A 
ATOM     31  C   UNL     1      10.091  -2.036   0.476  0.00  0.00    +0.024 A 
ATOM     32  C   UNL     1      10.910  -3.020   0.996  0.00  0.00    +0.002 A 
ATOM     33  C   UNL     1      12.274  -2.975   0.773  0.00  0.00    +0.000 A 
ATOM     34  C   UNL     1      12.822  -1.950   0.025  0.00  0.00    +0.002 A 
ATOM     35  C   UNL     1      12.009  -0.966  -0.502  0.00  0.00    +0.024 A 
ENDBRANCH  28  30
ENDBRANCH  26  28
ENDBRANCH   4  24
TORSDOF 6
