REMARK  Name = ZINC18106908
REMARK  8 active torsions:
REMARK  status: ('A' for Active; 'I' for Inactive)
REMARK    1  A    between atoms: C_1  and  O_2
REMARK    2  A    between atoms: O_2  and  C_3
REMARK    3  A    between atoms: C_5  and  C_13
REMARK    4  A    between atoms: C_7  and  O_11
REMARK    5  A    between atoms: C_8  and  O_9
REMARK    6  A    between atoms: O_9  and  C_10
REMARK    7  A    between atoms: O_11  and  C_12
REMARK    8  A    between atoms: C_18  and  C_28
REMARK                            x       y       z     vdW  Elec       q    Type
REMARK                         _______ _______ _______ _____ _____    ______ ____
ROOT
ATOM      1  C   UNL     1       2.452   0.892  -0.431  0.00  0.00    +0.032 C 
ATOM      2  C   UNL     1       3.155   1.381   0.834  0.00  0.00    +0.059 C 
ATOM      3  C   UNL     1       4.506   0.697   0.971  0.00  0.00    +0.017 C 
ATOM      4  C   UNL     1       5.215   0.369  -0.121  0.00  0.00    +0.036 C 
ATOM      5  C   UNL     1       6.574  -0.290  -0.131  0.00  0.00    +0.136 C 
ATOM      6  N   UNL     1       6.996  -0.811   1.153  0.00  0.00    -0.331 N 
ATOM      7  C   UNL     1       7.229   0.038   2.233  0.00  0.00    +0.049 A 
ATOM      8  C   UNL     1       8.505   0.228   2.741  0.00  0.00    +0.025 A 
ATOM      9  C   UNL     1       8.706   1.162   3.743  0.00  0.00    +0.002 A 
ATOM     10  C   UNL     1       7.645   1.900   4.235  0.00  0.00    +0.002 A 
ATOM     11  C   UNL     1       6.366   1.697   3.745  0.00  0.00    +0.025 A 
ATOM     12  C   UNL     1       6.161   0.752   2.755  0.00  0.00    +0.052 A 
ATOM     13  N   UNL     1       4.897   0.467   2.250  0.00  0.00    -0.316 N 
ATOM     14  C   UNL     1       4.696   0.626  -1.412  0.00  0.00    +0.163 C 
ATOM     15  O   UNL     1       5.369   0.338  -2.382  0.00  0.00    -0.292 OA
ATOM     16  C   UNL     1       3.345   1.241  -1.627  0.00  0.00    +0.088 C 
ATOM     17  H   UNL     1       7.119  -1.767   1.262  0.00  0.00    +0.147 HD
ATOM     18  H   UNL     1       4.248   0.076   2.856  0.00  0.00    +0.152 HD
ENDROOT
BRANCH   1  21
ATOM     19  C   UNL     1      -1.272   1.458  -0.734  0.00  0.00    +0.165 A 
ATOM     20  C   UNL     1      -0.044   0.830  -0.598  0.00  0.00    +0.053 A 
ATOM     21  C   UNL     1       1.118   1.579  -0.572  0.00  0.00    -0.036 A 
ATOM     22  C   UNL     1       1.060   2.956  -0.674  0.00  0.00    +0.053 A 
ATOM     23  C   UNL     1      -0.165   3.592  -0.805  0.00  0.00    +0.165 A 
ATOM     24  C   UNL     1      -1.336   2.843  -0.832  0.00  0.00    +0.204 A 
BRANCH  19  26
ATOM     25  C   UNL     1      -2.274  -0.697  -0.655  0.00  0.00    +0.277 C 
ATOM     26  O   UNL     1      -2.414   0.721  -0.766  0.00  0.00    -0.491 OA
ENDBRANCH  19  26
BRANCH  24  27
ATOM     27  O   UNL     1      -2.540   3.464  -0.961  0.00  0.00    -0.488 OA
ATOM     28  C   UNL     1      -3.026   3.669  -2.289  0.00  0.00    +0.277 C 
ENDBRANCH  24  27
BRANCH  23  29
ATOM     29  O   UNL     1      -0.222   4.947  -0.906  0.00  0.00    -0.491 OA
ATOM     30  C   UNL     1       1.020   5.653  -0.870  0.00  0.00    +0.277 C 
ENDBRANCH  23  29
ENDBRANCH   1  21
BRANCH   5  31
ATOM     31  C   UNL     1       7.590   0.723  -0.593  0.00  0.00    -0.020 A 
ATOM     32  C   UNL     1       7.877   1.841   0.175  0.00  0.00    +0.025 A 
ATOM     33  C   UNL     1       8.818   2.746  -0.279  0.00  0.00    +0.111 A 
ATOM     34  N   UNL     1       9.431   2.561  -1.431  0.00  0.00    -0.263 NA
ATOM     35  C   UNL     1       9.180   1.511  -2.189  0.00  0.00    +0.111 A 
ATOM     36  C   UNL     1       8.255   0.561  -1.798  0.00  0.00    +0.025 A 
ENDBRANCH   5  31
TORSDOF 5
