REMARK  Name = ZINC01747710
REMARK  5 active torsions:
REMARK  status: ('A' for Active; 'I' for Inactive)
REMARK    1  A    between atoms: C_5  and  C_7
REMARK    2  A    between atoms: C_13  and  O_28
REMARK    3  A    between atoms: C_14  and  C_22
REMARK    4  A    between atoms: C_17  and  C_18
REMARK    5  A    between atoms: C_22  and  N_49
REMARK                            x       y       z     vdW  Elec       q    Type
REMARK                         _______ _______ _______ _____ _____    ______ ____
ROOT
ATOM      1  C   UNL     1      -3.796  -0.790  -2.833  0.00  0.00    +0.078 A 
ATOM      2  C   UNL     1      -3.501   0.490  -3.499  0.00  0.00    +0.201 A 
ATOM      3  O   UNL     1      -4.117   0.853  -4.487  0.00  0.00    -0.286 OA
ATOM      4  C   UNL     1      -2.424   1.310  -2.915  0.00  0.00    +0.065 A 
ATOM      5  C   UNL     1      -2.068   2.539  -3.472  0.00  0.00    +0.019 A 
ATOM      6  C   UNL     1      -1.066   3.274  -2.905  0.00  0.00    +0.046 A 
ATOM      7  C   UNL     1      -0.399   2.802  -1.776  0.00  0.00    +0.122 A 
ATOM      8  C   UNL     1      -0.742   1.585  -1.213  0.00  0.00    +0.020 A 
ATOM      9  C   UNL     1      -1.755   0.823  -1.779  0.00  0.00    +0.144 A 
ATOM     10  O   UNL     1      -2.104  -0.362  -1.240  0.00  0.00    -0.450 OA
ATOM     11  C   UNL     1      -3.072  -1.137  -1.737  0.00  0.00    +0.219 A 
ENDROOT
BRANCH   1  16
ATOM     12  C   UNL     1      -5.555  -3.485  -4.776  0.00  0.00    +0.001 A 
ATOM     13  C   UNL     1      -6.852  -3.350  -4.313  0.00  0.00    +0.001 A 
ATOM     14  C   UNL     1      -7.159  -2.386  -3.370  0.00  0.00    +0.020 A 
ATOM     15  C   UNL     1      -6.170  -1.551  -2.885  0.00  0.00    +0.049 A 
ATOM     16  C   UNL     1      -4.862  -1.683  -3.349  0.00  0.00    +0.008 A 
ATOM     17  C   UNL     1      -4.560  -2.654  -4.302  0.00  0.00    +0.010 A 
ATOM     18 CL   UNL     1      -6.557  -0.340  -1.703  0.00  0.00    -0.083 Cl
ENDBRANCH   1  16
BRANCH  11  19
ATOM     19  C   UNL     1      -3.374  -2.446  -1.054  0.00  0.00    +0.451 C 
ATOM     20  F   UNL     1      -2.587  -3.457  -1.616  0.00  0.00    -0.163 F 
ATOM     21  F   UNL     1      -3.088  -2.337   0.311  0.00  0.00    -0.163 F 
ATOM     22  F   UNL     1      -4.727  -2.759  -1.224  0.00  0.00    -0.163 F 
ENDBRANCH  11  19
BRANCH   7  23
ATOM     23  O   UNL     1       0.595   3.543  -1.224  0.00  0.00    -0.506 OA
ATOM     24  H   UNL     1       1.473   3.352  -1.581  0.00  0.00    +0.292 HD
ENDBRANCH   7  23
BRANCH   8  25
ATOM     25  C   UNL     1      -0.013   1.086   0.008  0.00  0.00    -0.036 C 
BRANCH  25  31
ATOM     26  C   UNL     1      -0.620   3.022   1.329  0.00  0.00    -0.078 C 
ATOM     27  C   UNL     1      -1.466   3.491   2.514  0.00  0.00    -0.019 C 
ATOM     28  C   UNL     1      -0.950   2.833   3.797  0.00  0.00    -0.004 C 
ATOM     29  C   UNL     1      -0.998   1.311   3.635  0.00  0.00    -0.019 C 
ATOM     30  C   UNL     1      -0.165   0.905   2.417  0.00  0.00    -0.078 C 
ATOM     31  N   UNL     1      -0.729   1.552   1.213  0.00  0.00    +0.383 N 
ATOM     32  H   UNL     1      -1.720   1.296   1.131  0.00  0.00    -0.081 HD
ENDBRANCH  25  31
ENDBRANCH   8  25
TORSDOF 5
