REMARK  Name = ZINC35008397
REMARK  9 active torsions:
REMARK  status: ('A' for Active; 'I' for Inactive)
REMARK    1  A    between atoms: C_1  and  C_2
REMARK    2  A    between atoms: C_2  and  C_3
REMARK    3  A    between atoms: C_3  and  C_5
REMARK    4  A    between atoms: C_3  and  N_17
REMARK    5  A    between atoms: N_15  and  C_16
REMARK    6  A    between atoms: N_17  and  C_18
REMARK    7  A    between atoms: C_18  and  C_19
REMARK    8  A    between atoms: C_24  and  C_26
REMARK    9  A    between atoms: C_29  and  C_32
REMARK                            x       y       z     vdW  Elec       q    Type
REMARK                         _______ _______ _______ _____ _____    ______ ____
ROOT
ATOM      1  N   UNL     1      -1.701  -0.988  -0.872  0.00  0.00    -0.280 N 
ATOM      2  C   UNL     1      -2.499   0.097  -0.935  0.00  0.00    +0.248 C 
ATOM      3  O   UNL     1      -2.514   0.782  -1.939  0.00  0.00    -0.270 OA
ENDROOT
BRANCH   2   4
ATOM      4  C   UNL     1      -3.356   0.452   0.216  0.00  0.00    +0.037 A 
ATOM      5  C   UNL     1      -2.922   0.196   1.518  0.00  0.00    +0.013 A 
ATOM      6  C   UNL     1      -3.727   0.530   2.588  0.00  0.00    +0.004 A 
ATOM      7  C   UNL     1      -4.960   1.119   2.372  0.00  0.00    -0.050 A 
ATOM      8  C   UNL     1      -5.396   1.375   1.085  0.00  0.00    +0.004 A 
ATOM      9  C   UNL     1      -4.599   1.051   0.006  0.00  0.00    +0.013 A 
ATOM     10  C   UNL     1      -5.833   1.481   3.546  0.00  0.00    +0.044 C 
ENDBRANCH   2   4
BRANCH   1  11
ATOM     11  C   UNL     1      -1.594  -1.747   0.376  0.00  0.00    +0.143 C 
BRANCH  11  12
ATOM     12  C   UNL     1      -2.961  -1.894   0.993  0.00  0.00    +0.133 A 
ATOM     13  N   UNL     1      -3.977  -2.071   0.204  0.00  0.00    -0.232 NA
ATOM     14  C   UNL     1      -5.237  -2.212   0.687  0.00  0.00    +0.078 A 
ATOM     15  C   UNL     1      -6.330  -2.402  -0.161  0.00  0.00    +0.028 A 
ATOM     16  C   UNL     1      -7.591  -2.541   0.372  0.00  0.00    +0.002 A 
ATOM     17  C   UNL     1      -7.792  -2.493   1.746  0.00  0.00    +0.001 A 
ATOM     18  C   UNL     1      -6.729  -2.306   2.603  0.00  0.00    +0.015 A 
ATOM     19  C   UNL     1      -5.445  -2.164   2.083  0.00  0.00    +0.065 A 
ATOM     20  C   UNL     1      -4.273  -1.963   2.949  0.00  0.00    +0.262 A 
ATOM     21  O   UNL     1      -4.383  -1.912   4.160  0.00  0.00    -0.267 OA
ATOM     22  N   UNL     1      -3.067  -1.841   2.346  0.00  0.00    -0.298 N 
ATOM     23  C   UNL     1      -1.865  -1.645   3.161  0.00  0.00    +0.154 C 
ENDBRANCH  11  12
BRANCH  11  25
ATOM     24  C   UNL     1       0.512  -3.049   0.048  0.00  0.00    +0.006 C 
ATOM     25  C   UNL     1      -1.015  -3.132   0.083  0.00  0.00    +0.027 C 
ENDBRANCH  11  25
ENDBRANCH   1  11
BRANCH   1  26
ATOM     26  C   UNL     1      -0.941  -1.407  -2.052  0.00  0.00    +0.183 C 
BRANCH  26  27
ATOM     27  C   UNL     1      -1.883  -1.980  -3.079  0.00  0.00    +0.122 A 
ATOM     28  C   UNL     1      -2.376  -1.325  -4.146  0.00  0.00    +0.046 A 
ATOM     29  C   UNL     1      -3.211  -2.234  -4.834  0.00  0.00    +0.041 A 
ATOM     30  C   UNL     1      -3.179  -3.390  -4.147  0.00  0.00    +0.195 A 
ATOM     31  O   UNL     1      -2.368  -3.232  -3.088  0.00  0.00    -0.466 OA
ENDBRANCH  26  27
ENDBRANCH   1  26
TORSDOF 6
