REMARK  Name = ZINC66410270
REMARK  4 active torsions:
REMARK  status: ('A' for Active; 'I' for Inactive)
REMARK    1  A    between atoms: C_3  and  N_9
REMARK    2  A    between atoms: N_9  and  S_10
REMARK    3  A    between atoms: S_10  and  C_13
REMARK    4  A    between atoms: C_16  and  N_18
REMARK                            x       y       z     vdW  Elec       q    Type
REMARK                         _______ _______ _______ _____ _____    ______ ____
ROOT
ATOM      1  S   UNL     1       5.028   1.319  -0.039  0.00  0.00    +0.098 S 
ATOM      2  O   UNL     1       5.126   0.634   1.202  0.00  0.00    -0.148 OA
ATOM      3  O   UNL     1       5.101   0.646  -1.289  0.00  0.00    -0.148 OA
ENDROOT
BRANCH   1   4
ATOM      4  C   UNL     1       6.305   2.534  -0.046  0.00  0.00    +0.150 A 
ATOM      5  C   UNL     1       6.937   3.113   1.004  0.00  0.00    +0.039 A 
ATOM      6  C   UNL     1       7.920   4.053   0.759  0.00  0.00    +0.042 A 
ATOM      7  C   UNL     1       8.223   4.368  -0.524  0.00  0.00    +0.165 A 
ATOM      8  S   UNL     1       7.106   3.315  -1.436  0.00  0.00    -0.044 S 
BRANCH   7   9
ATOM      9  N   UNL     1       9.223   5.332  -1.037  0.00  0.00    +0.063 N 
ATOM     10  O   UNL     1       9.904   5.964  -0.264  0.00  0.00    -0.126 OA
ATOM     11  O   UNL     1       9.358   5.486  -2.228  0.00  0.00    -0.126 OA
ENDBRANCH   7   9
ENDBRANCH   1   4
BRANCH   1  12
ATOM     12  N   UNL     1       3.583   2.128  -0.021  0.00  0.00    -0.094 NA
BRANCH  12  15
ATOM     13  C   UNL     1      -0.017   1.379   0.010  0.00  0.00    +0.017 A 
ATOM     14  C   UNL     1       1.169   2.088   0.002  0.00  0.00    +0.030 A 
ATOM     15  C   UNL     1       2.381   1.412  -0.013  0.00  0.00    +0.109 A 
ATOM     16  C   UNL     1       2.398   0.021  -0.021  0.00  0.00    +0.149 A 
ATOM     17  C   UNL     1       1.208  -0.683  -0.013  0.00  0.00    +0.055 A 
ATOM     18  C   UNL     1       0.002  -0.004   0.002  0.00  0.00    +0.021 A 
ATOM     19 BR   UNL     1      -1.624  -0.970   0.013  0.00  0.00    -0.050 Br
ATOM     20  F   UNL     1       3.576  -0.641  -0.036  0.00  0.00    -0.203 F 
ENDBRANCH  12  15
ENDBRANCH   1  12
TORSDOF 4
