REMARK  Name = ZINC35995951
REMARK  9 active torsions:
REMARK  status: ('A' for Active; 'I' for Inactive)
REMARK    1  A    between atoms: C_1  and  C_2
REMARK    2  A    between atoms: C_2  and  C_3
REMARK    3  A    between atoms: C_5  and  C_28
REMARK    4  A    between atoms: C_8  and  C_21
REMARK    5  A    between atoms: C_8  and  O_27
REMARK    6  A    between atoms: C_9  and  C_19
REMARK    7  A    between atoms: C_11  and  C_12
REMARK    8  A    between atoms: C_11  and  O_18
REMARK    9  A    between atoms: C_19  and  C_20
REMARK                            x       y       z     vdW  Elec       q    Type
REMARK                         _______ _______ _______ _____ _____    ______ ____
ROOT
ATOM      1  C   UNL     1       1.413  -0.642  -1.713  0.00  0.00    +0.059 C 
ATOM      2  C   UNL     1       2.934  -0.626  -1.888  0.00  0.00    +0.158 C 
ATOM      3  O   UNL     1       3.280  -1.301  -3.099  0.00  0.00    -0.336 OA
ATOM      4  C   UNL     1       2.889  -2.675  -3.132  0.00  0.00    +0.201 C 
ATOM      5  C   UNL     1       1.366  -2.774  -3.007  0.00  0.00    +0.089 C 
ATOM      6  C   UNL     1       0.922  -2.093  -1.709  0.00  0.00    +0.104 C 
ENDROOT
BRANCH   6   7
ATOM      7  C   UNL     1      -0.582  -2.116  -1.615  0.00  0.00    -0.015 A 
ATOM      8  C   UNL     1      -1.303  -0.948  -1.781  0.00  0.00    +0.006 A 
ATOM      9  C   UNL     1      -2.682  -0.969  -1.695  0.00  0.00    +0.000 A 
ATOM     10  C   UNL     1      -3.341  -2.158  -1.443  0.00  0.00    +0.000 A 
ATOM     11  C   UNL     1      -2.620  -3.326  -1.278  0.00  0.00    +0.000 A 
ATOM     12  C   UNL     1      -1.241  -3.306  -1.369  0.00  0.00    +0.006 A 
ENDBRANCH   6   7
BRANCH   4  13
ATOM     13  C   UNL     1       3.327  -3.291  -4.436  0.00  0.00    +0.011 A 
ATOM     14  C   UNL     1       3.553  -2.488  -5.538  0.00  0.00    +0.009 A 
ATOM     15  C   UNL     1       3.955  -3.052  -6.734  0.00  0.00    +0.000 A 
ATOM     16  C   UNL     1       4.130  -4.420  -6.828  0.00  0.00    +0.000 A 
ATOM     17  C   UNL     1       3.905  -5.223  -5.726  0.00  0.00    +0.000 A 
ATOM     18  C   UNL     1       3.507  -4.658  -4.529  0.00  0.00    +0.009 A 
ENDBRANCH   4  13
BRANCH   2  19
ATOM     19  C   UNL     1       3.417   0.800  -1.952  0.00  0.00    -0.018 A 
ATOM     20  C   UNL     1       3.078   1.597  -3.030  0.00  0.00    +0.006 A 
ATOM     21  C   UNL     1       3.521   2.905  -3.090  0.00  0.00    +0.000 A 
ATOM     22  C   UNL     1       4.303   3.417  -2.071  0.00  0.00    +0.000 A 
ATOM     23  C   UNL     1       4.641   2.621  -0.992  0.00  0.00    +0.000 A 
ATOM     24  C   UNL     1       4.194   1.314  -0.931  0.00  0.00    +0.006 A 
ENDBRANCH   2  19
BRANCH   1  26
ATOM     25  C   UNL     1       1.162   1.545  -0.531  0.00  0.00    +0.004 C 
ATOM     26  C   UNL     1       1.044   0.026  -0.387  0.00  0.00    +0.006 C 
ENDBRANCH   1  26
BRANCH   6  27
ATOM     27  O   UNL     1       1.483  -2.785  -0.591  0.00  0.00    -0.383 OA
ATOM     28  H   UNL     1       1.249  -2.402   0.266  0.00  0.00    +0.211 HD
ENDBRANCH   6  27
BRANCH   5  29
ATOM     29  C   UNL     1       0.709  -2.079  -4.200  0.00  0.00    +0.009 C 
ATOM     30  C   UNL     1      -0.747  -2.534  -4.317  0.00  0.00    +0.004 C 
ENDBRANCH   5  29
BRANCH   4  31
ATOM     31  O   UNL     1       3.503  -3.372  -2.046  0.00  0.00    -0.361 OA
ATOM     32  H   UNL     1       4.469  -3.350  -2.061  0.00  0.00    +0.213 HD
ENDBRANCH   4  31
TORSDOF 7
