REMARK  Name = ZINC38903764
REMARK  12 active torsions:
REMARK  status: ('A' for Active; 'I' for Inactive)
REMARK    1  A    between atoms: C_1  and  C_2
REMARK    2  A    between atoms: C_2  and  C_3
REMARK    3  A    between atoms: C_2  and  C_4
REMARK    4  A    between atoms: C_2  and  C_5
REMARK    5  A    between atoms: C_8  and  C_11
REMARK    6  A    between atoms: C_13  and  C_16
REMARK    7  A    between atoms: C_16  and  N_17
REMARK    8  A    between atoms: C_21  and  C_24
REMARK    9  A    between atoms: N_26  and  C_27
REMARK   10  A    between atoms: C_27  and  C_28
REMARK   11  A    between atoms: C_33  and  C_34
REMARK   12  A    between atoms: C_34  and  N_35
REMARK                            x       y       z     vdW  Elec       q    Type
REMARK                         _______ _______ _______ _____ _____    ______ ____
ROOT
ATOM      1  N   UNL     1       6.532  -2.806  -7.025  0.00  0.00    +0.386 N 
ATOM      2  C   UNL     1       5.881  -4.060  -7.423  0.00  0.00    -0.078 C 
ATOM      3  C   UNL     1       6.596  -5.242  -6.765  0.00  0.00    -0.018 C 
ATOM      4  C   UNL     1       8.060  -5.260  -7.215  0.00  0.00    +0.009 C 
ATOM      5  C   UNL     1       8.709  -3.919  -6.862  0.00  0.00    +0.058 C 
ATOM      6  C   UNL     1       7.915  -2.786  -7.516  0.00  0.00    -0.065 C 
ATOM      7  H   UNL     1       6.533  -2.734  -6.019  0.00  0.00    -0.081 HD
ENDROOT
BRANCH   5   8
ATOM      8  C   UNL     1      10.128  -3.898  -7.369  0.00  0.00    +0.215 C 
ATOM      9  O   UNL     1      10.473  -3.057  -8.172  0.00  0.00    -0.276 OA
ATOM     10  N   UNL     1      11.014  -4.814  -6.930  0.00  0.00    -0.311 N 
ATOM     11  H   UNL     1      10.739  -5.486  -6.288  0.00  0.00    +0.149 HD
BRANCH  10  12
ATOM     12  C   UNL     1      12.394  -4.794  -7.423  0.00  0.00    +0.139 C 
BRANCH  12  13
ATOM     13  C   UNL     1      13.173  -5.913  -6.781  0.00  0.00    -0.026 A 
ATOM     14  C   UNL     1      14.042  -5.642  -5.741  0.00  0.00    +0.005 A 
ATOM     15  C   UNL     1      14.757  -6.668  -5.152  0.00  0.00    +0.000 A 
ATOM     16  C   UNL     1      14.602  -7.966  -5.604  0.00  0.00    +0.000 A 
ATOM     17  C   UNL     1      13.732  -8.237  -6.643  0.00  0.00    +0.005 A 
ATOM     18  C   UNL     1      13.014  -7.211  -7.229  0.00  0.00    -0.025 A 
BRANCH  18  19
ATOM     19  C   UNL     1      12.062  -7.507  -8.359  0.00  0.00    +0.143 C 
BRANCH  19  20
ATOM     20  N   UNL     1      12.030  -8.950  -8.605  0.00  0.00    -0.297 N 
ATOM     21  C   UNL     1      12.914  -9.650  -9.544  0.00  0.00    +0.108 C 
ATOM     22  C   UNL     1      12.829 -11.143  -9.156  0.00  0.00    +0.028 C 
ATOM     23  C   UNL     1      11.438 -11.215  -8.484  0.00  0.00    +0.097 C 
ATOM     24  C   UNL     1      11.191  -9.805  -7.995  0.00  0.00    +0.216 C 
ATOM     25  O   UNL     1      10.355  -9.492  -7.175  0.00  0.00    -0.276 OA
ENDBRANCH  19  20
ENDBRANCH  18  19
ENDBRANCH  12  13
ENDBRANCH  10  12
ENDBRANCH   5   8
BRANCH   1  26
ATOM     26  C   UNL     1       5.795  -1.671  -7.596  0.00  0.00    +0.022 C 
BRANCH  26  29
ATOM     27  C   UNL     1       2.761  -1.138  -5.677  0.00  0.00    +0.202 A 
ATOM     28  N   UNL     1       4.073  -0.969  -5.922  0.00  0.00    -0.193 NA
ATOM     29  C   UNL     1       4.413  -1.618  -6.999  0.00  0.00    +0.211 A 
ATOM     30  O   UNL     1       3.326  -2.230  -7.486  0.00  0.00    -0.340 OA
ATOM     31  N   UNL     1       2.257  -1.910  -6.608  0.00  0.00    -0.056 NA
BRANCH  27  35
ATOM     32  C   UNL     1       0.612   0.538  -2.412  0.00  0.00    -0.042 A 
ATOM     33  C   UNL     1      -0.043  -0.263  -3.330  0.00  0.00    +0.005 A 
ATOM     34  C   UNL     1       0.649  -0.810  -4.391  0.00  0.00    +0.012 A 
ATOM     35  C   UNL     1       2.011  -0.553  -4.538  0.00  0.00    +0.022 A 
ATOM     36  C   UNL     1       2.666   0.255  -3.610  0.00  0.00    +0.012 A 
ATOM     37  C   UNL     1       1.962   0.801  -2.556  0.00  0.00    +0.005 A 
BRANCH  32  39
ATOM     38  C   UNL     1      -0.074   2.658  -1.325  0.00  0.00    +0.015 C 
ATOM     39  C   UNL     1      -0.150   1.132  -1.256  0.00  0.00    -0.013 C 
ATOM     40  C   UNL     1       0.464   0.650   0.060  0.00  0.00    +0.015 C 
ATOM     41  C   UNL     1      -1.613   0.690  -1.328  0.00  0.00    +0.015 C 
ENDBRANCH  32  39
ENDBRANCH  27  35
ENDBRANCH  26  29
ENDBRANCH   1  26
TORSDOF 9
