REMARK  Name = ZINC56956944
REMARK  11 active torsions:
REMARK  status: ('A' for Active; 'I' for Inactive)
REMARK    1  A    between atoms: C_1  and  C_2
REMARK    2  A    between atoms: C_2  and  C_3
REMARK    3  A    between atoms: C_2  and  C_4
REMARK    4  A    between atoms: C_4  and  O_5
REMARK    5  A    between atoms: O_5  and  C_6
REMARK    6  A    between atoms: C_10  and  C_12
REMARK    7  A    between atoms: C_12  and  N_13
REMARK    8  A    between atoms: N_16  and  N_17
REMARK    9  A    between atoms: N_17  and  C_18
REMARK   10  A    between atoms: C_18  and  N_20
REMARK   11  A    between atoms: N_20  and  C_21
REMARK                            x       y       z     vdW  Elec       q    Type
REMARK                         _______ _______ _______ _____ _____    ______ ____
ROOT
ATOM      1  N   UNL     1      -4.036  -6.484  -1.778  0.00  0.00    -0.294 N 
ATOM      2  C   UNL     1      -4.101  -7.784  -2.131  0.00  0.00    +0.316 C 
ATOM      3  O   UNL     1      -4.100  -8.647  -1.275  0.00  0.00    -0.251 OA
ATOM      4  N   UNL     1      -4.167  -8.126  -3.433  0.00  0.00    -0.219 N 
ATOM      5  H   UNL     1      -4.037  -5.796  -2.461  0.00  0.00    +0.151 HD
ATOM      6  H   UNL     1      -4.214  -9.060  -3.687  0.00  0.00    +0.174 HD
ENDROOT
BRANCH   4   7
ATOM      7  N   UNL     1      -4.168  -7.131  -4.420  0.00  0.00    -0.245 N 
ATOM      8  H   UNL     1      -4.122  -6.196  -4.165  0.00  0.00    +0.172 HD
BRANCH   7   9
ATOM      9  C   UNL     1      -4.234  -7.473  -5.721  0.00  0.00    +0.147 C 
ATOM     10  S   UNL     1      -4.236  -6.257  -6.927  0.00  0.00    -0.017 S 
BRANCH   9  11
ATOM     11  N   UNL     1      -4.299  -8.772  -6.074  0.00  0.00    -0.323 N 
ATOM     12  H   UNL     1      -4.298  -9.461  -5.391  0.00  0.00    +0.148 HD
BRANCH  11  13
ATOM     13  C   UNL     1      -4.371  -9.144  -7.490  0.00  0.00    +0.072 C 
ATOM     14  C   UNL     1      -5.841  -9.168  -7.956  0.00  0.00    +0.022 C 
ATOM     15  C   UNL     1      -5.909 -10.365  -8.937  0.00  0.00    +0.002 C 
ATOM     16  C   UNL     1      -4.979 -11.408  -8.269  0.00  0.00    +0.002 C 
ATOM     17  C   UNL     1      -3.822 -10.568  -7.689  0.00  0.00    +0.022 C 
ENDBRANCH  11  13
ENDBRANCH   9  11
ENDBRANCH   7   9
ENDBRANCH   4   7
BRANCH   1  18
ATOM     18  C   UNL     1      -3.965  -6.112  -0.363  0.00  0.00    +0.141 C 
BRANCH  18  23
ATOM     19  C   UNL     1      -2.620  -2.590  -0.120  0.00  0.00    +0.121 A 
ATOM     20  C   UNL     1      -3.792  -1.855  -0.015  0.00  0.00    +0.045 A 
ATOM     21  C   UNL     1      -5.013  -2.500  -0.023  0.00  0.00    +0.004 A 
ATOM     22  C   UNL     1      -5.068  -3.877  -0.136  0.00  0.00    +0.005 A 
ATOM     23  C   UNL     1      -3.901  -4.612  -0.240  0.00  0.00    -0.027 A 
ATOM     24  C   UNL     1      -2.678  -3.971  -0.238  0.00  0.00    +0.050 A 
BRANCH  19  25
ATOM     25  O   UNL     1      -1.417  -1.957  -0.112  0.00  0.00    -0.492 OA
BRANCH  25  26
ATOM     26  C   UNL     1      -1.433  -0.534   0.013  0.00  0.00    +0.232 C 
BRANCH  26  28
ATOM     27  C   UNL     1      -0.019   1.526   0.010  0.00  0.00    +0.010 C 
ATOM     28  C   UNL     1       0.002  -0.004   0.002  0.00  0.00    +0.020 C 
ATOM     29  C   UNL     1       0.742  -0.511   1.242  0.00  0.00    +0.010 C 
ENDBRANCH  26  28
ENDBRANCH  25  26
ENDBRANCH  19  25
ENDBRANCH  18  23
ENDBRANCH   1  18
TORSDOF 9
