REMARK  Name = ZINC48717919
REMARK  10 active torsions:
REMARK  status: ('A' for Active; 'I' for Inactive)
REMARK    1  A    between atoms: C_1  and  C_2
REMARK    2  A    between atoms: C_5  and  N_9
REMARK    3  A    between atoms: C_6  and  C_8
REMARK    4  A    between atoms: C_10  and  C_12
REMARK    5  A    between atoms: C_12  and  C_14
REMARK    6  A    between atoms: C_12  and  S_15
REMARK    7  A    between atoms: S_15  and  C_18
REMARK    8  A    between atoms: C_18  and  C_19
REMARK    9  A    between atoms: C_23  and  N_26
REMARK   10  A    between atoms: C_24  and  C_25
REMARK                            x       y       z     vdW  Elec       q    Type
REMARK                         _______ _______ _______ _____ _____    ______ ____
ROOT
ATOM      1  C   UNL     1      -0.395  -6.140  -1.487  0.00  0.00    +0.213 C 
ATOM      2  C   UNL     1      -1.858  -6.567  -1.352  0.00  0.00    +0.042 C 
ENDROOT
BRANCH   1   4
ATOM      3  N   UNL     1      -0.292  -3.901  -0.441  0.00  0.00    -0.284 N 
ATOM      4  C   UNL     1      -0.316  -4.638  -1.569  0.00  0.00    +0.241 C 
ATOM      5  O   UNL     1      -0.274  -4.091  -2.651  0.00  0.00    -0.273 OA
ATOM      6  H   UNL     1      -0.268  -4.339   0.424  0.00  0.00    +0.155 HD
BRANCH   3  11
ATOM      7  C   UNL     1      -0.333   1.764  -0.751  0.00  0.00    +0.044 C 
ATOM      8  C   UNL     1      -0.322   0.259  -0.669  0.00  0.00    -0.050 A 
ATOM      9  C   UNL     1       0.336  -0.480  -1.635  0.00  0.00    +0.005 A 
ATOM     10  C   UNL     1       0.347  -1.859  -1.562  0.00  0.00    +0.024 A 
ATOM     11  C   UNL     1      -0.302  -2.504  -0.517  0.00  0.00    +0.036 A 
ATOM     12  C   UNL     1      -0.961  -1.759   0.451  0.00  0.00    -0.029 A 
ATOM     13  C   UNL     1      -0.965  -0.380   0.376  0.00  0.00    +0.008 A 
ATOM     14  C   UNL     1      -1.667  -2.454   1.587  0.00  0.00    +0.045 C 
ENDBRANCH   3  11
ENDBRANCH   1   4
BRANCH   1  15
ATOM     15  S   UNL     1       0.310  -6.867  -2.992  0.00  0.00    -0.016 S 
ATOM     16  O   UNL     1      -0.441  -6.408  -4.107  0.00  0.00    -0.173 OA
ATOM     17  O   UNL     1       1.716  -6.661  -2.974  0.00  0.00    -0.173 OA
BRANCH  15  18
ATOM     18  C   UNL     1      -0.013  -8.638  -2.772  0.00  0.00    +0.202 C 
BRANCH  18  19
ATOM     19  C   UNL     1       0.521  -9.397  -3.959  0.00  0.00    -0.021 A 
ATOM     20  C   UNL     1      -0.286  -9.617  -5.059  0.00  0.00    +0.005 A 
ATOM     21  C   UNL     1       0.204 -10.314  -6.148  0.00  0.00    +0.003 A 
ATOM     22  C   UNL     1       1.502 -10.790  -6.137  0.00  0.00    +0.033 A 
ATOM     23  C   UNL     1       2.309 -10.570  -5.037  0.00  0.00    +0.129 A 
ATOM     24  C   UNL     1       1.820  -9.869  -3.950  0.00  0.00    -0.016 A 
ATOM     25  C   UNL     1       2.703  -9.624  -2.753  0.00  0.00    +0.046 C 
BRANCH  23  26
ATOM     26  N   UNL     1       3.698 -11.080  -5.024  0.00  0.00    +0.057 N 
ATOM     27  O   UNL     1       4.353 -11.075  -6.041  0.00  0.00    -0.126 OA
ATOM     28  O   UNL     1       4.178 -11.502  -3.998  0.00  0.00    -0.126 OA
ENDBRANCH  23  26
ENDBRANCH  18  19
ENDBRANCH  15  18
ENDBRANCH   1  15
TORSDOF 6
