REMARK  Name = ZINC38878037
REMARK  2 active torsions:
REMARK  status: ('A' for Active; 'I' for Inactive)
REMARK    1  A    between atoms: C_5  and  C_6
REMARK    2  A    between atoms: C_12  and  C_14
REMARK                            x       y       z     vdW  Elec       q    Type
REMARK                         _______ _______ _______ _____ _____    ______ ____
ROOT
ATOM      1  C   UNL     1      -1.126  -0.946   0.008  0.00  0.00    +0.257 A 
ATOM      2  N   UNL     1      -2.402  -0.633   0.017  0.00  0.00    -0.105 NA
ATOM      3  N   UNL     1      -3.106  -1.710   0.019  0.00  0.00    -0.092 NA
ATOM      4  C   UNL     1      -2.311  -2.752   0.013  0.00  0.00    +0.315 A 
ATOM      5  O   UNL     1      -1.044  -2.295   0.000  0.00  0.00    -0.404 OA
ATOM      6  N   UNL     1      -2.703  -4.081   0.014  0.00  0.00    -0.232 N 
ATOM      7  C   UNL     1      -4.013  -4.397   0.022  0.00  0.00    +0.287 C 
ATOM      8  O   UNL     1      -4.852  -3.515   0.028  0.00  0.00    -0.266 OA
ATOM      9  H   UNL     1      -2.034  -4.783   0.009  0.00  0.00    +0.160 HD
ENDROOT
BRANCH   1  14
ATOM     10  C   UNL     1      -0.017   1.378   0.010  0.00  0.00    +0.022 A 
ATOM     11  C   UNL     1       1.185   2.049   0.002  0.00  0.00    +0.024 A 
ATOM     12  C   UNL     1       2.343   1.338  -0.013  0.00  0.00    +0.056 A 
ATOM     13  S   UNL     1       1.754  -0.347  -0.017  0.00  0.00    -0.077 S 
ATOM     14  C   UNL     1       0.002  -0.004   0.002  0.00  0.00    +0.077 A 
ATOM     15 BR   UNL     1       4.124   1.972  -0.027  0.00  0.00    -0.043 Br
ENDBRANCH   1  14
BRANCH   7  16
ATOM     16  C   UNL     1      -4.427  -5.802   0.023  0.00  0.00    +0.191 A 
ATOM     17  C   UNL     1      -5.715  -6.260   0.026  0.00  0.00    +0.056 A 
ATOM     18  C   UNL     1      -5.645  -7.660   0.026  0.00  0.00    +0.058 A 
ATOM     19  C   UNL     1      -4.334  -7.995   0.024  0.00  0.00    +0.171 A 
ATOM     20  O   UNL     1      -3.604  -6.872   0.016  0.00  0.00    -0.444 OA
ATOM     21 BR   UNL     1      -3.646  -9.756   0.023  0.00  0.00    -0.008 Br
ENDBRANCH   7  16
TORSDOF 2
