REMARK  Name = ZINC09781084
REMARK  6 active torsions:
REMARK  status: ('A' for Active; 'I' for Inactive)
REMARK    1  A    between atoms: C_1  and  C_2
REMARK    2  A    between atoms: C_2  and  C_35
REMARK    3  A    between atoms: C_8  and  C_29
REMARK    4  A    between atoms: C_14  and  S_20
REMARK    5  A    between atoms: S_20  and  C_21
REMARK    6  A    between atoms: C_21  and  C_22
REMARK                            x       y       z     vdW  Elec       q    Type
REMARK                         _______ _______ _______ _____ _____    ______ ____
ROOT
ATOM      1  C   UNL     1      -0.019   1.526   0.010  0.00  0.00    +0.011 C 
ATOM      2  C   UNL     1       0.002  -0.004   0.002  0.00  0.00    -0.023 C 
ATOM      3  C   UNL     1       0.743  -0.516   1.242  0.00  0.00    +0.086 C 
ATOM      4  C   UNL     1       2.174  -0.057   1.182  0.00  0.00    +0.162 C 
ATOM      5  O   UNL     1       2.788   0.115   2.217  0.00  0.00    -0.292 OA
ATOM      6  C   UNL     1       2.815   0.176  -0.047  0.00  0.00    +0.024 C 
ATOM      7  H   UNL     1       2.435  -0.148  -3.225  0.00  0.00    +0.153 HD
ATOM      8  C   UNL     1       4.251   0.635  -0.021  0.00  0.00    +0.094 C 
ATOM      9  C   UNL     1       4.654   1.237  -1.334  0.00  0.00    +0.069 A 
ATOM     10  C   UNL     1       5.807   2.048  -1.420  0.00  0.00    +0.280 A 
ATOM     11  O   UNL     1       6.480   2.267  -0.423  0.00  0.00    -0.265 OA
ATOM     12  N   UNL     1       6.160   2.575  -2.602  0.00  0.00    -0.185 NA
ATOM     13  C   UNL     1       5.445   2.351  -3.685  0.00  0.00    +0.172 A 
ATOM     14  N   UNL     1       4.325   1.577  -3.643  0.00  0.00    -0.322 N 
ATOM     15  C   UNL     1       3.923   1.014  -2.460  0.00  0.00    +0.111 A 
ATOM     16  N   UNL     1       2.793   0.233  -2.408  0.00  0.00    -0.304 N 
ATOM     17  C   UNL     1       2.167  -0.012  -1.216  0.00  0.00    +0.017 C 
ATOM     18  C   UNL     1       0.740  -0.501  -1.243  0.00  0.00    +0.058 C 
ATOM     19  C   UNL     1      -1.432  -0.538   0.003  0.00  0.00    +0.011 C 
ATOM     20  H   UNL     1       3.810   1.425  -4.451  0.00  0.00    +0.169 HD
ENDROOT
BRANCH   8  21
ATOM     21  C   UNL     1       5.141  -0.544   0.274  0.00  0.00    -0.017 A 
ATOM     22  C   UNL     1       5.952  -0.548   1.399  0.00  0.00    +0.007 A 
ATOM     23  C   UNL     1       6.755  -1.654   1.631  0.00  0.00    +0.020 A 
ATOM     24  C   UNL     1       6.721  -2.709   0.738  0.00  0.00    +0.111 A 
ATOM     25  N   UNL     1       5.938  -2.671  -0.322  0.00  0.00    -0.263 NA
ATOM     26  C   UNL     1       5.156  -1.638  -0.570  0.00  0.00    +0.115 A 
ENDBRANCH   8  21
BRANCH  13  27
ATOM     27  S   UNL     1       5.947   3.064  -5.216  0.00  0.00    -0.083 S 
BRANCH  27  28
ATOM     28  C   UNL     1       7.451   3.988  -4.798  0.00  0.00    +0.114 C 
BRANCH  28  29
ATOM     29  C   UNL     1       7.991   4.656  -6.037  0.00  0.00    -0.019 A 
ATOM     30  C   UNL     1       8.895   3.990  -6.843  0.00  0.00    +0.006 A 
ATOM     31  C   UNL     1       9.390   4.603  -7.979  0.00  0.00    +0.000 A 
ATOM     32  C   UNL     1       8.982   5.882  -8.309  0.00  0.00    +0.001 A 
ATOM     33  C   UNL     1       8.078   6.548  -7.504  0.00  0.00    +0.020 A 
ATOM     34  C   UNL     1       7.577   5.933  -6.370  0.00  0.00    +0.045 A 
ATOM     35 CL   UNL     1       6.437   6.768  -5.361  0.00  0.00    -0.083 Cl
ENDBRANCH  28  29
ENDBRANCH  27  28
ENDBRANCH  13  27
TORSDOF 4
