REMARK  Name = ZINC22043832
REMARK  4 active torsions:
REMARK  status: ('A' for Active; 'I' for Inactive)
REMARK    1  A    between atoms: C_3  and  C_6
REMARK    2  A    between atoms: C_9  and  S_11
REMARK    3  A    between atoms: S_11  and  C_12
REMARK    4  A    between atoms: C_12  and  C_13
REMARK                            x       y       z     vdW  Elec       q    Type
REMARK                         _______ _______ _______ _____ _____    ______ ____
ROOT
ATOM      1  C   UNL     1      -2.004  -1.832   0.011  0.00  0.00    +0.121 A 
ATOM      2  N   UNL     1      -3.283  -2.289   0.027  0.00  0.00    -0.310 N 
ATOM      3  H   UNL     1      -4.121  -1.576   0.047  0.00  0.00    +0.170 HD
ATOM      4  C   UNL     1      -3.541  -3.617   0.016  0.00  0.00    +0.259 A 
ATOM      5  O   UNL     1      -4.683  -4.040   0.025  0.00  0.00    -0.267 OA
ATOM      6  C   UNL     1      -2.389  -4.530   0.001  0.00  0.00    +0.066 A 
ATOM      7  C   UNL     1      -2.545  -5.915  -0.006  0.00  0.00    +0.035 A 
ATOM      8  C   UNL     1      -1.429  -6.724  -0.021  0.00  0.00    +0.042 A 
ATOM      9  C   UNL     1      -0.155  -6.170  -0.030  0.00  0.00    +0.022 A 
ATOM     10  C   UNL     1       0.020  -4.805  -0.024  0.00  0.00    +0.030 A 
ATOM     11  C   UNL     1      -1.095  -3.964  -0.009  0.00  0.00    +0.078 A 
ATOM     12  N   UNL     1      -0.967  -2.614  -0.003  0.00  0.00    -0.233 NA
ATOM     13 CL   UNL     1      -1.618  -8.450  -0.029  0.00  0.00    -0.084 Cl
ENDROOT
BRANCH   1  14
ATOM     14  C   UNL     1      -1.776  -0.343   0.017  0.00  0.00    +0.153 C 
BRANCH  14  15
ATOM     15  S   UNL     1       0.002  -0.004   0.002  0.00  0.00    -0.058 S 
BRANCH  15  19
ATOM     16  C   UNL     1       0.575   3.834   0.017  0.00  0.00    +0.256 A 
ATOM     17  N   UNL     1      -0.736   3.756   0.029  0.00  0.00    -0.106 NA
ATOM     18  N   UNL     1      -1.090   2.519   0.020  0.00  0.00    -0.101 NA
ATOM     19  C   UNL     1      -0.022   1.758   0.012  0.00  0.00    +0.278 A 
ATOM     20  O   UNL     1       1.054   2.569   0.006  0.00  0.00    -0.410 OA
BRANCH  16  23
ATOM     21  C   UNL     1       1.897   7.379   0.025  0.00  0.00    +0.008 A 
ATOM     22  C   UNL     1       0.947   6.383   0.022  0.00  0.00    +0.021 A 
ATOM     23  C   UNL     1       1.374   5.068   0.017  0.00  0.00    +0.076 A 
ATOM     24  S   UNL     1       3.149   5.260   0.001  0.00  0.00    -0.092 S 
ATOM     25  C   UNL     1       3.213   7.043   0.010  0.00  0.00    +0.046 A 
ENDBRANCH  16  23
ENDBRANCH  15  19
ENDBRANCH  14  15
ENDBRANCH   1  14
TORSDOF 4
