REMARK  Name = ZINC04631383
REMARK  9 active torsions:
REMARK  status: ('A' for Active; 'I' for Inactive)
REMARK    1  A    between atoms: C_1  and  C_2
REMARK    2  A    between atoms: C_5  and  C_8
REMARK    3  A    between atoms: C_9  and  C_14
REMARK    4  A    between atoms: N_15  and  N_16
REMARK    5  A    between atoms: C_17  and  C_19
REMARK    6  A    between atoms: C_22  and  C_25
REMARK    7  A    between atoms: C_25  and  C_26
REMARK    8  A    between atoms: C_25  and  C_27
REMARK    9  A    between atoms: C_25  and  C_28
REMARK                            x       y       z     vdW  Elec       q    Type
REMARK                         _______ _______ _______ _____ _____    ______ ____
ROOT
ATOM      1  C   UNL     1       1.326  -4.638   2.366  0.00  0.00    +0.142 C 
ATOM      2  N   UNL     1       1.517  -3.372   2.576  0.00  0.00    -0.188 NA
ENDROOT
BRANCH   1   4
ATOM      3  C   UNL     1      -0.064  -6.356   0.946  0.00  0.00    +0.101 A 
ATOM      4  C   UNL     1       0.640  -5.086   1.140  0.00  0.00    +0.040 A 
ATOM      5  C   UNL     1       0.536  -4.397  -0.036  0.00  0.00    +0.115 A 
ATOM      6  N   UNL     1      -0.167  -5.152  -0.901  0.00  0.00    -0.284 N 
ATOM      7  H   UNL     1      -0.387  -4.902  -1.812  0.00  0.00    +0.188 HD
ATOM      8  N   UNL     1      -0.524  -6.356  -0.287  0.00  0.00    -0.173 NA
BRANCH   3  13
ATOM      9  C   UNL     1      -0.677 -10.563   4.829  0.00  0.00    +0.044 C 
ATOM     10  C   UNL     1      -0.517  -9.462   3.813  0.00  0.00    -0.050 A 
ATOM     11  C   UNL     1      -1.585  -9.104   3.011  0.00  0.00    +0.004 A 
ATOM     12  C   UNL     1      -1.444  -8.096   2.078  0.00  0.00    +0.010 A 
ATOM     13  C   UNL     1      -0.222  -7.439   1.946  0.00  0.00    +0.003 A 
ATOM     14  C   UNL     1       0.851  -7.804   2.757  0.00  0.00    +0.010 A 
ATOM     15  C   UNL     1       0.697  -8.810   3.690  0.00  0.00    +0.004 A 
ENDBRANCH   3  13
ENDBRANCH   1   4
BRANCH   2  16
ATOM     16  N   UNL     1       0.900  -2.423   1.751  0.00  0.00    -0.207 N 
ATOM     17  C   UNL     1       1.195  -1.116   1.889  0.00  0.00    +0.235 C 
ATOM     18  O   UNL     1       2.050  -0.767   2.676  0.00  0.00    -0.274 OA
ATOM     19  H   UNL     1       0.260  -2.708   1.080  0.00  0.00    +0.177 HD
BRANCH  17  20
ATOM     20  C   UNL     1       0.462  -0.087   1.067  0.00  0.00    +0.077 C 
ATOM     21  C   UNL     1       0.718  -0.346  -0.419  0.00  0.00    +0.013 C 
ATOM     22  C   UNL     1      -0.026   0.699  -1.254  0.00  0.00    +0.005 C 
ATOM     23  C   UNL     1       0.476   2.097  -0.886  0.00  0.00    -0.006 C 
ATOM     24  C   UNL     1       0.220   2.356   0.600  0.00  0.00    +0.005 C 
ATOM     25  C   UNL     1       0.964   1.311   1.435  0.00  0.00    +0.013 C 
BRANCH  23  26
ATOM     26  C   UNL     1      -0.268   3.141  -1.721  0.00  0.00    -0.035 C 
ATOM     27  C   UNL     1      -1.762   3.084  -1.397  0.00  0.00    +0.011 C 
ATOM     28  C   UNL     1       0.272   4.535  -1.393  0.00  0.00    +0.011 C 
ATOM     29  C   UNL     1      -0.057   2.850  -3.208  0.00  0.00    +0.011 C 
ENDBRANCH  23  26
ENDBRANCH  17  20
ENDBRANCH   2  16
TORSDOF 5
