REMARK  Name = ZINC20682643
REMARK  12 active torsions:
REMARK  status: ('A' for Active; 'I' for Inactive)
REMARK    1  A    between atoms: C_1  and  O_2
REMARK    2  A    between atoms: O_2  and  C_3
REMARK    3  A    between atoms: C_5  and  C_13
REMARK    4  A    between atoms: C_7  and  O_11
REMARK    5  A    between atoms: C_8  and  O_9
REMARK    6  A    between atoms: O_9  and  C_10
REMARK    7  A    between atoms: O_11  and  C_12
REMARK    8  A    between atoms: C_24  and  S_29
REMARK    9  A    between atoms: S_29  and  N_32
REMARK   10  A    between atoms: N_32  and  C_33
REMARK   11  A    between atoms: C_33  and  C_34
REMARK   12  A    between atoms: C_34  and  C_35
REMARK                            x       y       z     vdW  Elec       q    Type
REMARK                         _______ _______ _______ _____ _____    ______ ____
ROOT
ATOM      1  C   UNL     1      -0.789   1.955  -1.235  0.00  0.00    +0.105 C 
ATOM      2  C   UNL     1       0.188   1.901  -0.074  0.00  0.00    +0.029 C 
ATOM      3  C   UNL     1       1.598   2.453  -0.318  0.00  0.00    +0.033 C 
ATOM      4  C   UNL     1       2.431   1.609   0.648  0.00  0.00    -0.030 C 
ATOM      5  C   UNL     1       1.827   0.449   0.874  0.00  0.00    -0.023 C 
ATOM      6  C   UNL     1       0.579   0.400   0.070  0.00  0.00    +0.049 C 
ATOM      7  C   UNL     1      -0.618  -0.340   0.528  0.00  0.00    -0.018 A 
ATOM      8  C   UNL     1      -0.539  -1.419   1.381  0.00  0.00    +0.034 A 
ATOM      9  C   UNL     1      -1.686  -2.086   1.770  0.00  0.00    +0.106 A 
ATOM     10  C   UNL     1      -2.919  -1.670   1.303  0.00  0.00    +0.030 A 
ATOM     11  C   UNL     1      -3.009  -0.587   0.453  0.00  0.00    +0.025 A 
ATOM     12  C   UNL     1      -1.863   0.094   0.060  0.00  0.00    +0.031 A 
ATOM     13  N   UNL     1      -1.982   1.203  -0.787  0.00  0.00    -0.336 N 
ATOM     14  H   UNL     1      -2.983   1.512  -1.120  0.00  0.00    +0.147 HD
ENDROOT
BRANCH   1  17
ATOM     15  C   UNL     1       1.133   1.448  -4.450  0.00  0.00    +0.165 A 
ATOM     16  C   UNL     1       0.577   2.047  -3.329  0.00  0.00    +0.055 A 
ATOM     17  C   UNL     1      -0.187   1.300  -2.452  0.00  0.00    -0.020 A 
ATOM     18  C   UNL     1      -0.397  -0.046  -2.685  0.00  0.00    +0.055 A 
ATOM     19  C   UNL     1       0.151  -0.651  -3.807  0.00  0.00    +0.165 A 
ATOM     20  C   UNL     1       0.920   0.096  -4.691  0.00  0.00    +0.204 A 
BRANCH  15  22
ATOM     21  C   UNL     1       2.062   3.567  -5.001  0.00  0.00    +0.277 C 
ATOM     22  O   UNL     1       1.885   2.184  -5.312  0.00  0.00    -0.491 OA
ENDBRANCH  15  22
BRANCH  20  23
ATOM     23  O   UNL     1       1.464  -0.495  -5.789  0.00  0.00    -0.488 OA
ATOM     24  C   UNL     1       2.768  -1.060  -5.643  0.00  0.00    +0.277 C 
ENDBRANCH  20  23
BRANCH  19  25
ATOM     25  O   UNL     1      -0.061  -1.974  -4.038  0.00  0.00    -0.491 OA
ATOM     26  C   UNL     1      -0.862  -2.679  -3.088  0.00  0.00    +0.277 C 
ENDBRANCH  19  25
ENDBRANCH   1  17
BRANCH   9  27
ATOM     27  S   UNL     1      -1.576  -3.464   2.862  0.00  0.00    +0.058 S 
ATOM     28  O   UNL     1      -0.363  -3.314   3.586  0.00  0.00    -0.153 OA
ATOM     29  O   UNL     1      -2.839  -3.574   3.506  0.00  0.00    -0.153 OA
BRANCH  27  30
ATOM     30  N   UNL     1      -1.404  -4.819   1.925  0.00  0.00    -0.190 NA
ATOM     31  H   UNL     1      -2.261  -5.496   1.797  0.00  0.00    +0.148 HD
BRANCH  30  32
ATOM     32  C   UNL     1      -0.202  -4.995   1.106  0.00  0.00    +0.110 C 
BRANCH  32  33
ATOM     33  C   UNL     1      -0.108  -6.450   0.644  0.00  0.00    +0.052 C 
BRANCH  33  34
ATOM     34  C   UNL     1       1.128  -6.631  -0.199  0.00  0.00    -0.046 A 
ATOM     35  C   UNL     1       1.064  -6.449  -1.568  0.00  0.00    +0.003 A 
ATOM     36  C   UNL     1       2.199  -6.610  -2.340  0.00  0.00    +0.000 A 
ATOM     37  C   UNL     1       3.395  -6.963  -1.745  0.00  0.00    +0.000 A 
ATOM     38  C   UNL     1       3.458  -7.150  -0.377  0.00  0.00    +0.000 A 
ATOM     39  C   UNL     1       2.325  -6.985   0.396  0.00  0.00    +0.003 A 
ENDBRANCH  33  34
ENDBRANCH  32  33
ENDBRANCH  30  32
ENDBRANCH  27  30
ENDBRANCH   9  27
TORSDOF 9
