REMARK  Name = ZINC36569398
REMARK  12 active torsions:
REMARK  status: ('A' for Active; 'I' for Inactive)
REMARK    1  A    between atoms: C_1  and  O_2
REMARK    2  A    between atoms: O_2  and  C_3
REMARK    3  A    between atoms: C_6  and  C_10
REMARK    4  A    between atoms: N_23  and  C_24
REMARK    5  A    between atoms: C_24  and  C_26
REMARK    6  A    between atoms: C_24  and  C_32
REMARK    7  A    between atoms: C_26  and  C_27
REMARK    8  A    between atoms: C_27  and  C_28
REMARK    9  A    between atoms: C_28  and  O_30
REMARK   10  A    between atoms: O_30  and  C_31
REMARK   11  A    between atoms: C_32  and  O_34
REMARK   12  A    between atoms: O_34  and  C_35
REMARK                            x       y       z     vdW  Elec       q    Type
REMARK                         _______ _______ _______ _____ _____    ______ ____
ROOT
ATOM      1  C   UNL     1       2.590  -2.546   4.314  0.00  0.00    +0.159 C 
ATOM      2  C   UNL     1       1.582  -2.886   5.387  0.00  0.00    +0.062 A 
ATOM      3  C   UNL     1       1.501  -2.241   6.571  0.00  0.00    +0.040 A 
ATOM      4  N   UNL     1       0.481  -2.816   7.267  0.00  0.00    -0.349 N 
ATOM      5  H   UNL     1       0.177  -2.568   8.154  0.00  0.00    +0.166 HD
ATOM      6  C   UNL     1      -0.027  -3.798   6.488  0.00  0.00    +0.171 A 
ATOM      7  N   UNL     1       0.640  -3.831   5.364  0.00  0.00    -0.348 N 
ATOM      8  C   UNL     1       2.398  -1.108   6.996  0.00  0.00    +0.074 C 
ATOM      9  C   UNL     1       3.084  -0.526   5.753  0.00  0.00    +0.116 C 
ATOM     10  N   UNL     1       3.576  -1.629   4.913  0.00  0.00    -0.273 N 
ATOM     11  C   UNL     1       4.896  -1.799   4.697  0.00  0.00    +0.304 C 
ATOM     12  O   UNL     1       5.280  -2.657   3.926  0.00  0.00    -0.253 OA
ATOM     13  N   UNL     1       5.789  -1.016   5.334  0.00  0.00    -0.286 N 
ATOM     14  H   UNL     1       5.487  -0.383   6.004  0.00  0.00    +0.151 HD
ATOM     15  H   UNL     1       0.476  -4.445   4.631  0.00  0.00    +0.167 HD
ENDROOT
BRANCH   1  19
ATOM     16  C   UNL     1       0.630  -0.633   1.032  0.00  0.00    +0.123 A 
ATOM     17  C   UNL     1      -0.020  -0.762   2.251  0.00  0.00    +0.046 A 
ATOM     18  C   UNL     1       0.615  -1.381   3.310  0.00  0.00    +0.012 A 
ATOM     19  C   UNL     1       1.899  -1.872   3.157  0.00  0.00    +0.014 A 
ATOM     20  C   UNL     1       2.550  -1.745   1.942  0.00  0.00    +0.132 A 
ATOM     21  C   UNL     1       1.915  -1.131   0.877  0.00  0.00    +0.084 A 
ATOM     22  F   UNL     1       3.804  -2.225   1.794  0.00  0.00    -0.205 F 
BRANCH  16  24
ATOM     23  C   UNL     1      -1.317   0.464   0.221  0.00  0.00    +0.277 C 
ATOM     24  O   UNL     1       0.005  -0.025  -0.010  0.00  0.00    -0.495 OA
ENDBRANCH  16  24
ENDBRANCH   1  19
BRANCH  13  25
ATOM     25  C   UNL     1       7.215  -1.123   5.016  0.00  0.00    +0.184 C 
BRANCH  25  26
ATOM     26  C   UNL     1       7.529  -0.260   3.821  0.00  0.00    +0.327 C 
ATOM     27  O   UNL     1       6.652   0.379   3.290  0.00  0.00    -0.249 OA
BRANCH  26  28
ATOM     28  O   UNL     1       8.784  -0.201   3.348  0.00  0.00    -0.467 OA
ATOM     29  C   UNL     1       9.009   0.637   2.212  0.00  0.00    +0.280 C 
ENDBRANCH  26  28
ENDBRANCH  25  26
BRANCH  25  30
ATOM     30  C   UNL     1       8.041  -0.654   6.215  0.00  0.00    +0.045 C 
BRANCH  30  31
ATOM     31  C   UNL     1       7.817  -1.606   7.393  0.00  0.00    +0.123 C 
BRANCH  31  32
ATOM     32  C   UNL     1       8.631  -1.144   8.574  0.00  0.00    +0.307 C 
ATOM     33  O   UNL     1       9.320  -0.156   8.483  0.00  0.00    -0.251 OA
BRANCH  32  34
ATOM     34  O   UNL     1       8.591  -1.831   9.726  0.00  0.00    -0.468 OA
ATOM     35  C   UNL     1       9.387  -1.337  10.805  0.00  0.00    +0.280 C 
ENDBRANCH  32  34
ENDBRANCH  31  32
ENDBRANCH  30  31
ENDBRANCH  25  30
ENDBRANCH  13  25
TORSDOF 9
