REMARK  Name = ZINC11979386
REMARK  10 active torsions:
REMARK  status: ('A' for Active; 'I' for Inactive)
REMARK    1  A    between atoms: C_1  and  C_2
REMARK    2  A    between atoms: C_2  and  C_3
REMARK    3  A    between atoms: C_2  and  C_4
REMARK    4  A    between atoms: C_4  and  N_5
REMARK    5  A    between atoms: C_7  and  C_20
REMARK    6  A    between atoms: C_10  and  C_12
REMARK    7  A    between atoms: N_22  and  C_23
REMARK    8  A    between atoms: C_23  and  C_24
REMARK    9  A    between atoms: C_24  and  C_26
REMARK   10  A    between atoms: C_24  and  N_76
REMARK                            x       y       z     vdW  Elec       q    Type
REMARK                         _______ _______ _______ _____ _____    ______ ____
ROOT
ATOM      1  N   UNL     1       0.785  -4.170  -0.482  0.00  0.00    -0.351 N 
ATOM      2  C   UNL     1       0.114  -4.933  -1.360  0.00  0.00    +0.102 A 
ATOM      3  C   UNL     1      -0.638  -4.375  -2.371  0.00  0.00    +0.100 A 
ATOM      4  C   UNL     1      -0.692  -2.907  -2.471  0.00  0.00    +0.206 A 
ATOM      5  O   UNL     1      -1.339  -2.353  -3.344  0.00  0.00    -0.286 OA
ATOM      6  C   UNL     1       0.069  -2.136  -1.474  0.00  0.00    +0.100 A 
ATOM      7  C   UNL     1       0.784  -2.827  -0.520  0.00  0.00    +0.102 A 
ENDROOT
BRANCH   6   8
ATOM      8  C   UNL     1       0.072  -0.663  -1.500  0.00  0.00    +0.252 C 
ATOM      9  O   UNL     1       0.084  -0.073  -2.564  0.00  0.00    -0.270 OA
ATOM     10  N   UNL     1       0.061   0.031  -0.345  0.00  0.00    -0.297 N 
ATOM     11  C   UNL     1      -0.049  -0.664   0.945  0.00  0.00    +0.108 C 
ATOM     12  C   UNL     1      -1.219  -0.064   1.730  0.00  0.00    +0.019 C 
ATOM     13  C   UNL     1      -1.028   1.450   1.847  0.00  0.00    +0.003 C 
ATOM     14  C   UNL     1      -1.014   2.073   0.449  0.00  0.00    +0.019 C 
ATOM     15  C   UNL     1       0.158   1.497  -0.351  0.00  0.00    +0.108 C 
ENDBRANCH   6   8
BRANCH   3  16
ATOM     16  C   UNL     1      -1.369  -5.225  -3.326  0.00  0.00    +0.249 C 
ATOM     17  O   UNL     1      -2.028  -4.715  -4.213  0.00  0.00    -0.270 OA
ATOM     18  N   UNL     1      -1.308  -6.567  -3.218  0.00  0.00    -0.312 N 
ATOM     19  H   UNL     1      -0.783  -6.973  -2.511  0.00  0.00    +0.149 HD
BRANCH  18  20
ATOM     20  C   UNL     1      -2.035  -7.412  -4.169  0.00  0.00    +0.094 C 
BRANCH  20  21
ATOM     21  C   UNL     1      -1.888  -8.880  -3.762  0.00  0.00    -0.020 C 
BRANCH  21  27
ATOM     22  C   UNL     1      -4.102  -9.278  -4.657  0.00  0.00    -0.078 C 
ATOM     23  C   UNL     1      -4.886 -10.077  -5.700  0.00  0.00    -0.019 C 
ATOM     24  C   UNL     1      -4.801 -11.568  -5.364  0.00  0.00    -0.004 C 
ATOM     25  C   UNL     1      -3.329 -11.990  -5.319  0.00  0.00    -0.019 C 
ATOM     26  C   UNL     1      -2.591 -11.136  -4.286  0.00  0.00    -0.078 C 
ATOM     27  N   UNL     1      -2.689  -9.714  -4.680  0.00  0.00    +0.385 N 
ATOM     28  H   UNL     1      -2.324  -9.607  -5.633  0.00  0.00    -0.081 HD
ENDBRANCH  21  27
BRANCH  21  29
ATOM     29  C   UNL     1      -0.442  -9.288  -3.868  0.00  0.00    -0.059 A 
ATOM     30  C   UNL     1       0.095  -9.617  -5.099  0.00  0.00    +0.002 A 
ATOM     31  C   UNL     1       1.423  -9.988  -5.197  0.00  0.00    +0.000 A 
ATOM     32  C   UNL     1       2.212 -10.039  -4.064  0.00  0.00    +0.000 A 
ATOM     33  C   UNL     1       1.675  -9.714  -2.832  0.00  0.00    +0.000 A 
ATOM     34  C   UNL     1       0.348  -9.340  -2.734  0.00  0.00    +0.002 A 
ENDBRANCH  21  29
ENDBRANCH  20  21
ENDBRANCH  18  20
ENDBRANCH   3  16
BRANCH   1  35
ATOM     35  C   UNL     1       1.563  -4.835   0.565  0.00  0.00    +0.124 C 
BRANCH  35  37
ATOM     36  C   UNL     1       3.834  -5.664   1.197  0.00  0.00    +0.009 C 
ATOM     37  C   UNL     1       2.987  -5.083   0.062  0.00  0.00    +0.003 C 
ATOM     38  C   UNL     1       2.951  -6.072  -1.105  0.00  0.00    +0.009 C 
ENDBRANCH  35  37
ENDBRANCH   1  35
TORSDOF 8
