REMARK  Name = ZINC67160544
REMARK  10 active torsions:
REMARK  status: ('A' for Active; 'I' for Inactive)
REMARK    1  A    between atoms: C_1  and  C_2
REMARK    2  A    between atoms: C_2  and  C_3
REMARK    3  A    between atoms: C_2  and  C_4
REMARK    4  A    between atoms: C_2  and  C_5
REMARK    5  A    between atoms: C_11  and  N_13
REMARK    6  A    between atoms: C_14  and  C_16
REMARK    7  A    between atoms: C_16  and  C_17
REMARK    8  A    between atoms: C_17  and  C_18
REMARK    9  A    between atoms: C_18  and  C_19
REMARK   10  A    between atoms: C_19  and  C_20
REMARK                            x       y       z     vdW  Elec       q    Type
REMARK                         _______ _______ _______ _____ _____    ______ ____
ROOT
ATOM      1  C   UNL     1       3.414   3.481  -0.923  0.00  0.00    +0.096 C 
ENDROOT
BRANCH   1   3
ATOM      2  N   UNL     1       2.163   1.387  -1.333  0.00  0.00    -0.312 N 
ATOM      3  C   UNL     1       3.323   1.978  -0.984  0.00  0.00    +0.213 C 
ATOM      4  O   UNL     1       4.293   1.300  -0.719  0.00  0.00    -0.276 OA
ATOM      5  H   UNL     1       1.387   1.930  -1.546  0.00  0.00    +0.149 HD
BRANCH   2  11
ATOM      6  C   UNL     1       0.643  -0.511  -1.073  0.00  0.00    +0.015 C 
ATOM      7  C   UNL     1       0.550  -2.037  -1.135  0.00  0.00    +0.006 C 
ATOM      8  C   UNL     1       0.927  -2.514  -2.539  0.00  0.00    +0.000 C 
ATOM      9  C   UNL     1       2.358  -2.077  -2.859  0.00  0.00    +0.002 C 
ATOM     10  C   UNL     1       2.451  -0.551  -2.797  0.00  0.00    +0.022 C 
ATOM     11  C   UNL     1       2.074  -0.074  -1.393  0.00  0.00    +0.077 C 
BRANCH   6  13
ATOM     12  C   UNL     1       0.195   1.495   0.348  0.00  0.00    +0.011 C 
ATOM     13  C   UNL     1       0.265  -0.034   0.331  0.00  0.00    -0.033 C 
ATOM     14  C   UNL     1       1.322  -0.507   1.331  0.00  0.00    +0.011 C 
ATOM     15  C   UNL     1      -1.098  -0.611   0.717  0.00  0.00    +0.011 C 
ENDBRANCH   6  13
ENDBRANCH   2  11
ENDBRANCH   1   3
BRANCH   1  16
ATOM     16  C   UNL     1       4.828   3.889  -0.504  0.00  0.00    +0.009 C 
BRANCH  16  17
ATOM     17  C   UNL     1       4.921   5.415  -0.442  0.00  0.00    +0.002 C 
BRANCH  17  18
ATOM     18  C   UNL     1       6.335   5.824  -0.024  0.00  0.00    +0.016 C 
BRANCH  18  19
ATOM     19  C   UNL     1       6.428   7.349   0.038  0.00  0.00    +0.069 C 
ATOM     20  C   UNL     1       7.817   7.796   0.416  0.00  0.00    +0.108 C 
ATOM     21  C   UNL     1       7.721   9.192   1.106  0.00  0.00    +0.105 C 
ATOM     22  C   UNL     1       6.814   8.984   2.317  0.00  0.00    +0.093 C 
ATOM     23  S   UNL     1       5.452   8.023   1.463  0.00  0.00    -0.154 S 
ATOM     24  N   UNL     1       9.130   9.475   1.258  0.00  0.00    -0.294 N 
ATOM     25  C   UNL     1       9.737   8.892   0.180  0.00  0.00    +0.300 C 
ATOM     26  O   UNL     1      10.880   9.130  -0.159  0.00  0.00    -0.253 OA
ATOM     27  N   UNL     1       8.913   8.030  -0.476  0.00  0.00    -0.294 N 
ATOM     28  H   UNL     1       9.555   9.974   1.973  0.00  0.00    +0.151 HD
ATOM     29  H   UNL     1       9.047   7.652  -1.359  0.00  0.00    +0.151 HD
ENDBRANCH  18  19
ENDBRANCH  17  18
ENDBRANCH  16  17
ENDBRANCH   1  16
TORSDOF 7
