REMARK  Name = ZINC33122808
REMARK  8 active torsions:
REMARK  status: ('A' for Active; 'I' for Inactive)
REMARK    1  A    between atoms: C_4  and  S_7
REMARK    2  A    between atoms: S_7  and  N_10
REMARK    3  A    between atoms: N_10  and  C_11
REMARK    4  A    between atoms: C_11  and  C_12
REMARK    5  A    between atoms: C_14  and  C_17
REMARK    6  A    between atoms: C_20  and  N_23
REMARK    7  A    between atoms: N_23  and  S_24
REMARK    8  A    between atoms: S_24  and  C_27
REMARK                            x       y       z     vdW  Elec       q    Type
REMARK                         _______ _______ _______ _____ _____    ______ ____
ROOT
ATOM      1  C   UNL     1       0.569  -5.916  -2.207  0.00  0.00    +0.243 A 
ATOM      2  N   UNL     1       0.814  -4.633  -2.298  0.00  0.00    -0.190 NA
ATOM      3  C   UNL     1       0.140  -4.061  -1.274  0.00  0.00    +0.202 A 
ATOM      4  N   UNL     1      -0.475  -5.021  -0.632  0.00  0.00    -0.056 NA
ATOM      5  O   UNL     1      -0.238  -6.090  -1.155  0.00  0.00    -0.336 OA
ENDROOT
BRANCH   3   6
ATOM      6  C   UNL     1       0.100  -2.616  -0.944  0.00  0.00    +0.023 A 
ATOM      7  C   UNL     1      -0.648  -2.168   0.145  0.00  0.00    +0.013 A 
ATOM      8  C   UNL     1      -0.683  -0.825   0.450  0.00  0.00    +0.025 A 
ATOM      9  C   UNL     1       0.026   0.084  -0.327  0.00  0.00    +0.048 A 
ATOM     10  C   UNL     1       0.767  -0.359  -1.417  0.00  0.00    +0.025 A 
ATOM     11  C   UNL     1       0.809  -1.702  -1.722  0.00  0.00    +0.013 A 
BRANCH   9  12
ATOM     12  N   UNL     1      -0.011   1.443  -0.017  0.00  0.00    -0.216 N 
ATOM     13  H   UNL     1      -0.606   2.132  -0.635  0.00  0.00    +0.174 HD
BRANCH  12  14
ATOM     14  S   UNL     1       0.839   2.019   1.282  0.00  0.00    +0.072 S 
ATOM     15  O   UNL     1       0.647   3.427   1.301  0.00  0.00    -0.150 OA
ATOM     16  O   UNL     1       0.505   1.190   2.386  0.00  0.00    -0.150 OA
BRANCH  14  17
ATOM     17  C   UNL     1       2.548   1.748   0.947  0.00  0.00    +0.108 A 
ATOM     18  C   UNL     1       3.137   0.546   1.290  0.00  0.00    +0.029 A 
ATOM     19  C   UNL     1       4.476   0.331   1.023  0.00  0.00    +0.002 A 
ATOM     20  C   UNL     1       5.229   1.323   0.423  0.00  0.00    +0.000 A 
ATOM     21  C   UNL     1       4.641   2.528   0.085  0.00  0.00    +0.002 A 
ATOM     22  C   UNL     1       3.300   2.740   0.347  0.00  0.00    +0.029 A 
ENDBRANCH  14  17
ENDBRANCH  12  14
ENDBRANCH   9  12
ENDBRANCH   3   6
BRANCH   1  23
ATOM     23  C   UNL     1       1.095  -6.994  -3.119  0.00  0.00    +0.204 C 
BRANCH  23  24
ATOM     24  N   UNL     1       2.365  -7.501  -2.595  0.00  0.00    -0.181 NA
ATOM     25  H   UNL     1       2.987  -6.864  -1.948  0.00  0.00    +0.149 HD
BRANCH  24  26
ATOM     26  S   UNL     1       2.988  -8.925  -3.167  0.00  0.00    +0.059 S 
ATOM     27  O   UNL     1       4.222  -9.129  -2.493  0.00  0.00    -0.153 OA
ATOM     28  O   UNL     1       1.932  -9.875  -3.127  0.00  0.00    -0.153 OA
BRANCH  26  32
ATOM     29  C   UNL     1       3.990  -8.289  -7.536  0.00  0.00    +0.000 A 
ATOM     30  C   UNL     1       4.938  -8.028  -6.564  0.00  0.00    +0.002 A 
ATOM     31  C   UNL     1       4.631  -8.221  -5.230  0.00  0.00    +0.028 A 
ATOM     32  C   UNL     1       3.378  -8.677  -4.867  0.00  0.00    +0.105 A 
ATOM     33  C   UNL     1       2.432  -8.944  -5.840  0.00  0.00    +0.028 A 
ATOM     34  C   UNL     1       2.736  -8.745  -7.173  0.00  0.00    +0.002 A 
ENDBRANCH  26  32
ENDBRANCH  24  26
ENDBRANCH  23  24
ENDBRANCH   1  23
TORSDOF 8
