REMARK  Name = ZINC67166782
REMARK  14 active torsions:
REMARK  status: ('A' for Active; 'I' for Inactive)
REMARK    1  A    between atoms: C_1  and  C_2
REMARK    2  A    between atoms: C_2  and  C_3
REMARK    3  A    between atoms: C_3  and  C_4
REMARK    4  A    between atoms: C_4  and  C_5
REMARK    5  A    between atoms: C_5  and  N_6
REMARK    6  A    between atoms: N_6  and  C_7
REMARK    7  A    between atoms: C_7  and  C_9
REMARK    8  A    between atoms: C_7  and  C_10
REMARK    9  A    between atoms: C_10  and  C_11
REMARK   10  A    between atoms: C_11  and  C_12
REMARK   11  A    between atoms: C_13  and  C_15
REMARK   12  A    between atoms: C_19  and  S_21
REMARK   13  A    between atoms: S_21  and  C_24
REMARK   14  A    between atoms: C_24  and  C_25
REMARK                            x       y       z     vdW  Elec       q    Type
REMARK                         _______ _______ _______ _____ _____    ______ ____
ROOT
ATOM      1  N   UNL     1      -3.434  -4.149  -0.035  0.00  0.00    -0.295 N 
ATOM      2  C   UNL     1      -2.953  -4.723  -1.154  0.00  0.00    +0.247 C 
ATOM      3  O   UNL     1      -2.504  -5.852  -1.113  0.00  0.00    -0.270 OA
ENDROOT
BRANCH   2   4
ATOM      4  C   UNL     1      -2.970  -3.981  -2.433  0.00  0.00    +0.039 A 
ATOM      5  C   UNL     1      -2.966  -2.585  -2.433  0.00  0.00    +0.013 A 
ATOM      6  C   UNL     1      -2.981  -1.899  -3.629  0.00  0.00    +0.003 A 
ATOM      7  C   UNL     1      -3.002  -2.591  -4.827  0.00  0.00    +0.027 A 
ATOM      8  C   UNL     1      -3.007  -3.974  -4.834  0.00  0.00    +0.089 A 
ATOM      9  C   UNL     1      -2.985  -4.673  -3.645  0.00  0.00    +0.040 A 
BRANCH   8  10
ATOM     10  S   UNL     1      -3.034  -4.846  -6.365  0.00  0.00    +0.002 S 
ATOM     11  O   UNL     1      -3.636  -6.096  -6.060  0.00  0.00    -0.169 OA
ATOM     12  O   UNL     1      -3.649  -3.950  -7.282  0.00  0.00    -0.169 OA
BRANCH  10  13
ATOM     13  C   UNL     1      -1.288  -5.082  -6.798  0.00  0.00    +0.243 C 
BRANCH  13  14
ATOM     14  C   UNL     1      -1.190  -5.837  -8.126  0.00  0.00    +0.362 C 
ATOM     15  F   UNL     1      -1.812  -7.083  -8.001  0.00  0.00    -0.207 F 
ATOM     16  F   UNL     1      -1.824  -5.098  -9.130  0.00  0.00    -0.207 F 
ENDBRANCH  13  14
ENDBRANCH  10  13
ENDBRANCH   8  10
ENDBRANCH   2   4
BRANCH   1  17
ATOM     17  C   UNL     1      -3.424  -4.887   1.231  0.00  0.00    +0.073 C 
ATOM     18  C   UNL     1      -4.863  -5.154   1.677  0.00  0.00    +0.028 C 
BRANCH  17  19
ATOM     19  C   UNL     1      -2.704  -4.060   2.298  0.00  0.00    +0.022 C 
BRANCH  19  20
ATOM     20  C   UNL     1      -1.233  -3.899   1.912  0.00  0.00    -0.002 C 
ATOM     21  C   UNL     1      -0.513  -3.072   2.979  0.00  0.00    +0.004 C 
ENDBRANCH  19  20
ENDBRANCH  17  19
ENDBRANCH   1  17
BRANCH   1  22
ATOM     22  C   UNL     1      -3.968  -2.785  -0.083  0.00  0.00    +0.108 C 
BRANCH  22  23
ATOM     23  C   UNL     1      -2.896  -1.801   0.391  0.00  0.00    +0.019 C 
BRANCH  23  24
ATOM     24  C   UNL     1      -3.454  -0.377   0.341  0.00  0.00    +0.001 C 
BRANCH  24  26
ATOM     25  C   UNL     1      -2.939   2.031   0.764  0.00  0.00    +0.004 C 
ATOM     26  C   UNL     1      -2.382   0.607   0.815  0.00  0.00    -0.003 C 
ENDBRANCH  24  26
ENDBRANCH  23  24
ENDBRANCH  22  23
ENDBRANCH   1  22
TORSDOF 11
