REMARK  Name = ZINC09884195
REMARK  8 active torsions:
REMARK  status: ('A' for Active; 'I' for Inactive)
REMARK    1  A    between atoms: N_4  and  C_6
REMARK    2  A    between atoms: C_9  and  C_12
REMARK    3  A    between atoms: C_12  and  O_14
REMARK    4  A    between atoms: O_14  and  C_15
REMARK    5  A    between atoms: C_15  and  C_16
REMARK    6  A    between atoms: N_18  and  C_19
REMARK    7  A    between atoms: C_19  and  C_20
REMARK    8  A    between atoms: C_20  and  N_62
REMARK                            x       y       z     vdW  Elec       q    Type
REMARK                         _______ _______ _______ _____ _____    ______ ____
ROOT
ATOM      1  C   UNL     1       3.596   1.735  -0.621  0.00  0.00    +0.251 C 
ATOM      2  O   UNL     1       3.336   2.913  -0.747  0.00  0.00    -0.272 OA
ATOM      3  N   UNL     1       4.853   1.351  -0.319  0.00  0.00    -0.314 N 
ATOM      4  H   UNL     1       5.061   0.409  -0.218  0.00  0.00    +0.149 HD
ENDROOT
BRANCH   1   5
ATOM      5  C   UNL     1       2.516   0.701  -0.803  0.00  0.00    +0.328 C 
BRANCH   5   6
ATOM      6  O   UNL     1       1.262   1.361  -1.121  0.00  0.00    -0.452 OA
BRANCH   6   7
ATOM      7  C   UNL     1       0.187   0.572  -1.315  0.00  0.00    +0.340 C 
ATOM      8  O   UNL     1       0.294  -0.635  -1.222  0.00  0.00    -0.245 OA
BRANCH   7  12
ATOM      9  C   UNL     1      -3.571   2.302  -2.271  0.00  0.00    +0.046 A 
ATOM     10  C   UNL     1      -3.450   0.920  -2.165  0.00  0.00    +0.027 A 
ATOM     11  C   UNL     1      -2.233   0.356  -1.855  0.00  0.00    +0.017 A 
ATOM     12  C   UNL     1      -1.118   1.173  -1.647  0.00  0.00    +0.059 A 
ATOM     13  C   UNL     1      -1.245   2.561  -1.750  0.00  0.00    +0.017 A 
ATOM     14  C   UNL     1      -2.464   3.118  -2.065  0.00  0.00    +0.027 A 
BRANCH   9  18
ATOM     15  C   UNL     1      -6.940   3.077  -3.084  0.00  0.00    +0.019 A 
ATOM     16  C   UNL     1      -6.363   4.362  -3.026  0.00  0.00    +0.019 A 
ATOM     17  C   UNL     1      -5.059   4.208  -2.719  0.00  0.00    +0.091 A 
ATOM     18  N   UNL     1      -4.808   2.871  -2.586  0.00  0.00    -0.323 N 
ATOM     19  C   UNL     1      -5.966   2.184  -2.817  0.00  0.00    +0.091 A 
ENDBRANCH   9  18
ENDBRANCH   7  12
ENDBRANCH   6   7
ENDBRANCH   5   6
ENDBRANCH   1   5
BRANCH   3  20
ATOM     20  C   UNL     1       5.903   2.357  -0.142  0.00  0.00    +0.092 C 
BRANCH  20  21
ATOM     21  C   UNL     1       7.248   1.658   0.068  0.00  0.00    -0.049 C 
ATOM     22  C   UNL     1       8.321   2.702   0.384  0.00  0.00    -0.010 C 
ATOM     23  C   UNL     1       8.434   3.687  -0.781  0.00  0.00    -0.001 C 
ATOM     24  C   UNL     1       8.819   2.929  -2.054  0.00  0.00    -0.000 C 
ATOM     25  C   UNL     1       7.746   1.885  -2.370  0.00  0.00    -0.001 C 
ATOM     26  C   UNL     1       7.633   0.900  -1.205  0.00  0.00    -0.010 C 
BRANCH  21  32
ATOM     27  C   UNL     1       6.718   1.399   2.417  0.00  0.00    -0.049 C 
ATOM     28  C   UNL     1       6.559   0.370   3.539  0.00  0.00    +0.141 C 
ATOM     29  O   UNL     1       7.791  -0.337   3.709  0.00  0.00    -0.383 OA
ATOM     30  C   UNL     1       8.231  -1.017   2.530  0.00  0.00    +0.141 C 
ATOM     31  C   UNL     1       8.406  -0.003   1.397  0.00  0.00    -0.049 C 
ATOM     32  N   UNL     1       7.120   0.694   1.181  0.00  0.00    +0.387 N 
ATOM     33  H   UNL     1       6.401   0.001   0.942  0.00  0.00    -0.081 HD
ENDBRANCH  21  32
ENDBRANCH  20  21
ENDBRANCH   3  20
TORSDOF 8
