REMARK  Name = ZINC35225020
REMARK  6 active torsions:
REMARK  status: ('A' for Active; 'I' for Inactive)
REMARK    1  A    between atoms: C_1  and  C_2
REMARK    2  A    between atoms: C_2  and  C_4
REMARK    3  A    between atoms: C_2  and  N_14
REMARK    4  A    between atoms: C_7  and  S_10
REMARK    5  A    between atoms: S_10  and  N_13
REMARK    6  A    between atoms: N_14  and  C_15
REMARK                            x       y       z     vdW  Elec       q    Type
REMARK                         _______ _______ _______ _____ _____    ______ ____
ROOT
ATOM      1  C   UNL     1      -0.601   1.804   0.331  0.00  0.00    -0.009 C 
ATOM      2  C   UNL     1      -0.176   0.341   0.188  0.00  0.00    -0.043 C 
ENDROOT
BRANCH   2   3
ATOM      3  C   UNL     1       0.671  -0.054   1.370  0.00  0.00    -0.062 A 
ATOM      4  C   UNL     1       0.070  -0.388   2.570  0.00  0.00    +0.004 A 
ATOM      5  C   UNL     1       0.847  -0.751   3.654  0.00  0.00    +0.029 A 
ATOM      6  C   UNL     1       2.224  -0.780   3.539  0.00  0.00    +0.105 A 
ATOM      7  C   UNL     1       2.825  -0.447   2.340  0.00  0.00    +0.029 A 
ATOM      8  C   UNL     1       2.048  -0.089   1.254  0.00  0.00    +0.004 A 
BRANCH   6   9
ATOM      9  S   UNL     1       3.214  -1.241   4.922  0.00  0.00    +0.056 S 
ATOM     10  O   UNL     1       4.495  -0.663   4.715  0.00  0.00    -0.153 OA
ATOM     11  O   UNL     1       2.438  -0.978   6.083  0.00  0.00    -0.153 OA
BRANCH   9  12
ATOM     12  N   UNL     1       3.419  -2.883   4.852  0.00  0.00    -0.204 NA
ATOM     13  H   UNL     1       3.017  -3.391   4.130  0.00  0.00    +0.144 HD
ATOM     14  H   UNL     1       3.941  -3.336   5.532  0.00  0.00    +0.144 HD
ENDBRANCH   9  12
ENDBRANCH   6   9
ENDBRANCH   2   3
BRANCH   2  15
ATOM     15  N   UNL     1      -1.370  -0.513   0.133  0.00  0.00    +0.391 N 
ATOM     16  H   UNL     1      -1.091  -1.483   0.145  0.00  0.00    -0.084 HD
ATOM     17  H   UNL     1      -1.956  -0.323   0.932  0.00  0.00    -0.084 HD
BRANCH  15  18
ATOM     18  C   UNL     1      -2.116  -0.233  -1.101  0.00  0.00    +0.017 C 
ATOM     19  C   UNL     1      -1.597  -1.127  -2.230  0.00  0.00    -0.007 C 
ATOM     20  C   UNL     1      -1.188  -2.487  -1.694  0.00  0.00    +0.000 C 
ATOM     21  C   UNL     1      -2.348  -3.315  -1.173  0.00  0.00    +0.019 C 
ATOM     22  C   UNL     1      -2.953  -2.679   0.080  0.00  0.00    +0.104 C 
ATOM     23  N   UNL     1      -3.960  -1.688  -0.334  0.00  0.00    -0.317 N 
ATOM     24  C   UNL     1      -3.585  -0.529  -0.885  0.00  0.00    +0.199 C 
ATOM     25  O   UNL     1      -4.421   0.284  -1.219  0.00  0.00    -0.278 OA
ATOM     26  H   UNL     1      -4.902  -1.876  -0.203  0.00  0.00    +0.149 HD
ENDBRANCH  15  18
ENDBRANCH   2  15
TORSDOF 5
