REMARK  Name = ZINC12554079
REMARK  10 active torsions:
REMARK  status: ('A' for Active; 'I' for Inactive)
REMARK    1  A    between atoms: C_1  and  C_2
REMARK    2  A    between atoms: C_7  and  N_8
REMARK    3  A    between atoms: C_12  and  S_13
REMARK    4  A    between atoms: S_13  and  C_14
REMARK    5  A    between atoms: C_14  and  C_15
REMARK    6  A    between atoms: N_17  and  N_18
REMARK    7  A    between atoms: C_21  and  C_25
REMARK    8  A    between atoms: C_21  and  C_26
REMARK    9  A    between atoms: C_26  and  C_27
REMARK   10  A    between atoms: C_27  and  C_28
REMARK                            x       y       z     vdW  Elec       q    Type
REMARK                         _______ _______ _______ _____ _____    ______ ____
ROOT
ATOM      1  C   UNL     1      -1.537  -1.434  -1.117  0.00  0.00    +0.240 C 
ATOM      2  O   UNL     1      -0.894  -1.304  -2.138  0.00  0.00    -0.273 OA
ATOM      3  N   UNL     1      -1.146  -0.807   0.009  0.00  0.00    -0.223 N 
ATOM      4  H   UNL     1      -1.660  -0.911   0.826  0.00  0.00    +0.174 HD
ENDROOT
BRANCH   3   5
ATOM      5  N   UNL     1       0.002  -0.004   0.002  0.00  0.00    -0.137 N 
ATOM      6  C   UNL     1      -0.016   1.343   0.009  0.00  0.00    +0.263 C 
ATOM      7  O   UNL     1      -0.992   2.062   0.018  0.00  0.00    -0.271 OA
ATOM      8  C   UNL     1       1.437   1.773  -0.002  0.00  0.00    +0.112 C 
ATOM      9  N   UNL     1       2.175   0.498  -0.016  0.00  0.00    -0.284 N 
ATOM     10  C   UNL     1       1.252  -0.481  -0.013  0.00  0.00    +0.326 C 
ATOM     11  O   UNL     1       1.524  -1.665  -0.021  0.00  0.00    -0.251 OA
ATOM     12  C   UNL     1       1.748   2.588  -1.259  0.00  0.00    +0.041 C 
ATOM     13  H   UNL     1       3.139   0.386  -0.026  0.00  0.00    +0.151 HD
BRANCH   8  14
ATOM     14  C   UNL     1       1.772   2.575   1.257  0.00  0.00    +0.040 C 
BRANCH  14  15
ATOM     15  C   UNL     1       3.243   2.995   1.219  0.00  0.00    +0.038 C 
BRANCH  15  16
ATOM     16  C   UNL     1       3.572   3.784   2.460  0.00  0.00    -0.047 A 
ATOM     17  C   UNL     1       3.425   5.159   2.463  0.00  0.00    +0.003 A 
ATOM     18  C   UNL     1       3.722   5.883   3.603  0.00  0.00    +0.000 A 
ATOM     19  C   UNL     1       4.177   5.233   4.735  0.00  0.00    +0.000 A 
ATOM     20  C   UNL     1       4.329   3.859   4.730  0.00  0.00    +0.000 A 
ATOM     21  C   UNL     1       4.027   3.135   3.592  0.00  0.00    +0.003 A 
ENDBRANCH  15  16
ENDBRANCH  14  15
ENDBRANCH   8  14
ENDBRANCH   3   5
BRANCH   1  22
ATOM     22  C   UNL     1      -2.772  -2.298  -1.110  0.00  0.00    +0.174 C 
BRANCH  22  23
ATOM     23  S   UNL     1      -3.030  -2.997  -2.759  0.00  0.00    -0.076 S 
BRANCH  23  28
ATOM     24  N   UNL     1      -5.172  -4.689  -3.386  0.00  0.00    -0.277 N 
ATOM     25  C   UNL     1      -6.234  -5.227  -2.709  0.00  0.00    +0.230 A 
ATOM     26  N   UNL     1      -6.169  -4.796  -1.481  0.00  0.00    -0.137 NA
ATOM     27  N   UNL     1      -5.146  -4.032  -1.333  0.00  0.00    -0.122 NA
ATOM     28  C   UNL     1      -4.495  -3.933  -2.469  0.00  0.00    +0.196 A 
BRANCH  24  35
ATOM     29  C   UNL     1      -2.750  -6.045  -4.011  0.00  0.00    +0.046 C 
ATOM     30  C   UNL     1      -3.674  -5.532  -5.085  0.00  0.00    -0.027 A 
ATOM     31  C   UNL     1      -3.355  -5.715  -6.417  0.00  0.00    +0.005 A 
ATOM     32  C   UNL     1      -4.203  -5.244  -7.403  0.00  0.00    +0.000 A 
ATOM     33  C   UNL     1      -5.372  -4.590  -7.059  0.00  0.00    +0.002 A 
ATOM     34  C   UNL     1      -5.698  -4.409  -5.729  0.00  0.00    +0.026 A 
ATOM     35  C   UNL     1      -4.846  -4.875  -4.737  0.00  0.00    +0.053 A 
ENDBRANCH  24  35
ENDBRANCH  23  28
ENDBRANCH  22  23
ENDBRANCH   1  22
TORSDOF 8
