REMARK  Name = ZINC24829536
REMARK  5 active torsions:
REMARK  status: ('A' for Active; 'I' for Inactive)
REMARK    1  A    between atoms: C_4  and  N_7
REMARK    2  A    between atoms: C_8  and  C_10
REMARK    3  A    between atoms: C_15  and  N_16
REMARK    4  A    between atoms: N_16  and  C_17
REMARK    5  A    between atoms: C_17  and  C_18
REMARK                            x       y       z     vdW  Elec       q    Type
REMARK                         _______ _______ _______ _____ _____    ______ ____
ROOT
ATOM      1  N   UNL     1       7.268   1.407  -0.170  0.00  0.00    -0.335 N 
ATOM      2  H   UNL     1       6.316   1.958  -0.157  0.00  0.00    +0.147 HD
ENDROOT
BRANCH   1   8
ATOM      3  C   UNL     1       6.055  -0.686  -0.255  0.00  0.00    +0.058 A 
ATOM      4  C   UNL     1       6.068  -2.079  -0.363  0.00  0.00    +0.015 A 
ATOM      5  C   UNL     1       7.264  -2.746  -0.508  0.00  0.00    +0.001 A 
ATOM      6  C   UNL     1       8.459  -2.043  -0.536  0.00  0.00    +0.002 A 
ATOM      7  C   UNL     1       8.463  -0.668  -0.425  0.00  0.00    +0.024 A 
ATOM      8  C   UNL     1       7.266   0.022  -0.283  0.00  0.00    +0.040 A 
BRANCH   3  10
ATOM      9  N   UNL     1       3.629  -0.655   0.046  0.00  0.00    -0.281 N 
ATOM     10  C   UNL     1       4.777   0.034  -0.105  0.00  0.00    +0.250 C 
ATOM     11  O   UNL     1       4.760   1.250  -0.118  0.00  0.00    -0.270 OA
ATOM     12  H   UNL     1       3.653  -1.750   0.144  0.00  0.00    +0.155 HD
BRANCH   9  16
ATOM     13  C   UNL     1      -0.014   1.363   0.144  0.00  0.00    +0.000 A 
ATOM     14  C   UNL     1       1.019   1.842  -0.641  0.00  0.00    +0.002 A 
ATOM     15  C   UNL     1       2.228   1.175  -0.675  0.00  0.00    +0.023 A 
ATOM     16  C   UNL     1       2.406   0.023   0.079  0.00  0.00    +0.034 A 
ATOM     17  C   UNL     1       1.366  -0.455   0.867  0.00  0.00    +0.023 A 
ATOM     18  C   UNL     1       0.160   0.216   0.896  0.00  0.00    +0.002 A 
ENDBRANCH   9  16
ENDBRANCH   3  10
ENDBRANCH   1   8
BRANCH   1  19
ATOM     19  C   UNL     1       8.537   2.132  -0.069  0.00  0.00    +0.198 C 
BRANCH  19  20
ATOM     20  C   UNL     1       8.263   3.609   0.042  0.00  0.00    +0.237 C 
ATOM     21  O   UNL     1       7.121   4.017   0.037  0.00  0.00    -0.274 OA
ATOM     22  N   UNL     1       9.288   4.478   0.147  0.00  0.00    -0.260 N 
ATOM     23  C   UNL     1      10.682   4.010   0.155  0.00  0.00    +0.209 C 
ATOM     24  C   UNL     1      11.452   4.777   1.198  0.00  0.00    +0.235 C 
ATOM     25  O   UNL     1      12.400   4.256   1.747  0.00  0.00    -0.274 OA
ATOM     26  N   UNL     1      11.101   6.034   1.530  0.00  0.00    -0.283 N 
ATOM     27  C   UNL     1       9.982   6.641   0.949  0.00  0.00    +0.055 A 
ATOM     28  C   UNL     1       9.059   5.860   0.246  0.00  0.00    +0.058 A 
ATOM     29  C   UNL     1       7.948   6.443  -0.334  0.00  0.00    +0.025 A 
ATOM     30  C   UNL     1       7.752   7.809  -0.223  0.00  0.00    +0.002 A 
ATOM     31  C   UNL     1       8.665   8.588   0.464  0.00  0.00    +0.002 A 
ATOM     32  C   UNL     1       9.779   8.007   1.059  0.00  0.00    +0.025 A 
ATOM     33  H   UNL     1      11.696   6.596   2.265  0.00  0.00    +0.155 HD
ENDBRANCH  19  20
ENDBRANCH   1  19
TORSDOF 5
