REMARK  Name = ZINC01798680
REMARK  17 active torsions:
REMARK  status: ('A' for Active; 'I' for Inactive)
REMARK    1  A    between atoms: C_1  and  C_2
REMARK    2  A    between atoms: N_8  and  C_9
REMARK    3  A    between atoms: C_9  and  C_10
REMARK    4  A    between atoms: C_10  and  C_11
REMARK    5  A    between atoms: C_14  and  O_19
REMARK    6  A    between atoms: C_15  and  O_17
REMARK    7  A    between atoms: O_17  and  C_18
REMARK    8  A    between atoms: O_19  and  C_20
REMARK    9  A    between atoms: C_21  and  C_29
REMARK   10  A    between atoms: C_23  and  C_27
REMARK   11  A    between atoms: C_24  and  N_26
REMARK   12  A    between atoms: C_31  and  O_39
REMARK   13  A    between atoms: C_32  and  O_37
REMARK   14  A    between atoms: C_33  and  O_35
REMARK   15  A    between atoms: O_35  and  C_36
REMARK   16  A    between atoms: O_37  and  C_38
REMARK   17  A    between atoms: O_39  and  C_40
REMARK                            x       y       z     vdW  Elec       q    Type
REMARK                         _______ _______ _______ _____ _____    ______ ____
ROOT
ATOM      1  C   UNL     1      -0.018   1.503   0.010  0.00  0.00    +0.064 C 
ATOM      2  C   UNL     1       0.002  -0.004   0.002  0.00  0.00    +0.022 A 
ATOM      3  C   UNL     1       0.005  -0.663  -1.176  0.00  0.00    +0.068 A 
ATOM      4  C   UNL     1       0.025  -2.074  -1.190  0.00  0.00    +0.141 A 
ATOM      5  C   UNL     1       0.040  -2.753   0.010  0.00  0.00    +0.072 A 
ATOM      6  C   UNL     1       0.036  -2.026   1.208  0.00  0.00    +0.259 A 
ATOM      7  O   UNL     1       0.049  -2.614   2.278  0.00  0.00    -0.267 OA
ATOM      8  N   UNL     1       0.022  -0.680   1.180  0.00  0.00    -0.312 N 
ATOM      9  C   UNL     1       0.063  -4.256   0.043  0.00  0.00    +0.103 C 
ATOM     10  C   UNL     1      -0.333  -4.809  -1.299  0.00  0.00    +0.098 C 
ATOM     11  C   UNL     1      -0.328  -4.032  -2.407  0.00  0.00    +0.199 C 
ATOM     12  O   UNL     1       0.029  -2.736  -2.366  0.00  0.00    -0.441 OA
ENDROOT
BRANCH   9  13
ATOM     13  C   UNL     1       1.453  -4.728   0.384  0.00  0.00    -0.027 A 
ATOM     14  C   UNL     1       2.516  -4.388  -0.432  0.00  0.00    +0.054 A 
ATOM     15  C   UNL     1       3.796  -4.820  -0.121  0.00  0.00    +0.165 A 
ATOM     16  C   UNL     1       4.010  -5.596   1.012  0.00  0.00    +0.204 A 
ATOM     17  C   UNL     1       2.939  -5.935   1.830  0.00  0.00    +0.165 A 
ATOM     18  C   UNL     1       1.662  -5.494   1.515  0.00  0.00    +0.054 A 
BRANCH  17  19
ATOM     19  O   UNL     1       3.143  -6.694   2.940  0.00  0.00    -0.491 OA
ATOM     20  C   UNL     1       1.996  -7.004   3.733  0.00  0.00    +0.277 C 
ENDBRANCH  17  19
BRANCH  16  21
ATOM     21  O   UNL     1       5.265  -6.022   1.320  0.00  0.00    -0.488 OA
ATOM     22  C   UNL     1       6.054  -5.170   2.153  0.00  0.00    +0.277 C 
ENDBRANCH  16  21
BRANCH  15  23
ATOM     23  O   UNL     1       4.841  -4.486  -0.925  0.00  0.00    -0.491 OA
ATOM     24  C   UNL     1       4.548  -3.687  -2.072  0.00  0.00    +0.277 C 
ENDBRANCH  15  23
ENDBRANCH   9  13
BRANCH  11  25
ATOM     25  N   UNL     1      -0.696  -4.583  -3.609  0.00  0.00    -0.328 N 
ATOM     26  H   UNL     1      -0.955  -5.517  -3.655  0.00  0.00    +0.145 HD
ATOM     27  H   UNL     1      -0.698  -4.039  -4.412  0.00  0.00    +0.145 HD
ENDBRANCH  11  25
BRANCH  10  28
ATOM     28  C   UNL     1      -0.721  -6.183  -1.406  0.00  0.00    +0.101 C 
ATOM     29  N   UNL     1      -1.029  -7.273  -1.491  0.00  0.00    -0.191 NA
ENDBRANCH  10  28
BRANCH   8  30
ATOM     30  C   UNL     1       0.024   0.067   2.441  0.00  0.00    +0.130 C 
BRANCH  30  31
ATOM     31  C   UNL     1      -1.418   0.307   2.893  0.00  0.00    +0.057 C 
BRANCH  31  32
ATOM     32  C   UNL     1      -1.417   1.075   4.189  0.00  0.00    -0.042 A 
ATOM     33  C   UNL     1      -1.390   0.396   5.393  0.00  0.00    +0.007 A 
ATOM     34  C   UNL     1      -1.389   1.097   6.585  0.00  0.00    +0.049 A 
ATOM     35  C   UNL     1      -1.413   2.482   6.575  0.00  0.00    +0.161 A 
ATOM     36  C   UNL     1      -1.440   3.165   5.363  0.00  0.00    +0.162 A 
ATOM     37  C   UNL     1      -1.436   2.457   4.172  0.00  0.00    +0.053 A 
BRANCH  36  38
ATOM     38  O   UNL     1      -1.464   4.525   5.347  0.00  0.00    -0.491 OA
ATOM     39  C   UNL     1      -1.490   5.159   4.067  0.00  0.00    +0.277 C 
ENDBRANCH  36  38
BRANCH  35  40
ATOM     40  O   UNL     1      -1.413   3.172   7.746  0.00  0.00    -0.491 OA
ATOM     41  C   UNL     1      -1.385   2.405   8.952  0.00  0.00    +0.277 C 
ENDBRANCH  35  40
ENDBRANCH  31  32
ENDBRANCH  30  31
ENDBRANCH   8  30
TORSDOF 11
