REMARK  Name = ZINC06748550
REMARK  5 active torsions:
REMARK  status: ('A' for Active; 'I' for Inactive)
REMARK    1  A    between atoms: C_1  and  C_2
REMARK    2  A    between atoms: C_2  and  C_3
REMARK    3  A    between atoms: C_2  and  O_4
REMARK    4  A    between atoms: O_4  and  C_5
REMARK    5  A    between atoms: C_9  and  C_11
REMARK                            x       y       z     vdW  Elec       q    Type
REMARK                         _______ _______ _______ _____ _____    ______ ____
ROOT
ATOM      1  C   UNL     1      -5.144  -2.088  -2.577  0.00  0.00    +0.167 A 
ATOM      2  N   UNL     1      -5.841  -2.236  -1.460  0.00  0.00    -0.189 NA
ATOM      3  C   UNL     1      -7.091  -2.685  -1.495  0.00  0.00    +0.281 A 
ATOM      4  O   UNL     1      -7.800  -2.835  -0.349  0.00  0.00    -0.265 OA
ATOM      5  C   UNL     1      -7.661  -2.998  -2.724  0.00  0.00    +0.085 A 
ATOM      6  C   UNL     1      -9.072  -3.507  -2.794  0.00  0.00    +0.085 C 
ATOM      7  C   UNL     1      -9.330  -4.160  -4.125  0.00  0.00    +0.002 A 
ATOM      8  C   UNL     1     -10.423  -4.997  -4.268  0.00  0.00    +0.046 A 
ATOM      9  C   UNL     1     -10.679  -5.606  -5.483  0.00  0.00    +0.124 A 
ATOM     10  C   UNL     1      -9.840  -5.379  -6.561  0.00  0.00    +0.042 A 
ATOM     11  C   UNL     1      -8.750  -4.545  -6.423  0.00  0.00    +0.049 A 
ATOM     12  C   UNL     1      -8.490  -3.931  -5.202  0.00  0.00    +0.134 A 
ATOM     13  O   UNL     1      -7.412  -3.117  -5.090  0.00  0.00    -0.437 OA
ATOM     14  C   UNL     1      -6.904  -2.830  -3.873  0.00  0.00    +0.231 A 
ATOM     15  N   UNL     1      -5.659  -2.372  -3.764  0.00  0.00    -0.192 NA
ATOM     16  F   UNL     1     -11.747  -6.423  -5.618  0.00  0.00    -0.205 F 
ENDROOT
BRANCH   1  21
ATOM     17  C   UNL     1      -1.889  -0.803  -1.192  0.00  0.00    +0.122 A 
ATOM     18  C   UNL     1      -1.147  -0.644  -2.355  0.00  0.00    +0.046 A 
ATOM     19  C   UNL     1      -1.702  -0.952  -3.582  0.00  0.00    +0.004 A 
ATOM     20  C   UNL     1      -2.999  -1.421  -3.659  0.00  0.00    +0.012 A 
ATOM     21  C   UNL     1      -3.751  -1.584  -2.497  0.00  0.00    +0.023 A 
ATOM     22  C   UNL     1      -3.188  -1.279  -1.260  0.00  0.00    +0.057 A 
BRANCH  17  23
ATOM     23  O   UNL     1      -1.339  -0.499   0.012  0.00  0.00    -0.489 OA
BRANCH  23  25
ATOM     24  C   UNL     1      -2.226  -2.019   1.668  0.00  0.00    +0.051 C 
ATOM     25  C   UNL     1      -2.193  -0.578   1.155  0.00  0.00    +0.167 C 
ATOM     26  C   UNL     1      -1.661   0.343   2.255  0.00  0.00    +0.051 C 
ENDBRANCH  23  25
ENDBRANCH  17  23
ENDBRANCH   1  21
TORSDOF 3
