REMARK  Name = ZINC39940797
REMARK  9 active torsions:
REMARK  status: ('A' for Active; 'I' for Inactive)
REMARK    1  A    between atoms: C_1  and  C_2
REMARK    2  A    between atoms: C_5  and  N_9
REMARK    3  A    between atoms: C_7  and  C_8
REMARK    4  A    between atoms: C_10  and  C_34
REMARK    5  A    between atoms: C_13  and  S_14
REMARK    6  A    between atoms: S_14  and  C_15
REMARK    7  A    between atoms: C_15  and  C_17
REMARK    8  A    between atoms: C_15  and  C_23
REMARK    9  A    between atoms: C_23  and  C_25
REMARK                            x       y       z     vdW  Elec       q    Type
REMARK                         _______ _______ _______ _____ _____    ______ ____
ROOT
ATOM      1  S   UNL     1       2.587  -4.476   1.139  0.00  0.00    -0.070 S 
ENDROOT
BRANCH   1   6
ATOM      2  N   UNL     1       0.057  -4.172  -0.021  0.00  0.00    -0.270 N 
ATOM      3  C   UNL     1      -0.927  -5.016  -0.489  0.00  0.00    +0.169 A 
ATOM      4  N   UNL     1      -0.500  -6.244  -0.305  0.00  0.00    -0.128 NA
ATOM      5  N   UNL     1       0.664  -6.228   0.237  0.00  0.00    -0.122 NA
ATOM      6  C   UNL     1       1.058  -4.989   0.429  0.00  0.00    +0.197 A 
BRANCH   2  11
ATOM      7  C   UNL     1      -0.018   1.503   0.010  0.00  0.00    +0.044 C 
ATOM      8  C   UNL     1       0.002  -0.004   0.002  0.00  0.00    -0.047 A 
ATOM      9  C   UNL     1       0.006  -0.688  -1.200  0.00  0.00    +0.005 A 
ATOM     10  C   UNL     1       0.024  -2.068  -1.211  0.00  0.00    +0.026 A 
ATOM     11  C   UNL     1       0.039  -2.771  -0.013  0.00  0.00    +0.051 A 
ATOM     12  C   UNL     1       0.036  -2.082   1.192  0.00  0.00    +0.030 A 
ATOM     13  C   UNL     1       0.023  -0.700   1.196  0.00  0.00    -0.046 A 
ATOM     14  C   UNL     1       0.025   0.048   2.504  0.00  0.00    +0.044 C 
ENDBRANCH   2  11
BRANCH   3  15
ATOM     15  C   UNL     1      -2.218  -4.614  -1.086  0.00  0.00    +0.020 A 
ATOM     16  C   UNL     1      -2.677  -3.303  -0.945  0.00  0.00    +0.011 A 
ATOM     17  C   UNL     1      -3.883  -2.934  -1.504  0.00  0.00    +0.001 A 
ATOM     18  C   UNL     1      -4.638  -3.861  -2.203  0.00  0.00    +0.000 A 
ATOM     19  C   UNL     1      -4.188  -5.161  -2.346  0.00  0.00    +0.001 A 
ATOM     20  C   UNL     1      -2.981  -5.542  -1.797  0.00  0.00    +0.011 A 
ENDBRANCH   3  15
ENDBRANCH   1   6
BRANCH   1  21
ATOM     21  C   UNL     1       3.441  -6.032   1.513  0.00  0.00    +0.155 C 
BRANCH  21  22
ATOM     22  C   UNL     1       3.749  -6.757   0.229  0.00  0.00    -0.027 A 
ATOM     23  C   UNL     1       4.552  -6.162  -0.726  0.00  0.00    +0.005 A 
ATOM     24  C   UNL     1       4.835  -6.828  -1.904  0.00  0.00    +0.000 A 
ATOM     25  C   UNL     1       4.314  -8.089  -2.127  0.00  0.00    +0.000 A 
ATOM     26  C   UNL     1       3.512  -8.684  -1.172  0.00  0.00    +0.000 A 
ATOM     27  C   UNL     1       3.233  -8.021   0.008  0.00  0.00    +0.005 A 
ENDBRANCH  21  22
BRANCH  21  28
ATOM     28  C   UNL     1       4.726  -5.736   2.244  0.00  0.00    +0.179 C 
ATOM     29  O   UNL     1       5.270  -4.659   2.104  0.00  0.00    -0.291 OA
BRANCH  28  30
ATOM     30  C   UNL     1       5.297  -6.711   3.089  0.00  0.00    +0.025 C 
ATOM     31  C   UNL     1       6.460  -6.598   3.830  0.00  0.00    +0.006 A 
ATOM     32  C   UNL     1       7.404  -5.556   3.986  0.00  0.00    +0.010 A 
ATOM     33  C   UNL     1       8.474  -5.722   4.795  0.00  0.00    +0.001 A 
ATOM     34  C   UNL     1       8.703  -6.910   5.508  0.00  0.00    +0.002 A 
ATOM     35  C   UNL     1       7.864  -7.965   5.428  0.00  0.00    +0.026 A 
ATOM     36  C   UNL     1       6.672  -7.867   4.569  0.00  0.00    +0.043 A 
ATOM     37  N   UNL     1       5.714  -8.711   4.311  0.00  0.00    -0.380 N 
ATOM     38  C   UNL     1       4.762  -8.096   3.381  0.00  0.00    +0.152 C 
ATOM     39  H   UNL     1       5.640  -9.605   4.679  0.00  0.00    +0.160 HD
ENDBRANCH  28  30
ENDBRANCH  21  28
ENDBRANCH   1  21
TORSDOF 7
