REMARK  Name = ZINC03406107
REMARK  9 active torsions:
REMARK  status: ('A' for Active; 'I' for Inactive)
REMARK    1  A    between atoms: C_1  and  C_2
REMARK    2  A    between atoms: C_2  and  C_4
REMARK    3  A    between atoms: C_2  and  N_63
REMARK    4  A    between atoms: N_6  and  C_7
REMARK    5  A    between atoms: C_12  and  C_13
REMARK    6  A    between atoms: N_21  and  S_24
REMARK    7  A    between atoms: S_24  and  C_27
REMARK    8  A    between atoms: C_30  and  O_33
REMARK    9  A    between atoms: O_33  and  C_34
REMARK                            x       y       z     vdW  Elec       q    Type
REMARK                         _______ _______ _______ _____ _____    ______ ____
ROOT
ATOM      1  C   UNL     1      -0.128  -2.641  -6.434  0.00  0.00    -0.004 C 
ATOM      2  C   UNL     1       1.129  -2.135  -5.723  0.00  0.00    +0.017 C 
ENDROOT
BRANCH   2   8
ATOM      3  C   UNL     1       2.465  -2.370  -3.718  0.00  0.00    -0.060 C 
ATOM      4  C   UNL     1       2.586  -3.148  -2.404  0.00  0.00    +0.091 C 
ATOM      5  N   UNL     1       1.374  -2.909  -1.606  0.00  0.00    -0.180 NA
ATOM      6  C   UNL     1       0.067  -3.120  -2.245  0.00  0.00    +0.091 C 
ATOM      7  C   UNL     1       0.045  -2.337  -3.568  0.00  0.00    -0.060 C 
ATOM      8  N   UNL     1       1.203  -2.757  -4.385  0.00  0.00    +0.389 N 
ATOM      9  H   UNL     1       1.183  -3.779  -4.491  0.00  0.00    -0.081 HD
BRANCH   5  10
ATOM     10  S   UNL     1       1.479  -2.421  -0.027  0.00  0.00    +0.061 S 
ATOM     11  O   UNL     1       2.751  -2.845   0.446  0.00  0.00    -0.153 OA
ATOM     12  O   UNL     1       0.265  -2.811   0.600  0.00  0.00    -0.153 OA
BRANCH  10  13
ATOM     13  C   UNL     1       1.503  -0.659  -0.026  0.00  0.00    +0.106 A 
ATOM     14  C   UNL     1       0.317   0.047   0.048  0.00  0.00    +0.032 A 
ATOM     15  C   UNL     1       0.333   1.429   0.049  0.00  0.00    +0.047 A 
ATOM     16  C   UNL     1       1.541   2.107  -0.025  0.00  0.00    +0.120 A 
ATOM     17  C   UNL     1       2.730   1.396  -0.099  0.00  0.00    +0.047 A 
ATOM     18  C   UNL     1       2.708   0.015  -0.100  0.00  0.00    +0.032 A 
BRANCH  16  19
ATOM     19  O   UNL     1       1.560   3.466  -0.024  0.00  0.00    -0.495 OA
ATOM     20  C   UNL     1       2.839   4.097  -0.103  0.00  0.00    +0.277 C 
ENDBRANCH  16  19
ENDBRANCH  10  13
ENDBRANCH   5  10
ENDBRANCH   2   8
BRANCH   2  21
ATOM     21  C   UNL     1       1.070  -0.634  -5.608  0.00  0.00    +0.203 C 
ATOM     22  O   UNL     1       1.132  -0.107  -4.517  0.00  0.00    -0.277 OA
ATOM     23  N   UNL     1       0.949   0.123  -6.716  0.00  0.00    -0.286 N 
ATOM     24  H   UNL     1       0.846  -0.299  -7.583  0.00  0.00    +0.155 HD
BRANCH  23  25
ATOM     25  C   UNL     1       0.974   1.517  -6.616  0.00  0.00    +0.041 A 
ATOM     26  C   UNL     1       0.425   2.146  -5.508  0.00  0.00    +0.024 A 
ATOM     27  C   UNL     1       0.456   3.523  -5.408  0.00  0.00    +0.002 A 
ATOM     28  C   UNL     1       1.021   4.284  -6.416  0.00  0.00    +0.001 A 
ATOM     29  C   UNL     1       1.565   3.673  -7.528  0.00  0.00    +0.010 A 
ATOM     30  C   UNL     1       1.546   2.284  -7.637  0.00  0.00    +0.003 A 
BRANCH  30  31
ATOM     31  C   UNL     1       2.130   1.623  -8.829  0.00  0.00    -0.016 A 
ATOM     32  C   UNL     1       3.039   0.577  -8.673  0.00  0.00    +0.008 A 
ATOM     33  C   UNL     1       3.574  -0.039  -9.786  0.00  0.00    +0.001 A 
ATOM     34  C   UNL     1       3.220   0.387 -11.054  0.00  0.00    +0.000 A 
ATOM     35  C   UNL     1       2.323   1.428 -11.214  0.00  0.00    +0.001 A 
ATOM     36  C   UNL     1       1.776   2.047 -10.108  0.00  0.00    +0.008 A 
ENDBRANCH  30  31
ENDBRANCH  23  25
ENDBRANCH   2  21
TORSDOF 7
