REMARK  Name = ZINC35926579
REMARK  12 active torsions:
REMARK  status: ('A' for Active; 'I' for Inactive)
REMARK    1  A    between atoms: C_1  and  C_2
REMARK    2  A    between atoms: C_2  and  C_3
REMARK    3  A    between atoms: C_3  and  C_4
REMARK    4  A    between atoms: C_4  and  C_5
REMARK    5  A    between atoms: C_5  and  C_7
REMARK    6  A    between atoms: C_5  and  C_9
REMARK    7  A    between atoms: C_7  and  C_8
REMARK    8  A    between atoms: C_23  and  C_25
REMARK    9  A    between atoms: C_25  and  N_26
REMARK   10  A    between atoms: N_29  and  C_32
REMARK   11  A    between atoms: C_32  and  C_33
REMARK   12  A    between atoms: C_33  and  C_34
REMARK                            x       y       z     vdW  Elec       q    Type
REMARK                         _______ _______ _______ _____ _____    ______ ____
ROOT
ATOM      1  C   UNL     1       3.936  -3.714  -1.337  0.00  0.00    +0.219 C 
ATOM      2  O   UNL     1       3.762  -2.514  -1.323  0.00  0.00    -0.275 OA
ATOM      3  N   UNL     1       4.719  -4.271  -2.283  0.00  0.00    -0.298 N 
ATOM      4  C   UNL     1       4.871  -5.730  -2.364  0.00  0.00    +0.127 C 
ATOM      5  C   UNL     1       4.495  -6.184  -3.780  0.00  0.00    +0.127 C 
ATOM      6  N   UNL     1       5.212  -5.342  -4.748  0.00  0.00    -0.298 N 
ATOM      7  C   UNL     1       5.060  -3.883  -4.667  0.00  0.00    +0.127 C 
ATOM      8  C   UNL     1       5.431  -3.429  -3.255  0.00  0.00    +0.127 C 
ATOM      9  C   UNL     1       6.007  -5.907  -5.709  0.00  0.00    +0.199 A 
ATOM     10  N   UNL     1       6.041  -7.261  -5.836  0.00  0.00    -0.295 N 
ATOM     11  H   UNL     1       5.506  -7.819  -5.250  0.00  0.00    +0.172 HD
ATOM     12  C   UNL     1       6.823  -7.826  -6.781  0.00  0.00    +0.253 A 
ATOM     13  O   UNL     1       6.865  -9.039  -6.910  0.00  0.00    -0.268 OA
ATOM     14  C   UNL     1       7.586  -6.990  -7.615  0.00  0.00    +0.094 A 
ATOM     15  C   UNL     1       7.511  -5.639  -7.441  0.00  0.00    +0.064 A 
ATOM     16  N   UNL     1       6.722  -5.130  -6.498  0.00  0.00    -0.219 NA
ENDROOT
BRANCH   1  17
ATOM     17  C   UNL     1       3.276  -4.583  -0.298  0.00  0.00    +0.075 C 
BRANCH  17  18
ATOM     18  C   UNL     1       4.346  -5.197   0.607  0.00  0.00    +0.009 C 
ATOM     19  C   UNL     1       5.048  -4.088   1.392  0.00  0.00    +0.004 C 
ENDBRANCH  17  18
BRANCH  17  20
ATOM     20  C   UNL     1       2.321  -3.735   0.545  0.00  0.00    +0.013 C 
BRANCH  20  21
ATOM     21  C   UNL     1       1.550  -4.640   1.508  0.00  0.00    +0.000 C 
BRANCH  21  23
ATOM     22  C   UNL     1      -0.092  -4.687   3.391  0.00  0.00    +0.004 C 
ATOM     23  C   UNL     1       0.679  -3.782   2.427  0.00  0.00    -0.003 C 
ENDBRANCH  21  23
ENDBRANCH  20  21
ENDBRANCH  17  20
ENDBRANCH   1  17
BRANCH  15  24
ATOM     24  C   UNL     1       8.319  -4.721  -8.321  0.00  0.00    +0.140 C 
BRANCH  24  25
ATOM     25  N   UNL     1       7.413  -3.906  -9.142  0.00  0.00    -0.300 NA
ATOM     26  C   UNL     1       6.676  -4.742 -10.100  0.00  0.00    +0.066 C 
ATOM     27  C   UNL     1       5.703  -3.866 -10.892  0.00  0.00    -0.063 C 
ATOM     28  N   UNL     1       6.451  -2.820 -11.602  0.00  0.00    +0.382 N 
ATOM     29  C   UNL     1       7.162  -1.979 -10.630  0.00  0.00    -0.063 C 
ATOM     30  C   UNL     1       8.148  -2.839  -9.836  0.00  0.00    +0.066 C 
ATOM     31  H   UNL     1       7.117  -3.249 -12.227  0.00  0.00    -0.082 HD
BRANCH  28  32
ATOM     32  C   UNL     1       5.518  -1.991 -12.377  0.00  0.00    -0.074 C 
BRANCH  32  33
ATOM     33  C   UNL     1       6.306  -0.982 -13.213  0.00  0.00    +0.016 C 
BRANCH  33  34
ATOM     34  C   UNL     1       5.349  -0.131 -14.008  0.00  0.00    -0.049 A 
ATOM     35  C   UNL     1       4.956  -0.530 -15.272  0.00  0.00    +0.003 A 
ATOM     36  C   UNL     1       4.078   0.250 -16.001  0.00  0.00    +0.000 A 
ATOM     37  C   UNL     1       3.593   1.429 -15.466  0.00  0.00    +0.000 A 
ATOM     38  C   UNL     1       3.985   1.827 -14.201  0.00  0.00    +0.000 A 
ATOM     39  C   UNL     1       4.860   1.045 -13.471  0.00  0.00    +0.003 A 
ENDBRANCH  33  34
ENDBRANCH  32  33
ENDBRANCH  28  32
ENDBRANCH  24  25
ENDBRANCH  15  24
TORSDOF 10
