REMARK  Name = ZINC13747782
REMARK  8 active torsions:
REMARK  status: ('A' for Active; 'I' for Inactive)
REMARK    1  A    between atoms: C_1  and  C_2
REMARK    2  A    between atoms: C_2  and  C_3
REMARK    3  A    between atoms: C_3  and  O_4
REMARK    4  A    between atoms: O_4  and  C_5
REMARK    5  A    between atoms: C_6  and  C_13
REMARK    6  A    between atoms: N_14  and  N_15
REMARK    7  A    between atoms: N_15  and  C_16
REMARK    8  A    between atoms: C_16  and  N_18
REMARK                            x       y       z     vdW  Elec       q    Type
REMARK                         _______ _______ _______ _____ _____    ______ ____
ROOT
ATOM      1  C   UNL     1       2.481   1.255  -0.045  0.00  0.00    +0.143 A 
ATOM      2  C   UNL     1       1.261   1.946  -0.051  0.00  0.00    +0.038 A 
ATOM      3  C   UNL     1       0.062   1.229  -0.046  0.00  0.00    +0.028 A 
ATOM      4  C   UNL     1       0.085  -0.151  -0.035  0.00  0.00    +0.020 A 
ATOM      5  C   UNL     1       1.292  -0.829  -0.030  0.00  0.00    +0.034 A 
ATOM      6  C   UNL     1       2.486  -0.130  -0.035  0.00  0.00    +0.061 A 
ATOM      7 BR   UNL     1       4.129  -1.067  -0.028  0.00  0.00    -0.046 Br
ATOM      8 BR   UNL     1      -1.539  -1.119  -0.028  0.00  0.00    -0.050 Br
ENDROOT
BRANCH   2   9
ATOM      9  C   UNL     1       1.244   3.419  -0.062  0.00  0.00    +0.142 C 
ATOM     10  N   UNL     1       0.117   4.054  -0.171  0.00  0.00    -0.188 NA
BRANCH  10  11
ATOM     11  N   UNL     1       0.108   5.450  -0.288  0.00  0.00    -0.219 N 
ATOM     12  H   UNL     1       0.944   5.936  -0.361  0.00  0.00    +0.176 HD
BRANCH  11  13
ATOM     13  C   UNL     1      -1.063   6.118  -0.298  0.00  0.00    +0.147 C 
ATOM     14  S   UNL     1      -1.082   7.807  -0.576  0.00  0.00    -0.017 S 
BRANCH  13  15
ATOM     15  N   UNL     1      -2.218   5.456  -0.091  0.00  0.00    -0.339 N 
ATOM     16  H   UNL     1      -2.203   4.514   0.140  0.00  0.00    +0.144 HD
ATOM     17  H   UNL     1      -3.066   5.921  -0.172  0.00  0.00    +0.144 HD
ENDBRANCH  13  15
ENDBRANCH  11  13
ENDBRANCH  10  11
ENDBRANCH   2   9
BRANCH   1  18
ATOM     18  O   UNL     1       3.653   1.942  -0.050  0.00  0.00    -0.490 OA
BRANCH  18  19
ATOM     19  C   UNL     1       4.253   2.192  -1.322  0.00  0.00    +0.229 C 
BRANCH  19  21
ATOM     20  C   UNL     1       6.204   3.239  -2.481  0.00  0.00    +0.007 C 
ATOM     21  C   UNL     1       5.615   2.860  -1.121  0.00  0.00    +0.038 C 
ENDBRANCH  19  21
ENDBRANCH  18  19
ENDBRANCH   1  18
TORSDOF 7
