REMARK  Name = ZINC46810030
REMARK  9 active torsions:
REMARK  status: ('A' for Active; 'I' for Inactive)
REMARK    1  A    between atoms: C_1  and  C_2
REMARK    2  A    between atoms: C_2  and  C_4
REMARK    3  A    between atoms: C_2  and  N_14
REMARK    4  A    between atoms: C_8  and  O_10
REMARK    5  A    between atoms: O_10  and  C_11
REMARK    6  A    between atoms: C_11  and  C_12
REMARK    7  A    between atoms: C_11  and  C_13
REMARK    8  A    between atoms: C_15  and  C_17
REMARK    9  A    between atoms: C_17  and  N_18
REMARK                            x       y       z     vdW  Elec       q    Type
REMARK                         _______ _______ _______ _____ _____    ______ ____
ROOT
ATOM      1  N   UNL     1       0.582  -0.040  -1.093  0.00  0.00    -0.307 N 
ATOM      2  C   UNL     1      -0.171   0.040  -2.208  0.00  0.00    +0.231 C 
ATOM      3  O   UNL     1      -1.300   0.481  -2.147  0.00  0.00    -0.274 OA
ATOM      4  H   UNL     1       1.484  -0.393  -1.141  0.00  0.00    +0.149 HD
ENDROOT
BRANCH   1   6
ATOM      5  C   UNL     1       0.244   1.915   0.338  0.00  0.00    +0.033 C 
ATOM      6  C   UNL     1       0.038   0.406   0.192  0.00  0.00    +0.100 C 
BRANCH   6   7
ATOM      7  C   UNL     1       0.748  -0.308   1.313  0.00  0.00    -0.024 A 
ATOM      8  C   UNL     1       2.113  -0.518   1.244  0.00  0.00    +0.005 A 
ATOM      9  C   UNL     1       2.768  -1.173   2.271  0.00  0.00    +0.004 A 
ATOM     10  C   UNL     1       2.058  -1.620   3.369  0.00  0.00    +0.045 A 
ATOM     11  C   UNL     1       0.689  -1.412   3.441  0.00  0.00    +0.121 A 
ATOM     12  C   UNL     1       0.036  -0.749   2.412  0.00  0.00    +0.051 A 
BRANCH  11  13
ATOM     13  O   UNL     1      -0.011  -1.851   4.520  0.00  0.00    -0.489 OA
BRANCH  13  14
ATOM     14  C   UNL     1       0.743  -2.412   5.597  0.00  0.00    +0.167 C 
ATOM     15  C   UNL     1      -0.049  -2.274   6.899  0.00  0.00    +0.051 C 
ATOM     16  C   UNL     1       1.010  -3.892   5.316  0.00  0.00    +0.051 C 
ENDBRANCH  13  14
ENDBRANCH  11  13
ENDBRANCH   6   7
ENDBRANCH   1   6
BRANCH   2  17
ATOM     17  C   UNL     1       0.388  -0.419  -3.529  0.00  0.00    +0.209 C 
BRANCH  17  18
ATOM     18  N   UNL     1      -0.618  -0.230  -4.577  0.00  0.00    -0.256 N 
ATOM     19  C   UNL     1      -1.534  -1.249  -4.876  0.00  0.00    +0.080 A 
ATOM     20  C   UNL     1      -1.726  -2.307  -4.002  0.00  0.00    +0.047 A 
ATOM     21  C   UNL     1      -2.634  -3.302  -4.316  0.00  0.00    +0.043 A 
ATOM     22  C   UNL     1      -3.349  -3.243  -5.500  0.00  0.00    +0.024 A 
ATOM     23  C   UNL     1      -3.162  -2.188  -6.375  0.00  0.00    +0.049 A 
ATOM     24  C   UNL     1      -2.256  -1.189  -6.067  0.00  0.00    +0.143 A 
ATOM     25  O   UNL     1      -2.062  -0.143  -6.915  0.00  0.00    -0.481 OA
ATOM     26  C   UNL     1      -1.744   1.117  -6.319  0.00  0.00    +0.325 C 
ATOM     27  C   UNL     1      -0.681   0.929  -5.267  0.00  0.00    +0.258 C 
ATOM     28  O   UNL     1       0.117   1.815  -5.044  0.00  0.00    -0.271 OA
ATOM     29 CL   UNL     1      -2.877  -4.629  -3.224  0.00  0.00    -0.083 Cl
ENDBRANCH  17  18
ENDBRANCH   2  17
TORSDOF 6
