REMARK  Name = ZINC39607654
REMARK  10 active torsions:
REMARK  status: ('A' for Active; 'I' for Inactive)
REMARK    1  A    between atoms: C_1  and  C_2
REMARK    2  A    between atoms: C_2  and  C_3
REMARK    3  A    between atoms: C_3  and  O_4
REMARK    4  A    between atoms: O_4  and  C_5
REMARK    5  A    between atoms: C_5  and  C_6
REMARK    6  A    between atoms: C_6  and  N_7
REMARK    7  A    between atoms: C_8  and  C_10
REMARK    8  A    between atoms: C_21  and  C_23
REMARK    9  A    between atoms: C_28  and  S_29
REMARK   10  A    between atoms: S_29  and  C_30
REMARK                            x       y       z     vdW  Elec       q    Type
REMARK                         _______ _______ _______ _____ _____    ______ ____
ROOT
ATOM      1  C   UNL     1       3.056  -6.207  -0.437  0.00  0.00    +0.100 C 
ATOM      2  C   UNL     1       4.517  -5.713  -0.338  0.00  0.00    +0.121 C 
ATOM      3  N   UNL     1       5.258  -6.851   0.256  0.00  0.00    -0.296 N 
ATOM      4  C   UNL     1       4.668  -8.050  -0.385  0.00  0.00    +0.115 C 
ATOM      5  C   UNL     1       3.160  -7.742  -0.471  0.00  0.00    -0.004 C 
ATOM      6  C   UNL     1       2.430  -8.347   0.724  0.00  0.00    -0.010 C 
ATOM      7  C   UNL     1       2.498  -9.875   0.637  0.00  0.00    -0.082 C 
ATOM      8  N   UNL     1       1.882 -10.323  -0.617  0.00  0.00    +0.379 N 
ATOM      9  C   UNL     1       2.646  -9.812  -1.762  0.00  0.00    -0.082 C 
ATOM     10  C   UNL     1       2.583  -8.282  -1.776  0.00  0.00    -0.010 C 
ATOM     11  C   UNL     1       6.245  -6.805   1.172  0.00  0.00    +0.249 C 
ATOM     12  O   UNL     1       6.556  -5.744   1.679  0.00  0.00    -0.270 OA
ATOM     13  H   UNL     1       1.874 -11.332  -0.644  0.00  0.00    -0.086 HD
ATOM     14  H   UNL     1       0.934  -9.980  -0.666  0.00  0.00    -0.086 HD
ENDROOT
BRANCH  11  15
ATOM     15  C   UNL     1       6.948  -8.041   1.560  0.00  0.00    +0.069 A 
ATOM     16  C   UNL     1       7.188  -9.050   0.620  0.00  0.00    +0.017 A 
ATOM     17  C   UNL     1       7.852 -10.191   1.034  0.00  0.00    +0.020 A 
ATOM     18  C   UNL     1       8.257 -10.303   2.353  0.00  0.00    +0.112 A 
ATOM     19  N   UNL     1       8.021  -9.342   3.225  0.00  0.00    -0.248 NA
ATOM     20  C   UNL     1       7.394  -8.227   2.880  0.00  0.00    +0.114 A 
BRANCH  20  21
ATOM     21  S   UNL     1       7.112  -6.972   4.085  0.00  0.00    -0.069 S 
BRANCH  21  22
ATOM     22  C   UNL     1       7.693  -7.686   5.588  0.00  0.00    +0.014 A 
ATOM     23  C   UNL     1       8.986  -7.430   6.026  0.00  0.00    +0.015 A 
ATOM     24  C   UNL     1       9.438  -7.990   7.205  0.00  0.00    +0.001 A 
ATOM     25  C   UNL     1       8.605  -8.807   7.948  0.00  0.00    +0.000 A 
ATOM     26  C   UNL     1       7.317  -9.065   7.514  0.00  0.00    +0.001 A 
ATOM     27  C   UNL     1       6.857  -8.502   6.340  0.00  0.00    +0.015 A 
ENDBRANCH  21  22
ENDBRANCH  20  21
ENDBRANCH  11  15
BRANCH   1  29
ATOM     28  N   UNL     1       0.948  -5.519   0.658  0.00  0.00    -0.313 N 
ATOM     29  C   UNL     1       2.269  -5.761   0.768  0.00  0.00    +0.218 C 
ATOM     30  O   UNL     1       2.824  -5.621   1.837  0.00  0.00    -0.275 OA
ATOM     31  H   UNL     1       0.503  -5.631  -0.197  0.00  0.00    +0.149 HD
BRANCH  28  32
ATOM     32  C   UNL     1       0.182  -5.085   1.830  0.00  0.00    +0.132 C 
BRANCH  32  33
ATOM     33  C   UNL     1      -1.282  -4.881   1.435  0.00  0.00    +0.178 C 
BRANCH  33  34
ATOM     34  O   UNL     1      -1.852  -6.135   1.054  0.00  0.00    -0.378 OA
BRANCH  34  35
ATOM     35  C   UNL     1      -3.225  -6.055   0.665  0.00  0.00    +0.159 C 
BRANCH  35  37
ATOM     36  C   UNL     1      -5.197  -7.362  -0.136  0.00  0.00    +0.006 C 
ATOM     37  C   UNL     1      -3.727  -7.448   0.280  0.00  0.00    +0.025 C 
ENDBRANCH  35  37
ENDBRANCH  34  35
ENDBRANCH  33  34
ENDBRANCH  32  33
ENDBRANCH  28  32
ENDBRANCH   1  29
TORSDOF 9
