REMARK  Name = ZINC19938341
REMARK  19 active torsions:
REMARK  status: ('A' for Active; 'I' for Inactive)
REMARK    1  A    between atoms: C_1  and  C_2
REMARK    2  A    between atoms: C_2  and  O_3
REMARK    3  A    between atoms: O_3  and  C_4
REMARK    4  A    between atoms: C_6  and  C_11
REMARK    5  A    between atoms: C_9  and  O_10
REMARK    6  A    between atoms: C_13  and  C_25
REMARK    7  A    between atoms: N_17  and  C_18
REMARK    8  A    between atoms: C_18  and  C_19
REMARK    9  A    between atoms: C_19  and  C_20
REMARK   10  A    between atoms: C_20  and  N_21
REMARK   11  A    between atoms: N_21  and  C_22
REMARK   12  A    between atoms: N_21  and  C_23
REMARK   13  A    between atoms: C_25  and  C_27
REMARK   14  A    between atoms: C_30  and  O_34
REMARK   15  A    between atoms: C_32  and  C_33
REMARK   16  A    between atoms: O_34  and  C_35
REMARK   17  A    between atoms: C_35  and  C_36
REMARK   18  A    between atoms: C_36  and  C_37
REMARK   19  A    between atoms: C_36  and  C_38
REMARK                            x       y       z     vdW  Elec       q    Type
REMARK                         _______ _______ _______ _____ _____    ______ ____
ROOT
ATOM      1  C   UNL     1       1.188   1.638  -0.885  0.00  0.00    +0.145 C 
ATOM      2  C   UNL     1       1.872   0.291  -0.893  0.00  0.00    +0.076 C 
ATOM      3  C   UNL     1       0.956  -0.610  -1.318  0.00  0.00    +0.249 C 
ATOM      4  C   UNL     1      -0.318   0.087  -1.595  0.00  0.00    +0.288 C 
ATOM      5  O   UNL     1      -1.334  -0.448  -1.991  0.00  0.00    -0.266 OA
ATOM      6  N   UNL     1      -0.186   1.402  -1.343  0.00  0.00    -0.284 N 
ATOM      7  O   UNL     1       1.171  -1.937  -1.465  0.00  0.00    -0.282 OA
ENDROOT
BRANCH   1  10
ATOM      8  C   UNL     1       1.934   3.844   2.090  0.00  0.00    +0.162 A 
ATOM      9  C   UNL     1       1.945   3.318   0.808  0.00  0.00    +0.055 A 
ATOM     10  C   UNL     1       1.179   2.206   0.511  0.00  0.00    -0.019 A 
ATOM     11  C   UNL     1       0.409   1.611   1.492  0.00  0.00    +0.009 A 
ATOM     12  C   UNL     1       0.398   2.128   2.775  0.00  0.00    +0.049 A 
ATOM     13  C   UNL     1       1.159   3.245   3.078  0.00  0.00    +0.158 A 
BRANCH  13  14
ATOM     14  O   UNL     1       1.150   3.755   4.339  0.00  0.00    -0.503 OA
ATOM     15  H   UNL     1       0.537   3.280   5.119  0.00  0.00    +0.292 HD
ENDBRANCH  13  14
BRANCH   8  16
ATOM     16  O   UNL     1       2.684   4.941   2.382  0.00  0.00    -0.489 OA
BRANCH  16  18
ATOM     17  C   UNL     1       4.237   6.708   1.831  0.00  0.00    +0.048 C 
ATOM     18  C   UNL     1       3.371   5.566   1.297  0.00  0.00    +0.226 C 
ENDBRANCH  16  18
ENDBRANCH   8  16
ENDBRANCH   1  10
BRANCH   2  19
ATOM     19  C   UNL     1       3.261   0.013  -0.513  0.00  0.00    +0.195 C 
ATOM     20  O   UNL     1       4.014   0.930  -0.246  0.00  0.00    -0.287 OA
BRANCH  19  21
ATOM     21  C   UNL     1       3.745  -1.381  -0.455  0.00  0.00    +0.025 A 
ATOM     22  C   UNL     1       4.560  -1.883  -1.475  0.00  0.00    +0.015 A 
ATOM     23  C   UNL     1       5.013  -3.181  -1.414  0.00  0.00    +0.046 A 
ATOM     24  C   UNL     1       4.653  -3.996  -0.346  0.00  0.00    +0.121 A 
ATOM     25  C   UNL     1       3.839  -3.502   0.667  0.00  0.00    +0.049 A 
ATOM     26  C   UNL     1       3.386  -2.203   0.617  0.00  0.00    -0.036 A 
ATOM     27  C   UNL     1       2.504  -1.669   1.716  0.00  0.00    +0.044 C 
BRANCH  24  28
ATOM     28  O   UNL     1       5.098  -5.277  -0.293  0.00  0.00    -0.492 OA
BRANCH  28  29
ATOM     29  C   UNL     1       5.835  -5.755  -1.420  0.00  0.00    +0.232 C 
BRANCH  29  30
ATOM     30  C   UNL     1       6.144  -7.242  -1.234  0.00  0.00    +0.020 C 
ATOM     31  C   UNL     1       4.836  -8.032  -1.174  0.00  0.00    +0.010 C 
ATOM     32  C   UNL     1       6.987  -7.739  -2.410  0.00  0.00    +0.010 C 
ENDBRANCH  29  30
ENDBRANCH  28  29
ENDBRANCH  24  28
ENDBRANCH  19  21
ENDBRANCH   2  19
BRANCH   6  33
ATOM     33  C   UNL     1      -1.228   2.420  -1.503  0.00  0.00    +0.107 C 
BRANCH  33  34
ATOM     34  C   UNL     1      -2.013   2.556  -0.197  0.00  0.00    +0.000 C 
BRANCH  34  35
ATOM     35  C   UNL     1      -3.101   3.618  -0.365  0.00  0.00    -0.078 C 
BRANCH  35  36
ATOM     36  N   UNL     1      -3.855   3.749   0.889  0.00  0.00    +0.376 N 
ATOM     37  C   UNL     1      -4.747   4.916   0.848  0.00  0.00    -0.097 C 
ATOM     38  C   UNL     1      -4.607   2.521   1.182  0.00  0.00    -0.097 C 
ATOM     39  H   UNL     1      -3.132   3.905   1.704  0.00  0.00    -0.083 HD
ENDBRANCH  35  36
ENDBRANCH  34  35
ENDBRANCH  33  34
ENDBRANCH   6  33
TORSDOF 13
