REMARK  Name = ZINC02324812
REMARK  14 active torsions:
REMARK  status: ('A' for Active; 'I' for Inactive)
REMARK    1  A    between atoms: C_1  and  C_2
REMARK    2  A    between atoms: C_2  and  N_3
REMARK    3  A    between atoms: N_3  and  C_4
REMARK    4  A    between atoms: N_3  and  C_6
REMARK    5  A    between atoms: C_4  and  C_5
REMARK    6  A    between atoms: C_9  and  C_13
REMARK    7  A    between atoms: C_10  and  O_12
REMARK    8  A    between atoms: N_14  and  N_15
REMARK    9  A    between atoms: C_16  and  C_18
REMARK   10  A    between atoms: C_18  and  S_19
REMARK   11  A    between atoms: S_19  and  C_20
REMARK   12  A    between atoms: C_23  and  C_31
REMARK   13  A    between atoms: N_24  and  C_25
REMARK   14  A    between atoms: C_34  and  C_37
REMARK                            x       y       z     vdW  Elec       q    Type
REMARK                         _______ _______ _______ _____ _____    ______ ____
ROOT
ATOM      1  C   UNL     1      -3.866   6.186   0.054  0.00  0.00    +0.174 C 
ENDROOT
BRANCH   1   3
ATOM      2  N   UNL     1      -2.537   4.100   0.036  0.00  0.00    -0.206 N 
ATOM      3  C   UNL     1      -2.553   5.447   0.044  0.00  0.00    +0.242 C 
ATOM      4  O   UNL     1      -1.509   6.066   0.042  0.00  0.00    -0.273 OA
ATOM      5  H   UNL     1      -3.372   3.605   0.038  0.00  0.00    +0.177 HD
BRANCH   2   7
ATOM      6  C   UNL     1      -1.301   2.115   0.020  0.00  0.00    +0.142 C 
ATOM      7  N   UNL     1      -1.316   3.413   0.027  0.00  0.00    -0.188 NA
BRANCH   6  11
ATOM      8  C   UNL     1       2.402   0.033  -0.021  0.00  0.00    +0.033 A 
ATOM      9  C   UNL     1       1.204  -0.676  -0.013  0.00  0.00    +0.024 A 
ATOM     10  C   UNL     1       0.002  -0.004   0.002  0.00  0.00    +0.015 A 
ATOM     11  C   UNL     1      -0.017   1.393   0.010  0.00  0.00    +0.036 A 
ATOM     12  C   UNL     1       1.191   2.107   0.002  0.00  0.00    +0.127 A 
ATOM     13  C   UNL     1       2.393   1.422  -0.014  0.00  0.00    +0.069 A 
BRANCH  12  14
ATOM     14  O   UNL     1       1.180   3.464   0.009  0.00  0.00    -0.506 OA
ATOM     15  H   UNL     1       1.185   3.853   0.894  0.00  0.00    +0.292 HD
ENDBRANCH  12  14
BRANCH   8  16
ATOM     16  N   UNL     1       3.616  -0.654  -0.036  0.00  0.00    -0.330 N 
BRANCH  16  18
ATOM     17  C   UNL     1       3.619  -2.621  -1.489  0.00  0.00    +0.024 C 
ATOM     18  C   UNL     1       3.628  -2.119  -0.044  0.00  0.00    +0.102 C 
ENDBRANCH  16  18
BRANCH  16  19
ATOM     19  C   UNL     1       4.878   0.090  -0.044  0.00  0.00    +0.102 C 
ATOM     20  C   UNL     1       5.331   0.341   1.396  0.00  0.00    +0.024 C 
ENDBRANCH  16  19
ENDBRANCH   8  16
ENDBRANCH   6  11
ENDBRANCH   2   7
ENDBRANCH   1   3
BRANCH   1  21
ATOM     21  S   UNL     1      -3.556   7.969   0.062  0.00  0.00    -0.076 S 
BRANCH  21  22
ATOM     22  C   UNL     1      -5.213   8.568   0.073  0.00  0.00    +0.197 A 
ATOM     23  N   UNL     1      -6.307   7.838   0.075  0.00  0.00    -0.122 NA
ATOM     24  N   UNL     1      -7.345   8.595   0.084  0.00  0.00    -0.128 NA
ATOM     25  C   UNL     1      -6.980   9.856   0.089  0.00  0.00    +0.169 A 
ATOM     26  N   UNL     1      -5.603   9.879   0.088  0.00  0.00    -0.270 N 
BRANCH  25  27
ATOM     27  C   UNL     1      -7.879  11.030   0.100  0.00  0.00    +0.020 A 
ATOM     28  C   UNL     1      -7.379  12.298  -0.203  0.00  0.00    +0.012 A 
ATOM     29  C   UNL     1      -8.224  13.389  -0.197  0.00  0.00    +0.004 A 
ATOM     30  C   UNL     1      -9.561  13.229   0.119  0.00  0.00    -0.050 A 
ATOM     31  C   UNL     1     -10.062  11.977   0.426  0.00  0.00    +0.004 A 
ATOM     32  C   UNL     1      -9.229  10.877   0.418  0.00  0.00    +0.012 A 
ATOM     33  C   UNL     1     -10.477  14.426   0.130  0.00  0.00    +0.044 C 
ENDBRANCH  25  27
BRANCH  26  34
ATOM     34  C   UNL     1      -4.774  11.009   0.097  0.00  0.00    +0.051 A 
ATOM     35  C   UNL     1      -4.772  11.862   1.192  0.00  0.00    +0.026 A 
ATOM     36  C   UNL     1      -3.950  12.972   1.200  0.00  0.00    +0.002 A 
ATOM     37  C   UNL     1      -3.137  13.240   0.114  0.00  0.00    +0.000 A 
ATOM     38  C   UNL     1      -3.140  12.395  -0.981  0.00  0.00    +0.002 A 
ATOM     39  C   UNL     1      -3.957  11.281  -0.992  0.00  0.00    +0.026 A 
ENDBRANCH  26  34
ENDBRANCH  21  22
ENDBRANCH   1  21
TORSDOF 11
