REMARK  Name = ZINC09625183
REMARK  3 active torsions:
REMARK  status: ('A' for Active; 'I' for Inactive)
REMARK    1  A    between atoms: C_1  and  S_2
REMARK    2  A    between atoms: S_2  and  C_3
REMARK    3  A    between atoms: C_16  and  C_18
REMARK                            x       y       z     vdW  Elec       q    Type
REMARK                         _______ _______ _______ _____ _____    ______ ____
ROOT
ATOM      1  C   UNL     1       2.468   4.061   0.001  0.00  0.00    +0.136 A 
ATOM      2  N   UNL     1       1.299   3.462   0.009  0.00  0.00    -0.233 NA
ATOM      3  C   UNL     1       1.173   2.118   0.002  0.00  0.00    +0.081 A 
ATOM      4  C   UNL     1      -0.016   1.345   0.009  0.00  0.00    +0.031 A 
ATOM      5  C   UNL     1       0.002  -0.004   0.002  0.00  0.00    +0.031 A 
ATOM      6  C   UNL     1       1.212  -0.744  -0.013  0.00  0.00    +0.081 A 
ATOM      7  C   UNL     1       2.400   0.021  -0.021  0.00  0.00    +0.057 A 
ATOM      8  C   UNL     1       2.381   1.387  -0.013  0.00  0.00    +0.056 A 
ATOM      9  S   UNL     1       3.602   2.680  -0.017  0.00  0.00    -0.060 S 
ATOM     10  S   UNL     1       3.655  -1.238  -0.040  0.00  0.00    -0.051 S 
ATOM     11  C   UNL     1       2.559  -2.650  -0.037  0.00  0.00    +0.166 A 
ATOM     12  N   UNL     1       1.375  -2.084  -0.023  0.00  0.00    -0.225 NA
ATOM     13  N   UNL     1       2.878  -3.998  -0.048  0.00  0.00    -0.258 N 
ATOM     14  C   UNL     1       1.897  -4.922  -0.043  0.00  0.00    +0.288 C 
ATOM     15  O   UNL     1       0.733  -4.573  -0.031  0.00  0.00    -0.266 OA
ATOM     16  H   UNL     1       3.807  -4.276  -0.058  0.00  0.00    +0.157 HD
ENDROOT
BRANCH  14  17
ATOM     17  C   UNL     1       2.237  -6.357  -0.054  0.00  0.00    +0.222 A 
ATOM     18  C   UNL     1       1.362  -7.410  -0.051  0.00  0.00    +0.077 A 
ATOM     19  C   UNL     1       2.200  -8.546  -0.066  0.00  0.00    +0.157 A 
ATOM     20  N   UNL     1       3.424  -8.105  -0.075  0.00  0.00    -0.086 NA
ATOM     21  O   UNL     1       3.470  -6.897  -0.074  0.00  0.00    -0.350 OA
ENDBRANCH  14  17
BRANCH   1  23
ATOM     22  C   UNL     1       1.147   6.457   0.025  0.00  0.00    +0.092 C 
ATOM     23  S   UNL     1       2.827   5.786   0.007  0.00  0.00    -0.102 S 
ENDBRANCH   1  23
TORSDOF 2
