REMARK  Name = ZINC20344235
REMARK  8 active torsions:
REMARK  status: ('A' for Active; 'I' for Inactive)
REMARK    1  A    between atoms: C_1  and  C_2
REMARK    2  A    between atoms: C_4  and  O_5
REMARK    3  A    between atoms: N_13  and  C_14
REMARK    4  A    between atoms: C_14  and  N_16
REMARK    5  A    between atoms: N_19  and  C_22
REMARK    6  A    between atoms: C_22  and  C_23
REMARK    7  A    between atoms: C_27  and  O_29
REMARK    8  A    between atoms: O_29  and  C_30
REMARK                            x       y       z     vdW  Elec       q    Type
REMARK                         _______ _______ _______ _____ _____    ______ ____
ROOT
ATOM      1  C   UNL     1       1.313   8.150  -4.409  0.00  0.00    +0.137 C 
ATOM      2  S   UNL     1       0.762   9.761  -4.587  0.00  0.00    -0.018 S 
ENDROOT
BRANCH   1  14
ATOM      3  C   UNL     1       0.733   4.499 -10.454  0.00  0.00    +0.045 C 
ATOM      4  C   UNL     1       2.062   4.769  -9.796  0.00  0.00    -0.033 A 
ATOM      5  C   UNL     1       3.216   4.298 -10.337  0.00  0.00    +0.091 A 
ATOM      6  C   UNL     1       4.447   4.564  -9.703  0.00  0.00    +0.285 A 
ATOM      7  O   UNL     1       4.516   5.277  -8.568  0.00  0.00    -0.425 OA
ATOM      8  C   UNL     1       3.407   5.773  -7.979  0.00  0.00    +0.141 A 
ATOM      9  C   UNL     1       2.144   5.545  -8.558  0.00  0.00    +0.021 A 
ATOM     10  C   UNL     1       0.992   6.058  -7.951  0.00  0.00    +0.013 A 
ATOM     11  C   UNL     1       1.096   6.775  -6.794  0.00  0.00    +0.024 A 
ATOM     12  C   UNL     1       2.344   7.009  -6.219  0.00  0.00    +0.036 A 
ATOM     13  C   UNL     1       3.496   6.508  -6.807  0.00  0.00    +0.070 A 
ATOM     14  N   UNL     1       2.434   7.748  -5.040  0.00  0.00    -0.297 N 
ATOM     15  H   UNL     1       3.421   8.003  -4.624  0.00  0.00    +0.154 HD
BRANCH   6  16
ATOM     16  O   UNL     1       5.474   4.136 -10.198  0.00  0.00    -0.480 OA
ATOM     17  H   UNL     1       6.442   4.335  -9.716  0.00  0.00    +0.295 HD
ENDBRANCH   6  16
ENDBRANCH   1  14
BRANCH   1  18
ATOM     18  N   UNL     1       0.626   7.284  -3.638  0.00  0.00    -0.310 N 
ATOM     19  C   UNL     1      -0.537   7.729  -2.855  0.00  0.00    +0.122 C 
ATOM     20  C   UNL     1      -0.353   7.268  -1.405  0.00  0.00    +0.103 C 
ATOM     21  N   UNL     1      -0.106   5.820  -1.383  0.00  0.00    -0.295 NA
ATOM     22  C   UNL     1       1.141   5.481  -2.080  0.00  0.00    +0.103 C 
ATOM     23  C   UNL     1       1.019   5.869  -3.558  0.00  0.00    +0.122 C 
BRANCH  21  24
ATOM     24  C   UNL     1      -0.096   5.309  -0.006  0.00  0.00    +0.119 C 
BRANCH  24  25
ATOM     25  C   UNL     1      -0.087   3.802  -0.029  0.00  0.00    -0.030 A 
ATOM     26  C   UNL     1       1.115   3.118  -0.047  0.00  0.00    +0.005 A 
ATOM     27  C   UNL     1       1.126   1.736  -0.069  0.00  0.00    +0.004 A 
ATOM     28  C   UNL     1      -0.064   1.034  -0.073  0.00  0.00    +0.045 A 
ATOM     29  C   UNL     1      -1.271   1.718  -0.061  0.00  0.00    +0.120 A 
ATOM     30  C   UNL     1      -1.280   3.105  -0.033  0.00  0.00    +0.050 A 
BRANCH  29  31
ATOM     31  O   UNL     1      -2.443   1.030  -0.071  0.00  0.00    -0.495 OA
ATOM     32  C   UNL     1      -2.358  -0.396  -0.094  0.00  0.00    +0.277 C 
ENDBRANCH  29  31
ENDBRANCH  24  25
ENDBRANCH  21  24
ENDBRANCH   1  18
TORSDOF 6
