REMARK  Name = ZINC39711274
REMARK  10 active torsions:
REMARK  status: ('A' for Active; 'I' for Inactive)
REMARK    1  A    between atoms: C_1  and  C_2
REMARK    2  A    between atoms: C_6  and  C_15
REMARK    3  A    between atoms: C_13  and  C_14
REMARK    4  A    between atoms: C_15  and  C_17
REMARK    5  A    between atoms: C_15  and  N_29
REMARK    6  A    between atoms: N_22  and  C_23
REMARK    7  A    between atoms: N_29  and  C_30
REMARK    8  A    between atoms: N_29  and  C_36
REMARK    9  A    between atoms: C_30  and  C_31
REMARK   10  A    between atoms: C_36  and  C_37
REMARK                            x       y       z     vdW  Elec       q    Type
REMARK                         _______ _______ _______ _____ _____    ______ ____
ROOT
ATOM      1  C   UNL     1       1.281  -5.594  -2.839  0.00  0.00    -0.008 C 
ENDROOT
BRANCH   1   7
ATOM      2  C   UNL     1       0.529  -0.137   1.707  0.00  0.00    +0.044 C 
ATOM      3  C   UNL     1       0.824  -1.576   1.367  0.00  0.00    -0.047 A 
ATOM      4  C   UNL     1       0.343  -2.098   0.209  0.00  0.00    +0.013 A 
ATOM      5  C   UNL     1       0.636  -3.495  -0.110  0.00  0.00    -0.007 A 
ATOM      6  C   UNL     1       0.175  -4.062  -1.261  0.00  0.00    -0.006 C 
ATOM      7  C   UNL     1       0.528  -5.515  -1.510  0.00  0.00    +0.088 C 
ATOM      8  C   UNL     1       1.361  -6.218  -0.463  0.00  0.00    +0.223 C 
ATOM      9  O   UNL     1       1.673  -7.384  -0.612  0.00  0.00    -0.275 OA
ATOM     10  N   UNL     1       1.750  -5.559   0.616  0.00  0.00    -0.285 N 
ATOM     11  C   UNL     1       1.443  -4.282   0.840  0.00  0.00    +0.041 A 
ATOM     12  C   UNL     1       1.892  -3.645   2.011  0.00  0.00    +0.027 A 
ATOM     13  C   UNL     1       1.590  -2.341   2.247  0.00  0.00    -0.046 A 
ATOM     14  C   UNL     1       2.098  -1.699   3.512  0.00  0.00    +0.044 C 
ATOM     15  H   UNL     1       2.284  -6.029   1.276  0.00  0.00    +0.155 HD
ENDBRANCH   1   7
BRANCH   1  16
ATOM     16  C   UNL     1       2.639  -4.902  -2.698  0.00  0.00    +0.205 C 
ATOM     17  N   UNL     1       3.329  -5.370  -1.488  0.00  0.00    -0.152 NA
ATOM     18  N   UNL     1       3.511  -4.410  -0.737  0.00  0.00    -0.070 NA
ATOM     19  N   UNL     1       3.018  -3.213  -1.256  0.00  0.00    -0.179 N 
ATOM     20  N   UNL     1       2.458  -3.450  -2.486  0.00  0.00    -0.185 NA
ATOM     21  H   UNL     1       3.064  -2.349  -0.817  0.00  0.00    +0.191 HD
BRANCH  20  22
ATOM     22  C   UNL     1       3.137  -2.677  -3.534  0.00  0.00    +0.080 C 
ATOM     23  C   UNL     1       4.649  -2.881  -3.419  0.00  0.00    +0.021 C 
ATOM     24  C   UNL     1       5.357  -2.075  -4.511  0.00  0.00    +0.002 C 
ATOM     25  C   UNL     1       5.028  -0.591  -4.343  0.00  0.00    +0.000 C 
ATOM     26  C   UNL     1       3.516  -0.387  -4.459  0.00  0.00    +0.002 C 
ATOM     27  C   UNL     1       2.808  -1.192  -3.367  0.00  0.00    +0.021 C 
ENDBRANCH  20  22
ENDBRANCH   1  16
BRANCH   1  28
ATOM     28  N   UNL     1       1.485  -7.003  -3.204  0.00  0.00    +0.392 N 
ATOM     29  H   UNL     1       1.758  -7.526  -2.385  0.00  0.00    -0.080 HD
BRANCH  28  30
ATOM     30  C   UNL     1       2.542  -7.097  -4.220  0.00  0.00    -0.002 C 
BRANCH  30  31
ATOM     31  C   UNL     1       3.885  -7.177  -3.541  0.00  0.00    +0.089 A 
ATOM     32  C   UNL     1       4.435  -8.285  -3.012  0.00  0.00    +0.042 A 
ATOM     33  C   UNL     1       5.691  -7.907  -2.484  0.00  0.00    +0.041 A 
ATOM     34  C   UNL     1       5.833  -6.590  -2.721  0.00  0.00    +0.195 A 
ATOM     35  O   UNL     1       4.739  -6.155  -3.367  0.00  0.00    -0.470 OA
ENDBRANCH  30  31
ENDBRANCH  28  30
BRANCH  28  36
ATOM     36  C   UNL     1       0.236  -7.555  -3.744  0.00  0.00    -0.034 C 
BRANCH  36  37
ATOM     37  C   UNL     1      -0.789  -7.648  -2.643  0.00  0.00    -0.027 A 
ATOM     38  C   UNL     1      -1.933  -6.941  -2.480  0.00  0.00    +0.009 A 
ATOM     39  C   UNL     1      -2.731  -7.200  -1.381  0.00  0.00    +0.008 A 
ATOM     40  C   UNL     1      -2.345  -8.154  -0.499  0.00  0.00    +0.045 A 
ATOM     41  S   UNL     1      -0.815  -8.726  -1.220  0.00  0.00    -0.103 S 
ENDBRANCH  36  37
ENDBRANCH  28  36
ENDBRANCH   1  28
TORSDOF 8
