REMARK  Name = ZINC58094838
REMARK  5 active torsions:
REMARK  status: ('A' for Active; 'I' for Inactive)
REMARK    1  A    between atoms: C_1  and  C_2
REMARK    2  A    between atoms: C_4  and  C_14
REMARK    3  A    between atoms: C_11  and  C_13
REMARK    4  A    between atoms: C_14  and  C_16
REMARK    5  A    between atoms: C_14  and  O_21
REMARK                            x       y       z     vdW  Elec       q    Type
REMARK                         _______ _______ _______ _____ _____    ______ ____
ROOT
ATOM      1  C   UNL     1      -0.018   1.503   0.010  0.00  0.00    +0.045 C 
ATOM      2  C   UNL     1       0.002  -0.004   0.002  0.00  0.00    -0.029 A 
ATOM      3  C   UNL     1       0.006  -0.686  -1.198  0.00  0.00    +0.011 A 
ATOM      4  C   UNL     1       0.024  -2.068  -1.216  0.00  0.00    -0.011 A 
ATOM      5  C   UNL     1       0.039  -2.773  -0.024  0.00  0.00    +0.012 A 
ATOM      6  C   UNL     1       0.036  -2.095   1.174  0.00  0.00    -0.014 A 
ATOM      7  C   UNL     1       0.023  -0.706   1.206  0.00  0.00    +0.040 A 
ATOM      8  N   UNL     1       0.029  -0.253   2.525  0.00  0.00    -0.285 N 
ATOM      9  C   UNL     1       0.052  -1.264   3.410  0.00  0.00    +0.224 C 
ATOM     10  O   UNL     1       0.062  -1.164   4.619  0.00  0.00    -0.275 OA
ATOM     11  C   UNL     1       0.049  -2.553   2.614  0.00  0.00    +0.104 C 
ATOM     12  C   UNL     1      -1.197  -3.386   2.923  0.00  0.00    +0.022 C 
ATOM     13  H   UNL     1       0.019   0.684   2.776  0.00  0.00    +0.155 HD
ENDROOT
BRANCH   4  14
ATOM     14  C   UNL     1       0.027  -2.807  -2.530  0.00  0.00    +0.210 C 
BRANCH  14  15
ATOM     15  C   UNL     1      -1.375  -2.856  -3.081  0.00  0.00    +0.138 A 
ATOM     16  C   UNL     1      -2.251  -3.864  -2.914  0.00  0.00    +0.047 A 
ATOM     17  C   UNL     1      -3.434  -3.495  -3.595  0.00  0.00    +0.041 A 
ATOM     18  C   UNL     1      -3.210  -2.284  -4.136  0.00  0.00    +0.195 A 
ATOM     19  O   UNL     1      -1.964  -1.899  -3.817  0.00  0.00    -0.465 OA
ENDBRANCH  14  15
BRANCH  14  20
ATOM     20  O   UNL     1       0.879  -2.129  -3.455  0.00  0.00    -0.379 OA
ATOM     21  H   UNL     1       0.613  -1.218  -3.640  0.00  0.00    +0.211 HD
ENDBRANCH  14  20
ENDBRANCH   4  14
TORSDOF 3
