REMARK  Name = ZINC62126572
REMARK  6 active torsions:
REMARK  status: ('A' for Active; 'I' for Inactive)
REMARK    1  A    between atoms: C_1  and  C_2
REMARK    2  A    between atoms: C_6  and  C_9
REMARK    3  A    between atoms: C_6  and  C_10
REMARK    4  A    between atoms: C_11  and  C_13
REMARK    5  A    between atoms: C_13  and  C_15
REMARK    6  A    between atoms: C_13  and  C_25
REMARK                            x       y       z     vdW  Elec       q    Type
REMARK                         _______ _______ _______ _____ _____    ______ ____
ROOT
ATOM      1  C   UNL     1      -2.925  -2.915  -1.809  0.00  0.00    +0.108 C 
ENDROOT
BRANCH   1  11
ATOM      2  C   UNL     1       1.578  -4.468  -3.581  0.00  0.00    +0.039 C 
ATOM      3  C   UNL     1       0.684  -4.755  -2.373  0.00  0.00    +0.133 C 
ATOM      4  C   UNL     1      -0.135  -3.504  -2.033  0.00  0.00    +0.139 C 
ATOM      5  N   UNL     1      -0.841  -3.742  -0.764  0.00  0.00    -0.291 N 
ATOM      6  C   UNL     1      -0.059  -4.234   0.381  0.00  0.00    +0.055 C 
ATOM      7  C   UNL     1       0.756  -5.449  -0.077  0.00  0.00    +0.185 C 
ATOM      8  O   UNL     1       1.496  -5.106  -1.250  0.00  0.00    -0.373 OA
ATOM      9  C   UNL     1       0.886  -3.135   0.870  0.00  0.00    +0.034 C 
ATOM     10  C   UNL     1      -1.004  -4.644   1.512  0.00  0.00    +0.034 C 
ATOM     11  C   UNL     1      -2.165  -3.516  -0.654  0.00  0.00    +0.224 C 
ATOM     12  O   UNL     1      -2.745  -3.796   0.373  0.00  0.00    -0.275 OA
ENDBRANCH   1  11
BRANCH   1  13
ATOM     13  C   UNL     1      -3.449  -4.017  -2.694  0.00  0.00    -0.032 A 
ATOM     14  C   UNL     1      -4.320  -4.959  -2.180  0.00  0.00    +0.008 A 
ATOM     15  C   UNL     1      -4.801  -5.972  -2.988  0.00  0.00    +0.050 A 
ATOM     16  C   UNL     1      -4.411  -6.045  -4.317  0.00  0.00    +0.162 A 
ATOM     17  C   UNL     1      -3.537  -5.096  -4.834  0.00  0.00    +0.162 A 
ATOM     18  C   UNL     1      -3.061  -4.080  -4.019  0.00  0.00    +0.053 A 
ATOM     19  O   UNL     1      -3.148  -5.144  -6.138  0.00  0.00    -0.485 OA
ATOM     20  C   UNL     1      -3.354  -6.383  -6.825  0.00  0.00    +0.270 C 
ATOM     21  C   UNL     1      -4.775  -6.873  -6.516  0.00  0.00    +0.270 C 
ATOM     22  O   UNL     1      -4.890  -7.050  -5.100  0.00  0.00    -0.485 OA
ENDBRANCH   1  13
BRANCH   1  23
ATOM     23  C   UNL     1      -4.098  -2.091  -1.273  0.00  0.00    +0.005 C 
ATOM     24  C   UNL     1      -4.887  -1.472  -2.445  0.00  0.00    +0.004 C 
ATOM     25  C   UNL     1      -5.305  -0.074  -1.925  0.00  0.00    +0.000 C 
ATOM     26  C   UNL     1      -4.064   0.375  -1.115  0.00  0.00    +0.000 C 
ATOM     27  C   UNL     1      -3.574  -0.916  -0.428  0.00  0.00    +0.004 C 
ENDBRANCH   1  23
TORSDOF 3
