REMARK  Name = ZINC12516455
REMARK  10 active torsions:
REMARK  status: ('A' for Active; 'I' for Inactive)
REMARK    1  A    between atoms: C_1  and  C_2
REMARK    2  A    between atoms: C_2  and  C_4
REMARK    3  A    between atoms: C_2  and  N_62
REMARK    4  A    between atoms: C_7  and  S_16
REMARK    5  A    between atoms: N_8  and  C_9
REMARK    6  A    between atoms: S_16  and  C_17
REMARK    7  A    between atoms: C_17  and  C_18
REMARK    8  A    between atoms: N_20  and  N_21
REMARK    9  A    between atoms: C_33  and  N_62
REMARK   10  A    between atoms: C_34  and  N_62
REMARK                            x       y       z     vdW  Elec       q    Type
REMARK                         _______ _______ _______ _____ _____    ______ ____
ROOT
ATOM      1  S   UNL     1      -2.014   5.610   5.729  0.00  0.00    -0.076 S 
ENDROOT
BRANCH   1   5
ATOM      2  C   UNL     1      -1.451   3.475   2.510  0.00  0.00    +0.125 A 
ATOM      3  N   UNL     1      -2.567   2.993   2.978  0.00  0.00    -0.135 NA
ATOM      4  N   UNL     1      -2.891   3.601   4.063  0.00  0.00    -0.122 NA
ATOM      5  C   UNL     1      -1.996   4.519   4.345  0.00  0.00    +0.197 A 
ATOM      6  N   UNL     1      -1.047   4.468   3.362  0.00  0.00    -0.275 N 
BRANCH   6   7
ATOM      7  C   UNL     1       0.102   5.267   3.250  0.00  0.00    +0.050 A 
ATOM      8  C   UNL     1       1.361   4.692   3.353  0.00  0.00    +0.029 A 
ATOM      9  C   UNL     1       2.490   5.479   3.237  0.00  0.00    +0.040 A 
ATOM     10  C   UNL     1       2.366   6.842   3.028  0.00  0.00    +0.124 A 
ATOM     11  C   UNL     1       1.111   7.418   2.929  0.00  0.00    +0.040 A 
ATOM     12  C   UNL     1      -0.020   6.634   3.040  0.00  0.00    +0.029 A 
ATOM     13  F   UNL     1       3.472   7.611   2.920  0.00  0.00    -0.205 F 
ENDBRANCH   6   7
BRANCH   2  15
ATOM     14  C   UNL     1      -1.486   3.553   0.032  0.00  0.00    -0.005 C 
ATOM     15  C   UNL     1      -0.740   3.027   1.259  0.00  0.00    -0.003 C 
BRANCH  15  18
ATOM     16  C   UNL     1      -0.013   1.086   0.008  0.00  0.00    -0.096 C 
ATOM     17  C   UNL     1      -0.072   1.015   2.428  0.00  0.00    -0.096 C 
ATOM     18  N   UNL     1      -0.727   1.550   1.216  0.00  0.00    +0.382 N 
ATOM     19  H   UNL     1      -1.695   1.209   1.182  0.00  0.00    -0.082 HD
ENDBRANCH  15  18
ENDBRANCH   2  15
ENDBRANCH   1   5
BRANCH   1  20
ATOM     20  C   UNL     1      -3.543   5.071   6.534  0.00  0.00    +0.174 C 
BRANCH  20  21
ATOM     21  C   UNL     1      -3.770   5.889   7.779  0.00  0.00    +0.240 C 
ATOM     22  O   UNL     1      -2.976   6.751   8.092  0.00  0.00    -0.273 OA
ATOM     23  N   UNL     1      -4.855   5.662   8.546  0.00  0.00    -0.223 N 
ATOM     24  H   UNL     1      -5.490   4.972   8.296  0.00  0.00    +0.174 HD
BRANCH  23  25
ATOM     25  N   UNL     1      -5.066   6.423   9.704  0.00  0.00    -0.137 N 
ATOM     26  C   UNL     1      -5.981   7.409   9.806  0.00  0.00    +0.263 C 
ATOM     27  O   UNL     1      -6.748   7.791   8.949  0.00  0.00    -0.271 OA
ATOM     28  C   UNL     1      -5.849   7.936  11.217  0.00  0.00    +0.114 C 
ATOM     29  C   UNL     1      -7.155   7.742  11.981  0.00  0.00    +0.035 C 
ATOM     30  C   UNL     1      -6.992   8.256  13.414  0.00  0.00    +0.003 C 
ATOM     31  C   UNL     1      -6.616   9.739  13.382  0.00  0.00    +0.000 C 
ATOM     32  C   UNL     1      -5.293   9.914  12.634  0.00  0.00    +0.003 C 
ATOM     33  C   UNL     1      -5.448   9.407  11.199  0.00  0.00    +0.035 C 
ATOM     34  N   UNL     1      -4.782   7.118  11.805  0.00  0.00    -0.284 N 
ATOM     35  C   UNL     1      -4.389   6.257  10.847  0.00  0.00    +0.326 C 
ATOM     36  O   UNL     1      -3.517   5.425  11.001  0.00  0.00    -0.251 OA
ATOM     37  H   UNL     1      -4.431   7.182  12.707  0.00  0.00    +0.151 HD
ENDBRANCH  23  25
ENDBRANCH  20  21
ENDBRANCH   1  20
TORSDOF 7
