REMARK  Name = ZINC35022451
REMARK  5 active torsions:
REMARK  status: ('A' for Active; 'I' for Inactive)
REMARK    1  A    between atoms: C_4  and  N_7
REMARK    2  A    between atoms: N_10  and  C_11
REMARK    3  A    between atoms: C_17  and  C_22
REMARK    4  A    between atoms: N_24  and  C_25
REMARK    5  A    between atoms: C_25  and  C_26
REMARK                            x       y       z     vdW  Elec       q    Type
REMARK                         _______ _______ _______ _____ _____    ______ ____
ROOT
ATOM      1  C   UNL     1       4.999  -4.045  -0.194  0.00  0.00    +0.119 A 
ATOM      2  C   UNL     1       3.815  -4.763  -0.195  0.00  0.00    +0.142 A 
ATOM      3  N   UNL     1       3.844  -6.088  -0.210  0.00  0.00    -0.235 NA
ATOM      4  C   UNL     1       4.991  -6.759  -0.223  0.00  0.00    +0.140 A 
ATOM      5  C   UNL     1       4.965  -8.168  -0.239  0.00  0.00    +0.047 A 
ATOM      6  C   UNL     1       6.131  -8.865  -0.253  0.00  0.00    +0.018 A 
ATOM      7  C   UNL     1       7.361  -8.164  -0.252  0.00  0.00    +0.053 A 
ATOM      8  C   UNL     1       7.362  -6.787  -0.236  0.00  0.00    +0.109 A 
ATOM      9  N   UNL     1       6.191  -6.098  -0.223  0.00  0.00    -0.266 N 
ATOM     10  C   UNL     1       6.216  -4.747  -0.214  0.00  0.00    +0.280 A 
ATOM     11  O   UNL     1       7.279  -4.146  -0.219  0.00  0.00    -0.265 OA
ENDROOT
BRANCH   1  15
ATOM     12  N   UNL     1       5.492  -0.628   0.890  0.00  0.00    -0.269 N 
ATOM     13  C   UNL     1       5.590  -1.970   0.821  0.00  0.00    +0.308 C 
ATOM     14  O   UNL     1       6.227  -2.577   1.661  0.00  0.00    -0.252 OA
ATOM     15  N   UNL     1       4.983  -2.640  -0.178  0.00  0.00    -0.264 N 
ATOM     16  H   UNL     1       4.923  -0.151   0.266  0.00  0.00    +0.156 HD
ATOM     17  H   UNL     1       4.535  -2.152  -0.887  0.00  0.00    +0.157 HD
BRANCH  12  21
ATOM     18  C   UNL     1       7.629   1.472   3.785  0.00  0.00    +0.000 A 
ATOM     19  C   UNL     1       8.160   0.319   3.236  0.00  0.00    +0.002 A 
ATOM     20  C   UNL     1       7.454  -0.380   2.277  0.00  0.00    +0.023 A 
ATOM     21  C   UNL     1       6.210   0.077   1.863  0.00  0.00    +0.035 A 
ATOM     22  C   UNL     1       5.679   1.236   2.415  0.00  0.00    +0.023 A 
ATOM     23  C   UNL     1       6.391   1.930   3.374  0.00  0.00    +0.002 A 
ENDBRANCH  12  21
ENDBRANCH   1  15
BRANCH   7  24
ATOM     24  C   UNL     1       8.637  -8.905  -0.266  0.00  0.00    +0.245 C 
ATOM     25  O   UNL     1       9.692  -8.301  -0.265  0.00  0.00    -0.270 OA
ATOM     26  N   UNL     1       8.633 -10.253  -0.280  0.00  0.00    -0.311 N 
ATOM     27  H   UNL     1       7.792 -10.736  -0.281  0.00  0.00    +0.149 HD
BRANCH  26  28
ATOM     28  C   UNL     1       9.899 -10.989  -0.295  0.00  0.00    +0.108 C 
BRANCH  28  29
ATOM     29  C   UNL     1       9.615 -12.493  -0.309  0.00  0.00    +0.006 C 
ATOM     30  C   UNL     1       8.928 -12.895   0.998  0.00  0.00    +0.005 C 
ATOM     31  C   UNL     1       8.644 -14.398   0.983  0.00  0.00    +0.000 C 
ATOM     32  C   UNL     1       9.961 -15.164   0.842  0.00  0.00    +0.000 C 
ATOM     33  C   UNL     1      10.648 -14.762  -0.464  0.00  0.00    +0.000 C 
ATOM     34  C   UNL     1      10.932 -13.259  -0.450  0.00  0.00    +0.005 C 
ENDBRANCH  28  29
ENDBRANCH  26  28
ENDBRANCH   7  24
TORSDOF 5
