REMARK  Name = ZINC09193705
REMARK  10 active torsions:
REMARK  status: ('A' for Active; 'I' for Inactive)
REMARK    1  A    between atoms: C_1  and  C_2
REMARK    2  A    between atoms: C_5  and  C_8
REMARK    3  A    between atoms: C_8  and  N_9
REMARK    4  A    between atoms: N_9  and  C_10
REMARK    5  A    between atoms: C_10  and  C_12
REMARK    6  A    between atoms: C_10  and  C_19
REMARK    7  A    between atoms: N_21  and  C_22
REMARK    8  A    between atoms: C_22  and  C_23
REMARK    9  A    between atoms: C_29  and  C_31
REMARK   10  A    between atoms: C_31  and  N_32
REMARK                            x       y       z     vdW  Elec       q    Type
REMARK                         _______ _______ _______ _____ _____    ______ ____
ROOT
ATOM      1  N   UNL     1       4.111  -3.258  -4.898  0.00  0.00    -0.280 N 
ATOM      2  C   UNL     1       4.502  -4.533  -4.704  0.00  0.00    +0.238 C 
ATOM      3  O   UNL     1       4.845  -4.901  -3.600  0.00  0.00    -0.274 OA
ENDROOT
BRANCH   1   4
ATOM      4  C   UNL     1       3.710  -2.809  -6.234  0.00  0.00    +0.144 C 
BRANCH   4   9
ATOM      5  C   UNL     1      -1.953  -1.661  -6.264  0.00  0.00    +0.044 C 
ATOM      6  C   UNL     1      -0.476  -1.960  -6.256  0.00  0.00    -0.050 A 
ATOM      7  C   UNL     1       0.418  -1.016  -5.788  0.00  0.00    +0.003 A 
ATOM      8  C   UNL     1       1.773  -1.291  -5.781  0.00  0.00    +0.005 A 
ATOM      9  C   UNL     1       2.233  -2.510  -6.242  0.00  0.00    -0.030 A 
ATOM     10  C   UNL     1       1.339  -3.453  -6.715  0.00  0.00    +0.005 A 
ATOM     11  C   UNL     1      -0.016  -3.179  -6.718  0.00  0.00    +0.003 A 
ENDBRANCH   4   9
ENDBRANCH   1   4
BRANCH   1  12
ATOM     12  C   UNL     1       4.085  -2.320  -3.773  0.00  0.00    +0.193 C 
BRANCH  12  13
ATOM     13  C   UNL     1       5.379  -2.421  -3.006  0.00  0.00    -0.018 A 
ATOM     14  C   UNL     1       6.583  -2.454  -3.684  0.00  0.00    +0.009 A 
ATOM     15  C   UNL     1       7.770  -2.542  -2.982  0.00  0.00    +0.038 A 
ATOM     16  C   UNL     1       7.752  -2.606  -1.599  0.00  0.00    +0.123 A 
ATOM     17  C   UNL     1       6.545  -2.578  -0.921  0.00  0.00    +0.038 A 
ATOM     18  C   UNL     1       5.360  -2.485  -1.625  0.00  0.00    +0.009 A 
ATOM     19  F   UNL     1       8.912  -2.697  -0.911  0.00  0.00    -0.205 F 
ENDBRANCH  12  13
BRANCH  12  20
ATOM     20  C   UNL     1       3.918  -0.915  -4.293  0.00  0.00    +0.238 C 
ATOM     21  O   UNL     1       4.361  -0.615  -5.381  0.00  0.00    -0.273 OA
ATOM     22  N   UNL     1       3.275   0.006  -3.549  0.00  0.00    -0.311 N 
ATOM     23  H   UNL     1       2.920  -0.234  -2.679  0.00  0.00    +0.149 HD
BRANCH  22  24
ATOM     24  C   UNL     1       3.112   1.372  -4.054  0.00  0.00    +0.135 C 
BRANCH  24  25
ATOM     25  C   UNL     1       2.353   2.210  -3.023  0.00  0.00    +0.135 C 
ATOM     26  C   UNL     1       2.067   3.611  -3.596  0.00  0.00    +0.035 C 
ATOM     27  C   UNL     1       2.744   4.577  -2.594  0.00  0.00    +0.031 C 
ATOM     28  C   UNL     1       2.857   3.698  -1.322  0.00  0.00    +0.160 C 
ATOM     29  O   UNL     1       3.158   2.386  -1.845  0.00  0.00    -0.375 OA
ENDBRANCH  24  25
ENDBRANCH  22  24
ENDBRANCH  12  20
ENDBRANCH   1  12
BRANCH   2  30
ATOM     30  C   UNL     1       4.515  -5.501  -5.859  0.00  0.00    +0.241 C 
BRANCH  30  31
ATOM     31  N   UNL     1       5.183  -6.739  -5.451  0.00  0.00    -0.235 N 
ATOM     32  C   UNL     1       6.523  -7.025  -5.560  0.00  0.00    +0.090 A 
ATOM     33  C   UNL     1       7.624  -6.327  -6.045  0.00  0.00    +0.029 A 
ATOM     34  C   UNL     1       8.862  -6.905  -6.014  0.00  0.00    +0.002 A 
ATOM     35  C   UNL     1       9.032  -8.185  -5.502  0.00  0.00    +0.002 A 
ATOM     36  C   UNL     1       7.970  -8.888  -5.013  0.00  0.00    +0.032 A 
ATOM     37  C   UNL     1       6.689  -8.320  -5.038  0.00  0.00    +0.113 A 
ATOM     38  N   UNL     1       5.476  -8.763  -4.651  0.00  0.00    -0.129 NA
ATOM     39  N   UNL     1       4.580  -7.868  -4.877  0.00  0.00    -0.064 NA
ENDBRANCH  30  31
ENDBRANCH   2  30
TORSDOF 9
