REMARK  Name = ZINC36828819
REMARK  3 active torsions:
REMARK  status: ('A' for Active; 'I' for Inactive)
REMARK    1  A    between atoms: C_6  and  N_7
REMARK    2  A    between atoms: N_7  and  S_8
REMARK    3  A    between atoms: S_8  and  C_11
REMARK                            x       y       z     vdW  Elec       q    Type
REMARK                         _______ _______ _______ _____ _____    ______ ____
ROOT
ATOM      1  S   UNL     1      -1.174  -2.376   0.001  0.00  0.00    +0.093 S 
ATOM      2  O   UNL     1      -0.629  -2.768  -1.252  0.00  0.00    -0.148 OA
ATOM      3  O   UNL     1      -0.605  -2.781   1.238  0.00  0.00    -0.148 OA
ENDROOT
BRANCH   1   4
ATOM      4  C   UNL     1      -2.849  -2.922   0.014  0.00  0.00    +0.126 A 
ATOM      5  C   UNL     1      -3.635  -2.745   1.161  0.00  0.00    +0.035 A 
ATOM      6  C   UNL     1      -4.931  -3.173   1.154  0.00  0.00    +0.072 A 
ATOM      7  C   UNL     1      -5.448  -3.781  -0.003  0.00  0.00    +0.249 A 
ATOM      8  O   UNL     1      -6.605  -4.169  -0.022  0.00  0.00    -0.268 OA
ATOM      9  N   UNL     1      -4.667  -3.937  -1.089  0.00  0.00    -0.327 N 
ATOM     10  H   UNL     1      -5.030  -4.357  -1.884  0.00  0.00    +0.168 HD
ATOM     11  C   UNL     1      -3.380  -3.506  -1.086  0.00  0.00    +0.114 A 
ENDBRANCH   1   4
BRANCH   1  12
ATOM     12  N   UNL     1      -1.198  -0.720   0.010  0.00  0.00    -0.098 NA
BRANCH  12  18
ATOM     13  C   UNL     1      -0.017   1.385   0.010  0.00  0.00    +0.028 A 
ATOM     14  C   UNL     1       1.171   2.091   0.002  0.00  0.00    +0.023 A 
ATOM     15  C   UNL     1       2.378   1.416  -0.013  0.00  0.00    +0.059 A 
ATOM     16  C   UNL     1       2.401   0.031  -0.021  0.00  0.00    +0.061 A 
ATOM     17  C   UNL     1       1.216  -0.680  -0.013  0.00  0.00    +0.048 A 
ATOM     18  C   UNL     1       0.002  -0.004   0.002  0.00  0.00    +0.076 A 
ATOM     19 CL   UNL     1       3.918  -0.812  -0.041  0.00  0.00    -0.082 Cl
ATOM     20 CL   UNL     1       3.868   2.307  -0.024  0.00  0.00    -0.082 Cl
ENDBRANCH  12  18
ENDBRANCH   1  12
TORSDOF 3
