REMARK  Name = ZINC12531402
REMARK  3 active torsions:
REMARK  status: ('A' for Active; 'I' for Inactive)
REMARK    1  A    between atoms: C_1  and  C_2
REMARK    2  A    between atoms: C_7  and  C_11
REMARK    3  A    between atoms: C_17  and  C_19
REMARK                            x       y       z     vdW  Elec       q    Type
REMARK                         _______ _______ _______ _____ _____    ______ ____
ROOT
ATOM      1  C   UNL     1      -4.788   2.384   0.063  0.00  0.00    +0.270 C 
ATOM      2  O   UNL     1      -5.424   3.421   0.075  0.00  0.00    -0.268 OA
ATOM      3  N   UNL     1      -5.431   1.200   0.062  0.00  0.00    -0.258 N 
ATOM      4  C   UNL     1      -6.820   1.163   0.077  0.00  0.00    +0.188 A 
ATOM      5  N   UNL     1      -7.700   2.155   0.091  0.00  0.00    -0.126 NA
ATOM      6  N   UNL     1      -8.943   1.942   0.102  0.00  0.00    -0.144 NA
ATOM      7  C   UNL     1      -9.446   0.723   0.100  0.00  0.00    +0.107 A 
ATOM      8  S   UNL     1      -7.936  -0.238   0.073  0.00  0.00    -0.035 S 
ATOM      9  H   UNL     1      -4.924   0.372   0.052  0.00  0.00    +0.157 HD
ENDROOT
BRANCH   1  16
ATOM     10  C   UNL     1       2.472   1.053  -0.016  0.00  0.00    +0.044 C 
ATOM     11  C   UNL     1       1.151   1.778   0.001  0.00  0.00    -0.046 A 
ATOM     12  C   UNL     1       1.117   3.183   0.009  0.00  0.00    +0.021 A 
ATOM     13  C   UNL     1      -0.062   3.836   0.023  0.00  0.00    +0.093 A 
ATOM     14  N   UNL     1      -1.241   3.145   0.031  0.00  0.00    -0.306 N 
ATOM     15  C   UNL     1      -2.542   3.550   0.046  0.00  0.00    +0.125 A 
ATOM     16  C   UNL     1      -3.313   2.423   0.048  0.00  0.00    +0.144 A 
ATOM     17  N   UNL     1      -2.495   1.354   0.034  0.00  0.00    -0.223 NA
ATOM     18  C   UNL     1      -1.241   1.772   0.018  0.00  0.00    +0.139 A 
ATOM     19  C   UNL     1      -0.013   1.076   0.008  0.00  0.00    +0.050 A 
ENDBRANCH   1  16
BRANCH   7  20
ATOM     20  C   UNL     1     -10.883   0.269   0.112  0.00  0.00    +0.047 C 
ATOM     21  C   UNL     1     -11.599   0.811  -1.127  0.00  0.00    +0.010 C 
ATOM     22  C   UNL     1     -13.058   0.350  -1.115  0.00  0.00    +0.001 C 
ATOM     23  C   UNL     1     -13.749   0.876   0.144  0.00  0.00    +0.000 C 
ATOM     24  C   UNL     1     -13.033   0.334   1.383  0.00  0.00    +0.001 C 
ATOM     25  C   UNL     1     -11.574   0.795   1.371  0.00  0.00    +0.010 C 
ENDBRANCH   7  20
TORSDOF 2
