REMARK  Name = ZINC36207132
REMARK  14 active torsions:
REMARK  status: ('A' for Active; 'I' for Inactive)
REMARK    1  A    between atoms: C_1  and  C_2
REMARK    2  A    between atoms: C_2  and  C_3
REMARK    3  A    between atoms: C_2  and  N_4
REMARK    4  A    between atoms: N_4  and  C_5
REMARK    5  A    between atoms: N_4  and  C_25
REMARK    6  A    between atoms: C_5  and  C_6
REMARK    7  A    between atoms: C_12  and  C_17
REMARK    8  A    between atoms: C_22  and  O_23
REMARK    9  A    between atoms: O_23  and  C_24
REMARK   10  A    between atoms: C_25  and  C_26
REMARK   11  A    between atoms: C_26  and  C_28
REMARK   12  A    between atoms: C_26  and  O_37
REMARK   13  A    between atoms: C_28  and  O_29
REMARK   14  A    between atoms: O_29  and  C_30
REMARK                            x       y       z     vdW  Elec       q    Type
REMARK                         _______ _______ _______ _____ _____    ______ ____
ROOT
ATOM      1  C   UNL     1       0.871  -2.026  -0.961  0.00  0.00    -0.003 C 
ENDROOT
BRANCH   1   2
ATOM      2  C   UNL     1      -0.465  -2.666  -0.684  0.00  0.00    +0.094 A 
ATOM      3  N   UNL     1      -0.545  -4.015  -0.558  0.00  0.00    -0.312 N 
ATOM      4  H   UNL     1       0.260  -4.550  -0.648  0.00  0.00    +0.170 HD
ATOM      5  C   UNL     1      -1.718  -4.626  -0.310  0.00  0.00    +0.260 A 
ATOM      6  O   UNL     1      -1.774  -5.838  -0.200  0.00  0.00    -0.267 OA
ATOM      7  C   UNL     1      -2.901  -3.829  -0.178  0.00  0.00    +0.080 A 
ATOM      8  C   UNL     1      -4.271  -4.250   0.087  0.00  0.00    +0.007 A 
ATOM      9  C   UNL     1      -5.238  -3.304   0.171  0.00  0.00    +0.056 A 
ATOM     10  S   UNL     1      -4.352  -1.782  -0.105  0.00  0.00    -0.076 S 
ATOM     11  C   UNL     1      -2.720  -2.444  -0.324  0.00  0.00    +0.116 A 
ATOM     12  N   UNL     1      -1.525  -1.912  -0.564  0.00  0.00    -0.229 NA
BRANCH   8  13
ATOM     13  C   UNL     1      -4.601  -5.684   0.261  0.00  0.00    +0.025 A 
ATOM     14  C   UNL     1      -5.421  -6.331  -0.661  0.00  0.00    +0.012 A 
ATOM     15  C   UNL     1      -5.725  -7.667  -0.494  0.00  0.00    +0.001 A 
ATOM     16  C   UNL     1      -5.218  -8.367   0.586  0.00  0.00    +0.004 A 
ATOM     17  C   UNL     1      -4.402  -7.736   1.506  0.00  0.00    +0.046 A 
ATOM     18  C   UNL     1      -4.085  -6.397   1.349  0.00  0.00    +0.128 A 
BRANCH  18  19
ATOM     19  O   UNL     1      -3.279  -5.776   2.250  0.00  0.00    -0.495 OA
ATOM     20  C   UNL     1      -2.789  -6.567   3.334  0.00  0.00    +0.277 C 
ENDBRANCH  18  19
ENDBRANCH   8  13
ENDBRANCH   1   2
BRANCH   1  21
ATOM     21  N   UNL     1       0.742  -0.565  -0.877  0.00  0.00    +0.388 N 
ATOM     22  H   UNL     1      -0.157  -0.285  -1.241  0.00  0.00    -0.081 HD
BRANCH  21  24
ATOM     23  C   UNL     1      -0.264  -0.791   1.345  0.00  0.00    -0.014 C 
ATOM     24  C   UNL     1       0.854  -0.143   0.526  0.00  0.00    -0.074 C 
ATOM     25  C   UNL     1       2.211  -0.579   1.082  0.00  0.00    -0.014 C 
ENDBRANCH  21  24
BRANCH  21  26
ATOM     26  C   UNL     1       1.808   0.068  -1.665  0.00  0.00    -0.043 C 
BRANCH  26  27
ATOM     27  C   UNL     1       1.573   1.579  -1.720  0.00  0.00    +0.135 C 
BRANCH  27  28
ATOM     28  O   UNL     1       0.319   1.844  -2.350  0.00  0.00    -0.390 OA
ATOM     29  H   UNL     1       0.256   1.512  -3.256  0.00  0.00    +0.210 HD
ENDBRANCH  27  28
BRANCH  27  30
ATOM     30  C   UNL     1       2.697   2.240  -2.521  0.00  0.00    +0.258 C 
BRANCH  30  31
ATOM     31  O   UNL     1       2.542   3.660  -2.474  0.00  0.00    -0.489 OA
BRANCH  31  32
ATOM     32  C   UNL     1       3.465   4.403  -3.140  0.00  0.00    +0.121 A 
ATOM     33  C   UNL     1       4.494   3.778  -3.829  0.00  0.00    +0.047 A 
ATOM     34  C   UNL     1       5.431   4.535  -4.506  0.00  0.00    +0.023 A 
ATOM     35  C   UNL     1       5.344   5.916  -4.496  0.00  0.00    +0.041 A 
ATOM     36  C   UNL     1       4.318   6.542  -3.808  0.00  0.00    +0.023 A 
ATOM     37  C   UNL     1       3.376   5.788  -3.136  0.00  0.00    +0.047 A 
ATOM     38 CL   UNL     1       6.522   6.865  -5.346  0.00  0.00    -0.084 Cl
ENDBRANCH  31  32
ENDBRANCH  30  31
ENDBRANCH  27  30
ENDBRANCH  26  27
ENDBRANCH  21  26
ENDBRANCH   1  21
TORSDOF 11
