REMARK  Name = ZINC39686077
REMARK  11 active torsions:
REMARK  status: ('A' for Active; 'I' for Inactive)
REMARK    1  A    between atoms: C_1  and  C_2
REMARK    2  A    between atoms: C_4  and  C_11
REMARK    3  A    between atoms: N_5  and  C_7
REMARK    4  A    between atoms: C_7  and  C_8
REMARK    5  A    between atoms: C_7  and  C_9
REMARK    6  A    between atoms: C_7  and  C_10
REMARK    7  A    between atoms: C_15  and  C_24
REMARK    8  A    between atoms: N_26  and  C_27
REMARK    9  A    between atoms: C_33  and  C_35
REMARK   10  A    between atoms: C_35  and  C_36
REMARK   11  A    between atoms: C_35  and  C_37
REMARK                            x       y       z     vdW  Elec       q    Type
REMARK                         _______ _______ _______ _____ _____    ______ ____
ROOT
ATOM      1  C   UNL     1      -1.179  -5.108  -1.434  0.00  0.00    +0.265 C 
ATOM      2  O   UNL     1      -1.403  -5.182  -2.627  0.00  0.00    -0.268 OA
ATOM      3  N   UNL     1      -1.511  -6.131  -0.622  0.00  0.00    -0.295 N 
ATOM      4  C   UNL     1      -1.441  -6.175   0.858  0.00  0.00    +0.121 C 
ATOM      5  C   UNL     1      -2.712  -6.941   1.286  0.00  0.00    +0.100 C 
ATOM      6  C   UNL     1      -3.092  -7.788   0.060  0.00  0.00    -0.004 C 
ATOM      7  C   UNL     1      -2.035  -7.463  -1.005  0.00  0.00    +0.115 C 
ATOM      8  C   UNL     1      -4.478  -7.396  -0.444  0.00  0.00    -0.010 C 
ATOM      9  C   UNL     1      -4.856  -8.290  -1.628  0.00  0.00    -0.082 C 
ATOM     10  N   UNL     1      -4.846  -9.696  -1.205  0.00  0.00    +0.379 N 
ATOM     11  C   UNL     1      -3.489 -10.091  -0.809  0.00  0.00    -0.082 C 
ATOM     12  C   UNL     1      -3.052  -9.273   0.409  0.00  0.00    -0.010 C 
ATOM     13  H   UNL     1      -5.471  -9.815  -0.422  0.00  0.00    -0.086 HD
ATOM     14  H   UNL     1      -5.155 -10.278  -1.969  0.00  0.00    -0.086 HD
ENDROOT
BRANCH   1  18
ATOM     15  C   UNL     1       1.051  -1.754   1.648  0.00  0.00    +0.067 C 
ATOM     16  C   UNL     1       0.428  -2.428   0.453  0.00  0.00    +0.061 A 
ATOM     17  C   UNL     1      -0.084  -3.727   0.415  0.00  0.00    +0.057 A 
ATOM     18  C   UNL     1      -0.546  -3.902  -0.878  0.00  0.00    +0.124 A 
ATOM     19  N   UNL     1      -0.296  -2.730  -1.534  0.00  0.00    -0.254 N 
ATOM     20  N   UNL     1       0.264  -1.897  -0.732  0.00  0.00    -0.175 NA
BRANCH  19  21
ATOM     21  C   UNL     1      -0.622  -2.462  -2.937  0.00  0.00    +0.056 C 
ATOM     22  C   UNL     1      -2.111  -2.723  -3.174  0.00  0.00    +0.036 C 
ATOM     23  C   UNL     1      -0.301  -1.002  -3.265  0.00  0.00    +0.036 C 
ATOM     24  C   UNL     1       0.206  -3.381  -3.838  0.00  0.00    +0.036 C 
ENDBRANCH  19  21
ENDBRANCH   1  18
BRANCH   5  25
ATOM     25  C   UNL     1      -3.819  -5.976   1.623  0.00  0.00    +0.218 C 
ATOM     26  O   UNL     1      -3.919  -4.931   1.015  0.00  0.00    -0.275 OA
ATOM     27  N   UNL     1      -4.698  -6.273   2.601  0.00  0.00    -0.312 N 
ATOM     28  H   UNL     1      -4.576  -7.072   3.136  0.00  0.00    +0.149 HD
BRANCH  27  29
ATOM     29  C   UNL     1      -5.837  -5.387   2.855  0.00  0.00    +0.076 C 
ATOM     30  C   UNL     1      -5.404  -4.254   3.788  0.00  0.00    +0.041 C 
ATOM     31  C   UNL     1      -6.589  -3.312   4.024  0.00  0.00    +0.109 C 
ATOM     32  N   UNL     1      -7.728  -4.098   4.517  0.00  0.00    -0.301 N 
ATOM     33  C   UNL     1      -8.169  -5.265   3.742  0.00  0.00    +0.109 C 
ATOM     34  C   UNL     1      -6.967  -6.186   3.510  0.00  0.00    +0.041 C 
ATOM     35  C   UNL     1      -8.355  -3.754   5.660  0.00  0.00    +0.218 C 
ATOM     36  O   UNL     1      -9.243  -4.455   6.098  0.00  0.00    -0.275 OA
BRANCH  35  37
ATOM     37  C   UNL     1      -7.954  -2.500   6.392  0.00  0.00    +0.069 C 
ATOM     38  C   UNL     1      -8.365  -1.276   5.572  0.00  0.00    +0.017 C 
ATOM     39  C   UNL     1      -8.652  -2.459   7.753  0.00  0.00    +0.017 C 
ENDBRANCH  35  37
ENDBRANCH  27  29
ENDBRANCH   5  25
TORSDOF 5
