REMARK  Name = ZINC30867870
REMARK  13 active torsions:
REMARK  status: ('A' for Active; 'I' for Inactive)
REMARK    1  A    between atoms: C_1  and  C_2
REMARK    2  A    between atoms: C_5  and  C_31
REMARK    3  A    between atoms: N_8  and  C_10
REMARK    4  A    between atoms: C_10  and  C_11
REMARK    5  A    between atoms: C_11  and  C_12
REMARK    6  A    between atoms: C_12  and  N_13
REMARK    7  A    between atoms: C_14  and  C_16
REMARK    8  A    between atoms: C_16  and  N_17
REMARK    9  A    between atoms: N_17  and  C_18
REMARK   10  A    between atoms: N_17  and  S_25
REMARK   11  A    between atoms: S_25  and  N_28
REMARK   12  A    between atoms: N_28  and  C_29
REMARK   13  A    between atoms: N_28  and  C_30
REMARK                            x       y       z     vdW  Elec       q    Type
REMARK                         _______ _______ _______ _____ _____    ______ ____
ROOT
ATOM      1  N   UNL     1      -0.018   1.461   0.010  0.00  0.00    -0.314 N 
ATOM      2  C   UNL     1       1.140   2.151   0.003  0.00  0.00    +0.232 C 
ATOM      3  O   UNL     1       2.199   1.558  -0.011  0.00  0.00    -0.274 OA
ATOM      4  H   UNL     1      -0.978   1.998   0.022  0.00  0.00    +0.149 HD
ENDROOT
BRANCH   1   5
ATOM      5  C   UNL     1       0.002  -0.004   0.002  0.00  0.00    +0.102 C 
BRANCH   5   6
ATOM      6  C   UNL     1      -1.433  -0.534   0.013  0.00  0.00    +0.000 C 
BRANCH   6   7
ATOM      7  C   UNL     1      -1.413  -2.063   0.004  0.00  0.00    -0.077 C 
BRANCH   7  13
ATOM      8  C   UNL     1      -5.619  -1.895   0.048  0.00  0.00    +0.005 C 
ATOM      9  C   UNL     1      -4.938  -2.649   1.192  0.00  0.00    -0.031 C 
ATOM     10  C   UNL     1      -5.024  -4.155   0.933  0.00  0.00    +0.003 C 
ATOM     11  C   UNL     1      -4.271  -4.488  -0.357  0.00  0.00    -0.031 C 
ATOM     12  C   UNL     1      -2.820  -4.019  -0.231  0.00  0.00    -0.076 C 
ATOM     13  N   UNL     1      -2.791  -2.572   0.015  0.00  0.00    +0.380 N 
ATOM     14  C   UNL     1      -3.467  -2.233   1.274  0.00  0.00    -0.076 C 
ATOM     15  C   UNL     1      -4.301  -6.000  -0.592  0.00  0.00    +0.005 C 
ATOM     16  H   UNL     1      -3.340  -2.082  -0.803  0.00  0.00    -0.082 HD
ENDBRANCH   7  13
ENDBRANCH   6   7
ENDBRANCH   5   6
ENDBRANCH   1   5
BRANCH   2  17
ATOM     17  C   UNL     1       1.120   3.657   0.011  0.00  0.00    +0.228 C 
BRANCH  17  18
ATOM     18  N   UNL     1       2.494   4.164   0.001  0.00  0.00    -0.182 N 
BRANCH  18  19
ATOM     19  C   UNL     1       3.198   4.301   1.201  0.00  0.00    +0.088 A 
ATOM     20  C   UNL     1       3.872   3.213   1.740  0.00  0.00    +0.028 A 
ATOM     21  C   UNL     1       4.570   3.352   2.924  0.00  0.00    +0.002 A 
ATOM     22  C   UNL     1       4.591   4.570   3.579  0.00  0.00    +0.003 A 
ATOM     23  C   UNL     1       3.917   5.655   3.048  0.00  0.00    +0.040 A 
ATOM     24  C   UNL     1       3.220   5.525   1.861  0.00  0.00    +0.146 A 
ATOM     25  F   UNL     1       2.561   6.585   1.344  0.00  0.00    -0.203 F 
ENDBRANCH  18  19
BRANCH  18  26
ATOM     26  S   UNL     1       3.214   4.576  -1.433  0.00  0.00    +0.114 S 
ATOM     27  O   UNL     1       4.606   4.343  -1.270  0.00  0.00    -0.138 OA
ATOM     28  O   UNL     1       2.454   3.957  -2.462  0.00  0.00    -0.138 OA
BRANCH  26  29
ATOM     29  N   UNL     1       3.027   6.210  -1.623  0.00  0.00    -0.170 NA
ATOM     30  C   UNL     1       4.101   7.122  -1.222  0.00  0.00    +0.132 C 
ATOM     31  C   UNL     1       1.787   6.744  -2.193  0.00  0.00    +0.132 C 
ENDBRANCH  26  29
ENDBRANCH  18  26
ENDBRANCH  17  18
ENDBRANCH   2  17
TORSDOF 9
