REMARK  Name = ZINC36598259
REMARK  15 active torsions:
REMARK  status: ('A' for Active; 'I' for Inactive)
REMARK    1  A    between atoms: C_1  and  C_2
REMARK    2  A    between atoms: C_5  and  S_8
REMARK    3  A    between atoms: S_8  and  C_11
REMARK    4  A    between atoms: C_11  and  N_12
REMARK    5  A    between atoms: C_13  and  C_15
REMARK    6  A    between atoms: C_15  and  C_17
REMARK    7  A    between atoms: C_15  and  N_26
REMARK    8  A    between atoms: C_17  and  C_19
REMARK    9  A    between atoms: C_17  and  C_20
REMARK   10  A    between atoms: N_26  and  C_27
REMARK   11  A    between atoms: C_27  and  C_28
REMARK   12  A    between atoms: C_31  and  C_33
REMARK   13  A    between atoms: C_34  and  C_36
REMARK   14  A    between atoms: C_36  and  C_37
REMARK   15  A    between atoms: C_37  and  S_38
REMARK                            x       y       z     vdW  Elec       q    Type
REMARK                         _______ _______ _______ _____ _____    ______ ____
ROOT
ATOM      1  C   UNL     1       2.918  -4.768   4.018  0.00  0.00    +0.169 C 
ENDROOT
BRANCH   1   3
ATOM      2  N   UNL     1       1.733  -4.037   1.974  0.00  0.00    -0.295 N 
ATOM      3  C   UNL     1       2.085  -5.047   2.793  0.00  0.00    +0.235 C 
ATOM      4  O   UNL     1       1.731  -6.180   2.546  0.00  0.00    -0.274 OA
ATOM      5  H   UNL     1       1.954  -3.122   2.209  0.00  0.00    +0.150 HD
BRANCH   2   6
ATOM      6  C   UNL     1       1.015  -4.320   0.729  0.00  0.00    +0.278 C 
BRANCH   6   7
ATOM      7  S   UNL     1      -0.769  -4.142   1.005  0.00  0.00    +0.013 S 
ATOM      8  O   UNL     1      -1.151  -4.823   2.192  0.00  0.00    -0.168 OA
ATOM      9  O   UNL     1      -1.476  -4.352  -0.209  0.00  0.00    -0.168 OA
BRANCH   7  14
ATOM     10  C   UNL     1      -1.571   1.705   2.262  0.00  0.00    +0.044 C 
ATOM     11  C   UNL     1      -1.371   0.244   1.948  0.00  0.00    -0.050 A 
ATOM     12  C   UNL     1      -1.436  -0.196   0.640  0.00  0.00    +0.005 A 
ATOM     13  C   UNL     1      -1.252  -1.536   0.352  0.00  0.00    +0.027 A 
ATOM     14  C   UNL     1      -1.002  -2.434   1.372  0.00  0.00    +0.090 A 
ATOM     15  C   UNL     1      -0.937  -1.993   2.681  0.00  0.00    +0.027 A 
ATOM     16  C   UNL     1      -1.116  -0.653   2.968  0.00  0.00    +0.005 A 
ENDBRANCH   7  14
ENDBRANCH   6   7
ENDBRANCH   2   6
ENDBRANCH   1   3
BRANCH   1  17
ATOM     17  N   UNL     1       3.120  -6.013   4.764  0.00  0.00    -0.282 N 
ATOM     18  C   UNL     1       3.742  -7.056   4.180  0.00  0.00    +0.217 C 
ATOM     19  O   UNL     1       3.812  -8.121   4.756  0.00  0.00    -0.276 OA
BRANCH  17  20
ATOM     20  C   UNL     1       2.647  -6.123   6.146  0.00  0.00    +0.182 C 
BRANCH  20  21
ATOM     21  C   UNL     1       1.233  -6.645   6.152  0.00  0.00    +0.122 A 
ATOM     22  C   UNL     1       0.872  -7.939   6.208  0.00  0.00    +0.046 A 
ATOM     23  C   UNL     1      -0.541  -7.972   6.192  0.00  0.00    +0.045 A 
ATOM     24  C   UNL     1      -0.960  -6.695   6.126  0.00  0.00    +0.102 A 
ATOM     25  O   UNL     1       0.119  -5.895   6.108  0.00  0.00    -0.463 OA
ATOM     26  C   UNL     1      -2.396  -6.240   6.085  0.00  0.00    +0.086 C 
ENDBRANCH  20  21
ENDBRANCH  17  20
BRANCH  18  27
ATOM     27  C   UNL     1       4.351  -6.899   2.810  0.00  0.00    +0.106 C 
BRANCH  27  28
ATOM     28  C   UNL     1       4.719  -8.277   2.255  0.00  0.00    +0.075 C 
BRANCH  28  29
ATOM     29  S   UNL     1       5.452  -8.088   0.606  0.00  0.00    -0.178 S 
ATOM     30  H   UNL     1       5.730  -9.348   0.228  0.00  0.00    +0.102 HD
ENDBRANCH  28  29
ENDBRANCH  27  28
ENDBRANCH  18  27
ENDBRANCH   1  17
BRANCH   1  31
ATOM     31  C   UNL     1       4.275  -4.202   3.593  0.00  0.00    +0.045 C 
ATOM     32  C   UNL     1       4.076  -2.828   2.952  0.00  0.00    +0.015 C 
BRANCH  31  33
ATOM     33  C   UNL     1       5.164  -4.068   4.803  0.00  0.00    -0.042 A 
ATOM     34  C   UNL     1       4.777  -3.265   5.859  0.00  0.00    +0.004 A 
ATOM     35  C   UNL     1       5.593  -3.142   6.968  0.00  0.00    +0.000 A 
ATOM     36  C   UNL     1       6.795  -3.823   7.021  0.00  0.00    +0.000 A 
ATOM     37  C   UNL     1       7.181  -4.627   5.965  0.00  0.00    +0.000 A 
ATOM     38  C   UNL     1       6.364  -4.753   4.858  0.00  0.00    +0.004 A 
ENDBRANCH  31  33
ENDBRANCH   1  31
TORSDOF 12
