REMARK  Name = ZINC64610783
REMARK  8 active torsions:
REMARK  status: ('A' for Active; 'I' for Inactive)
REMARK    1  A    between atoms: C_1  and  C_2
REMARK    2  A    between atoms: C_7  and  N_8
REMARK    3  A    between atoms: C_9  and  C_11
REMARK    4  A    between atoms: C_11  and  N_12
REMARK    5  A    between atoms: N_24  and  C_27
REMARK    6  A    between atoms: C_27  and  C_28
REMARK    7  A    between atoms: C_28  and  C_29
REMARK    8  A    between atoms: N_31  and  C_32
REMARK                            x       y       z     vdW  Elec       q    Type
REMARK                         _______ _______ _______ _____ _____    ______ ____
ROOT
ATOM      1  N   UNL     1      -0.241  -0.905   5.988  0.00  0.00    -0.202 N 
ATOM      2  C   UNL     1       0.801  -1.408   6.679  0.00  0.00    +0.353 A 
ATOM      3  O   UNL     1       1.978  -1.149   6.496  0.00  0.00    -0.244 OA
ATOM      4  N   UNL     1       0.306  -2.251   7.609  0.00  0.00    -0.229 N 
ATOM      5  C   UNL     1       0.944  -3.027   8.576  0.00  0.00    +0.067 A 
ATOM      6  C   UNL     1       2.325  -3.016   8.703  0.00  0.00    +0.027 A 
ATOM      7  C   UNL     1       2.933  -3.793   9.669  0.00  0.00    +0.002 A 
ATOM      8  C   UNL     1       2.174  -4.586  10.516  0.00  0.00    +0.001 A 
ATOM      9  C   UNL     1       0.800  -4.610  10.403  0.00  0.00    +0.015 A 
ATOM     10  C   UNL     1       0.175  -3.830   9.432  0.00  0.00    +0.064 A 
ATOM     11  C   UNL     1      -1.292  -3.828   9.281  0.00  0.00    +0.263 A 
ATOM     12  O   UNL     1      -1.988  -4.512  10.007  0.00  0.00    -0.267 OA
ATOM     13  N   UNL     1      -1.849  -3.056   8.327  0.00  0.00    -0.276 N 
ATOM     14  C   UNL     1      -1.066  -2.270   7.493  0.00  0.00    +0.240 A 
ATOM     15  N   UNL     1      -1.408  -1.461   6.527  0.00  0.00    -0.129 NA
ENDROOT
BRANCH   1  16
ATOM     16  C   UNL     1      -0.168   0.052   4.882  0.00  0.00    +0.245 C 
BRANCH  16  18
ATOM     17  N   UNL     1       0.025  -0.015   2.417  0.00  0.00    -0.284 N 
ATOM     18  C   UNL     1      -0.056  -0.694   3.578  0.00  0.00    +0.239 C 
ATOM     19  O   UNL     1      -0.040  -1.907   3.573  0.00  0.00    -0.273 OA
ATOM     20  H   UNL     1       0.078   0.954   2.425  0.00  0.00    +0.155 HD
BRANCH  17  27
ATOM     21  C   UNL     1      -1.264   1.184   0.181  0.00  0.00    +0.045 C 
ATOM     22  C   UNL     1      -0.584  -0.158   0.084  0.00  0.00    -0.029 A 
ATOM     23  C   UNL     1      -0.568  -0.840  -1.117  0.00  0.00    +0.005 A 
ATOM     24  C   UNL     1       0.055  -2.071  -1.206  0.00  0.00    +0.000 A 
ATOM     25  C   UNL     1       0.666  -2.622  -0.095  0.00  0.00    +0.002 A 
ATOM     26  C   UNL     1       0.655  -1.945   1.108  0.00  0.00    +0.023 A 
ATOM     27  C   UNL     1       0.034  -0.706   1.201  0.00  0.00    +0.036 A 
ENDBRANCH  17  27
ENDBRANCH  16  18
ENDBRANCH   1  16
BRANCH  13  28
ATOM     28  C   UNL     1      -3.306  -3.046   8.168  0.00  0.00    +0.137 C 
BRANCH  28  29
ATOM     29  C   UNL     1      -3.907  -1.951   9.052  0.00  0.00    +0.117 C 
BRANCH  29  30
ATOM     30  C   UNL     1      -5.405  -1.940   8.888  0.00  0.00    +0.215 C 
ATOM     31  O   UNL     1      -5.939  -2.731   8.139  0.00  0.00    -0.276 OA
ATOM     32  N   UNL     1      -6.152  -1.052   9.575  0.00  0.00    -0.312 N 
ATOM     33  H   UNL     1      -5.725  -0.420  10.174  0.00  0.00    +0.149 HD
BRANCH  32  34
ATOM     34  C   UNL     1      -7.608  -1.042   9.416  0.00  0.00    +0.073 C 
ATOM     35  C   UNL     1      -8.255  -2.027  10.411  0.00  0.00    +0.022 C 
ATOM     36  C   UNL     1      -8.652  -1.141  11.618  0.00  0.00    +0.002 C 
ATOM     37  C   UNL     1      -9.132   0.166  10.940  0.00  0.00    +0.002 C 
ATOM     38  C   UNL     1      -8.165   0.352   9.752  0.00  0.00    +0.022 C 
ENDBRANCH  32  34
ENDBRANCH  29  30
ENDBRANCH  28  29
ENDBRANCH  13  28
TORSDOF 7
