REMARK  Name = ZINC37359392
REMARK  2 active torsions:
REMARK  status: ('A' for Active; 'I' for Inactive)
REMARK    1  A    between atoms: C_6  and  C_7
REMARK    2  A    between atoms: C_7  and  C_9
REMARK                            x       y       z     vdW  Elec       q    Type
REMARK                         _______ _______ _______ _____ _____    ______ ____
ROOT
ATOM      1  C   UNL     1      -1.300  -2.234  -0.093  0.00  0.00    +0.024 A 
ATOM      2  C   UNL     1      -0.107  -2.965  -0.096  0.00  0.00    +0.014 A 
ATOM      3  C   UNL     1      -0.133  -4.327  -0.192  0.00  0.00    +0.028 A 
ATOM      4  C   UNL     1      -1.347  -4.997  -0.286  0.00  0.00    +0.067 A 
ATOM      5  C   UNL     1      -2.548  -4.278  -0.283  0.00  0.00    +0.067 A 
ATOM      6  C   UNL     1      -2.526  -2.900  -0.181  0.00  0.00    +0.039 A 
ATOM      7  N   UNL     1      -3.576  -5.213  -0.388  0.00  0.00    -0.306 N 
ATOM      8  H   UNL     1      -4.525  -5.013  -0.411  0.00  0.00    +0.170 HD
ATOM      9  C   UNL     1      -3.026  -6.440  -0.452  0.00  0.00    +0.325 A 
ATOM     10  O   UNL     1      -3.647  -7.482  -0.548  0.00  0.00    -0.247 OA
ATOM     11  N   UNL     1      -1.685  -6.340  -0.392  0.00  0.00    -0.306 N 
ATOM     12  H   UNL     1      -1.060  -7.081  -0.420  0.00  0.00    +0.170 HD
ENDROOT
BRANCH   1  13
ATOM     13  C   UNL     1      -1.265  -0.763   0.010  0.00  0.00    +0.193 C 
ATOM     14  O   UNL     1      -2.143  -0.174   0.611  0.00  0.00    -0.287 OA
BRANCH  13  20
ATOM     15  C   UNL     1      -0.037   1.367  -0.389  0.00  0.00    +0.013 A 
ATOM     16  C   UNL     1       0.993   2.069  -0.978  0.00  0.00    +0.021 A 
ATOM     17  C   UNL     1       1.902   1.417  -1.794  0.00  0.00    +0.041 A 
ATOM     18  C   UNL     1       1.782   0.056  -2.025  0.00  0.00    +0.021 A 
ATOM     19  C   UNL     1       0.756  -0.657  -1.442  0.00  0.00    +0.013 A 
ATOM     20  C   UNL     1      -0.164  -0.005  -0.617  0.00  0.00    +0.022 A 
ATOM     21 CL   UNL     1       3.196   2.308  -2.532  0.00  0.00    -0.084 Cl
ENDBRANCH  13  20
ENDBRANCH   1  13
TORSDOF 2
