REMARK  Name = ZINC39530364
REMARK  8 active torsions:
REMARK  status: ('A' for Active; 'I' for Inactive)
REMARK    1  A    between atoms: C_4  and  C_7
REMARK    2  A    between atoms: C_7  and  C_8
REMARK    3  A    between atoms: C_11  and  N_24
REMARK    4  A    between atoms: C_12  and  S_14
REMARK    5  A    between atoms: S_14  and  O_17
REMARK    6  A    between atoms: O_17  and  C_18
REMARK    7  A    between atoms: C_28  and  C_31
REMARK    8  A    between atoms: C_31  and  C_32
REMARK                            x       y       z     vdW  Elec       q    Type
REMARK                         _______ _______ _______ _____ _____    ______ ____
ROOT
ATOM      1  C   UNL     1       4.233  -1.190   1.172  0.00  0.00    -0.041 A 
ATOM      2  C   UNL     1       5.136  -0.291   1.711  0.00  0.00    +0.006 A 
ATOM      3  C   UNL     1       5.613  -0.474   2.994  0.00  0.00    +0.025 A 
ATOM      4  C   UNL     1       5.184  -1.562   3.744  0.00  0.00    +0.058 A 
ATOM      5  C   UNL     1       4.277  -2.462   3.200  0.00  0.00    +0.149 A 
ATOM      6  C   UNL     1       3.800  -2.270   1.918  0.00  0.00    +0.036 A 
ENDROOT
BRANCH   4   7
ATOM      7  N   UNL     1       5.663  -1.750   5.042  0.00  0.00    -0.332 N 
ATOM      8  C   UNL     1       6.882  -2.536   5.292  0.00  0.00    +0.086 C 
ATOM      9  C   UNL     1       7.814  -1.715   6.189  0.00  0.00    -0.063 C 
ATOM     10  N   UNL     1       7.094  -1.312   7.403  0.00  0.00    +0.383 N 
ATOM     11  C   UNL     1       5.988  -0.411   7.053  0.00  0.00    -0.050 C 
ATOM     12  C   UNL     1       4.968  -1.163   6.198  0.00  0.00    +0.089 C 
ATOM     13  H   UNL     1       6.726  -2.132   7.862  0.00  0.00    -0.085 HD
ATOM     14  H   UNL     1       7.728  -0.837   8.027  0.00  0.00    -0.085 HD
BRANCH  11  15
ATOM     15  C   UNL     1       5.314   0.090   8.332  0.00  0.00    +0.021 C 
BRANCH  15  16
ATOM     16  C   UNL     1       6.285   0.936   9.113  0.00  0.00    -0.049 A 
ATOM     17  C   UNL     1       7.115   0.349  10.050  0.00  0.00    +0.003 A 
ATOM     18  C   UNL     1       8.006   1.126  10.767  0.00  0.00    +0.000 A 
ATOM     19  C   UNL     1       8.068   2.489  10.547  0.00  0.00    +0.000 A 
ATOM     20  C   UNL     1       7.239   3.076   9.609  0.00  0.00    +0.000 A 
ATOM     21  C   UNL     1       6.351   2.299   8.889  0.00  0.00    +0.003 A 
ENDBRANCH  15  16
ENDBRANCH  11  15
ENDBRANCH   4   7
BRANCH   5  22
ATOM     22  S   UNL     1       3.729  -3.844   4.147  0.00  0.00    +0.153 S 
ATOM     23  O   UNL     1       4.560  -4.939   3.785  0.00  0.00    -0.131 OA
ATOM     24  O   UNL     1       3.605  -3.393   5.489  0.00  0.00    -0.131 OA
BRANCH  22  25
ATOM     25  O   UNL     1       2.325  -4.188   3.671  0.00  0.00    -0.342 OA
BRANCH  25  26
ATOM     26  C   UNL     1       1.365  -3.341   4.125  0.00  0.00    +0.157 A 
ATOM     27  C   UNL     1       0.797  -3.541   5.375  0.00  0.00    +0.048 A 
ATOM     28  C   UNL     1      -0.179  -2.678   5.835  0.00  0.00    +0.004 A 
ATOM     29  C   UNL     1      -0.590  -1.616   5.050  0.00  0.00    +0.000 A 
ATOM     30  C   UNL     1      -0.026  -1.415   3.804  0.00  0.00    +0.004 A 
ATOM     31  C   UNL     1       0.955  -2.272   3.342  0.00  0.00    +0.048 A 
ENDBRANCH  25  26
ENDBRANCH  22  25
ENDBRANCH   5  22
BRANCH   1  32
ATOM     32  C   UNL     1       3.716  -0.987  -0.229  0.00  0.00    +0.070 C 
BRANCH  32  36
ATOM     33  C   UNL     1       0.188   1.419  -0.111  0.00  0.00    +0.000 A 
ATOM     34  C   UNL     1       1.429   2.017  -0.234  0.00  0.00    +0.000 A 
ATOM     35  C   UNL     1       2.570   1.238  -0.272  0.00  0.00    +0.004 A 
ATOM     36  C   UNL     1       2.471  -0.138  -0.186  0.00  0.00    -0.043 A 
ATOM     37  C   UNL     1       1.231  -0.736  -0.063  0.00  0.00    +0.004 A 
ATOM     38  C   UNL     1       0.089   0.043  -0.026  0.00  0.00    +0.000 A 
ENDBRANCH  32  36
ENDBRANCH   1  32
TORSDOF 8
