REMARK  Name = ZINC15024128
REMARK  4 active torsions:
REMARK  status: ('A' for Active; 'I' for Inactive)
REMARK    1  A    between atoms: C_6  and  C_7
REMARK    2  A    between atoms: N_9  and  C_10
REMARK    3  A    between atoms: N_13  and  C_16
REMARK    4  A    between atoms: N_21  and  C_24
REMARK                            x       y       z     vdW  Elec       q    Type
REMARK                         _______ _______ _______ _____ _____    ______ ____
ROOT
ATOM      1  C   UNL     1      -1.866  -3.381  -0.114  0.00  0.00    +0.076 C 
ATOM      2  C   UNL     1      -2.251  -3.518   1.362  0.00  0.00    +0.037 C 
ATOM      3  C   UNL     1      -3.663  -4.099   1.464  0.00  0.00    +0.087 C 
ATOM      4  N   UNL     1      -3.703  -5.411   0.806  0.00  0.00    -0.291 NA
ATOM      5  C   UNL     1      -3.383  -5.299  -0.622  0.00  0.00    +0.087 C 
ATOM      6  C   UNL     1      -1.962  -4.753  -0.787  0.00  0.00    +0.037 C 
ENDROOT
BRANCH   4   7
ATOM      7  C   UNL     1      -5.006  -6.060   1.004  0.00  0.00    +0.153 C 
ATOM      8  C   UNL     1      -5.019  -7.460   0.356  0.00  0.00    +0.125 C 
ATOM      9  C   UNL     1      -5.260  -8.390   1.525  0.00  0.00    +0.228 C 
ATOM     10  O   UNL     1      -5.342  -9.597   1.456  0.00  0.00    -0.275 OA
ATOM     11  N   UNL     1      -5.367  -7.668   2.647  0.00  0.00    -0.209 N 
ATOM     12  C   UNL     1      -5.242  -6.343   2.472  0.00  0.00    +0.244 C 
ATOM     13  O   UNL     1      -5.306  -5.507   3.347  0.00  0.00    -0.273 OA
BRANCH  11  14
ATOM     14  C   UNL     1      -5.593  -8.248   3.904  0.00  0.00    +0.047 A 
ATOM     15  C   UNL     1      -6.798  -8.035   4.561  0.00  0.00    +0.044 A 
ATOM     16  C   UNL     1      -7.019  -8.608   5.799  0.00  0.00    +0.044 A 
ATOM     17  C   UNL     1      -6.041  -9.393   6.384  0.00  0.00    +0.040 A 
ATOM     18  C   UNL     1      -4.840  -9.607   5.731  0.00  0.00    +0.044 A 
ATOM     19  C   UNL     1      -4.616  -9.041   4.489  0.00  0.00    +0.044 A 
ATOM     20 CL   UNL     1      -3.615 -10.593   6.467  0.00  0.00    -0.083 Cl
ATOM     21 CL   UNL     1      -8.524  -8.342   6.622  0.00  0.00    -0.083 Cl
ENDBRANCH  11  14
ENDBRANCH   4   7
BRANCH   1  24
ATOM     22  C   UNL     1      -0.255  -1.555  -0.173  0.00  0.00    +0.244 C 
ATOM     23  O   UNL     1      -1.179  -0.775  -0.047  0.00  0.00    -0.270 OA
ATOM     24  N   UNL     1      -0.494  -2.880  -0.217  0.00  0.00    -0.308 N 
ATOM     25  H   UNL     1       0.244  -3.503  -0.318  0.00  0.00    +0.149 HD
BRANCH  22  31
ATOM     26  C   UNL     1       1.379   0.324  -0.232  0.00  0.00    +0.016 A 
ATOM     27  C   UNL     1       2.673   0.790  -0.329  0.00  0.00    +0.039 A 
ATOM     28  C   UNL     1       3.725  -0.102  -0.472  0.00  0.00    +0.123 A 
ATOM     29  C   UNL     1       3.482  -1.466  -0.518  0.00  0.00    +0.039 A 
ATOM     30  C   UNL     1       2.192  -1.943  -0.422  0.00  0.00    +0.016 A 
ATOM     31  C   UNL     1       1.129  -1.049  -0.277  0.00  0.00    +0.037 A 
ATOM     32  F   UNL     1       4.991   0.360  -0.567  0.00  0.00    -0.205 F 
ENDBRANCH  22  31
ENDBRANCH   1  24
TORSDOF 4
