REMARK  Name = ZINC60358306
REMARK  8 active torsions:
REMARK  status: ('A' for Active; 'I' for Inactive)
REMARK    1  A    between atoms: C_1  and  C_2
REMARK    2  A    between atoms: N_7  and  C_16
REMARK    3  A    between atoms: C_9  and  C_10
REMARK    4  A    between atoms: C_16  and  C_17
REMARK    5  A    between atoms: C_17  and  C_19
REMARK    6  A    between atoms: C_17  and  O_31
REMARK    7  A    between atoms: C_19  and  O_20
REMARK    8  A    between atoms: O_20  and  C_21
REMARK                            x       y       z     vdW  Elec       q    Type
REMARK                         _______ _______ _______ _____ _____    ______ ____
ROOT
ATOM      1  C   UNL     1      -0.133   1.482  -0.601  0.00  0.00    +0.090 C 
ATOM      2  C   UNL     1      -0.092  -0.021  -0.503  0.00  0.00    +0.144 A 
ATOM      3  C   UNL     1      -1.128  -0.823  -0.150  0.00  0.00    +0.077 A 
ATOM      4  C   UNL     1      -0.629  -2.209  -0.191  0.00  0.00    +0.181 A 
ATOM      5  C   UNL     1      -1.579  -3.285   0.157  0.00  0.00    +0.297 A 
ATOM      6  O   UNL     1      -1.227  -4.450   0.143  0.00  0.00    -0.264 OA
ATOM      7  N   UNL     1      -2.842  -2.953   0.493  0.00  0.00    -0.224 N 
ATOM      8  N   UNL     1      -3.290  -1.635   0.524  0.00  0.00    -0.167 NA
ATOM      9  C   UNL     1      -2.534  -0.610   0.234  0.00  0.00    +0.104 A 
ATOM     10  N   UNL     1       0.623  -2.154  -0.551  0.00  0.00    -0.072 NA
ATOM     11  O   UNL     1       0.971  -0.795  -0.754  0.00  0.00    -0.359 OA
ENDROOT
BRANCH   9  12
ATOM     12  C   UNL     1      -3.088   0.762   0.291  0.00  0.00    +0.003 A 
ATOM     13  C   UNL     1      -2.987   1.605  -0.815  0.00  0.00    +0.010 A 
ATOM     14  C   UNL     1      -3.506   2.883  -0.755  0.00  0.00    +0.001 A 
ATOM     15  C   UNL     1      -4.125   3.327   0.399  0.00  0.00    +0.000 A 
ATOM     16  C   UNL     1      -4.229   2.495   1.500  0.00  0.00    +0.001 A 
ATOM     17  C   UNL     1      -3.719   1.214   1.450  0.00  0.00    +0.010 A 
ENDBRANCH   9  12
BRANCH   7  18
ATOM     18  C   UNL     1      -3.781  -4.023   0.837  0.00  0.00    +0.182 C 
BRANCH  18  19
ATOM     19  C   UNL     1      -3.714  -4.295   2.341  0.00  0.00    +0.173 C 
BRANCH  19  20
ATOM     20  O   UNL     1      -4.173  -3.145   3.055  0.00  0.00    -0.387 OA
ATOM     21  H   UNL     1      -5.084  -2.893   2.850  0.00  0.00    +0.210 HD
ENDBRANCH  19  20
BRANCH  19  22
ATOM     22  C   UNL     1      -4.601  -5.495   2.683  0.00  0.00    +0.262 C 
BRANCH  22  23
ATOM     23  O   UNL     1      -4.449  -5.821   4.065  0.00  0.00    -0.489 OA
BRANCH  23  24
ATOM     24  C   UNL     1      -5.173  -6.870   4.534  0.00  0.00    +0.128 A 
ATOM     25  C   UNL     1      -5.997  -7.567   3.696  0.00  0.00    +0.046 A 
ATOM     26  C   UNL     1      -6.746  -8.645   4.161  0.00  0.00    +0.004 A 
ATOM     27  C   UNL     1      -6.679  -9.037   5.463  0.00  0.00    +0.009 A 
ATOM     28  C   UNL     1      -5.843  -8.347   6.357  0.00  0.00    -0.014 A 
ATOM     29  C   UNL     1      -5.075  -7.252   5.888  0.00  0.00    +0.024 A 
ATOM     30  C   UNL     1      -4.236  -6.565   6.780  0.00  0.00    +0.012 A 
ATOM     31  C   UNL     1      -4.167  -6.962   8.081  0.00  0.00    +0.001 A 
ATOM     32  C   UNL     1      -4.918  -8.042   8.542  0.00  0.00    +0.001 A 
ATOM     33  C   UNL     1      -5.750  -8.724   7.708  0.00  0.00    +0.008 A 
ENDBRANCH  23  24
ENDBRANCH  22  23
ENDBRANCH  19  22
ENDBRANCH  18  19
ENDBRANCH   7  18
TORSDOF 7
