REMARK  Name = ZINC24631889
REMARK  4 active torsions:
REMARK  status: ('A' for Active; 'I' for Inactive)
REMARK    1  A    between atoms: C_1  and  C_2
REMARK    2  A    between atoms: C_4  and  N_23
REMARK    3  A    between atoms: C_8  and  C_22
REMARK    4  A    between atoms: C_14  and  C_17
REMARK                            x       y       z     vdW  Elec       q    Type
REMARK                         _______ _______ _______ _____ _____    ______ ____
ROOT
ATOM      1  C   UNL     1      -6.984   0.346   0.034  0.00  0.00    +0.044 C 
ATOM      2  C   UNL     1      -5.975   1.467   0.037  0.00  0.00    -0.035 A 
ATOM      3  C   UNL     1      -6.379   2.773   0.046  0.00  0.00    +0.047 A 
ATOM      4  C   UNL     1      -5.421   3.790   0.048  0.00  0.00    +0.119 A 
ATOM      5  N   UNL     1      -4.128   3.518   0.041  0.00  0.00    -0.213 NA
ATOM      6  C   UNL     1      -3.685   2.267   0.031  0.00  0.00    +0.167 A 
ATOM      7  C   UNL     1      -4.600   1.196   0.029  0.00  0.00    +0.045 A 
ATOM      8  C   UNL     1      -3.805  -0.027   0.018  0.00  0.00    +0.070 A 
ATOM      9  N   UNL     1      -2.549   0.316   0.009  0.00  0.00    -0.168 NA
ATOM     10  N   UNL     1      -2.432   1.710   0.022  0.00  0.00    -0.194 N 
ATOM     11  C   UNL     1      -1.230   2.421   0.021  0.00  0.00    +0.175 A 
ATOM     12  C   UNL     1      -0.021   1.732   0.012  0.00  0.00    +0.086 A 
ATOM     13  C   UNL     1       1.163   2.450   0.004  0.00  0.00    +0.037 A 
ATOM     14  C   UNL     1       1.096   3.837   0.012  0.00  0.00    +0.074 A 
ATOM     15  C   UNL     1      -0.139   4.454   0.027  0.00  0.00    +0.125 A 
ATOM     16  N   UNL     1      -1.251   3.744   0.035  0.00  0.00    -0.234 NA
ATOM     17 CL   UNL     1       0.002  -0.004   0.002  0.00  0.00    -0.080 Cl
ATOM     18  C   UNL     1      -4.342  -1.435   0.013  0.00  0.00    +0.068 C 
ENDROOT
BRANCH  14  19
ATOM     19  C   UNL     1       2.358   4.660   0.004  0.00  0.00    +0.419 C 
ATOM     20  F   UNL     1       2.736   4.921  -1.317  0.00  0.00    -0.166 F 
ATOM     21  F   UNL     1       2.131   5.867   0.672  0.00  0.00    -0.166 F 
ATOM     22  F   UNL     1       3.379   3.954   0.650  0.00  0.00    -0.166 F 
ENDBRANCH  14  19
BRANCH   4  23
ATOM     23  N   UNL     1      -5.837   5.115   0.057  0.00  0.00    -0.343 N 
ATOM     24  H   UNL     1      -5.093   5.925   0.059  0.00  0.00    +0.144 HD
ATOM     25  H   UNL     1      -6.911   5.354   0.064  0.00  0.00    +0.144 HD
ENDBRANCH   4  23
TORSDOF 2
