REMARK  Name = ZINC08320569
REMARK  3 active torsions:
REMARK  status: ('A' for Active; 'I' for Inactive)
REMARK    1  A    between atoms: C_1  and  C_2
REMARK    2  A    between atoms: C_12  and  C_14
REMARK    3  A    between atoms: N_19  and  C_21
REMARK                            x       y       z     vdW  Elec       q    Type
REMARK                         _______ _______ _______ _____ _____    ______ ____
ROOT
ATOM      1  C   UNL     1      -0.018   1.503   0.010  0.00  0.00    +0.044 C 
ATOM      2  C   UNL     1       0.002  -0.004   0.002  0.00  0.00    -0.049 A 
ATOM      3  C   UNL     1       0.006  -0.698  -1.199  0.00  0.00    +0.005 A 
ATOM      4  C   UNL     1       0.024  -2.068  -1.235  0.00  0.00    +0.029 A 
ATOM      5  C   UNL     1       0.040  -2.822  -0.038  0.00  0.00    +0.080 A 
ATOM      6  C   UNL     1       0.036  -2.081   1.166  0.00  0.00    +0.041 A 
ATOM      7  C   UNL     1       0.023  -0.709   1.191  0.00  0.00    +0.020 A 
ATOM      8  S   UNL     1       0.059  -3.361   2.397  0.00  0.00    -0.052 S 
ATOM      9  C   UNL     1       0.073  -4.752   1.275  0.00  0.00    +0.165 A 
ATOM     10  N   UNL     1       0.059  -4.165   0.101  0.00  0.00    -0.225 NA
ATOM     11  N   UNL     1       0.093  -6.106   1.569  0.00  0.00    -0.264 N 
ATOM     12  C   UNL     1       0.101  -7.012   0.571  0.00  0.00    +0.224 C 
ATOM     13  O   UNL     1       0.090  -6.643  -0.584  0.00  0.00    -0.275 OA
ATOM     14  H   UNL     1       0.101  -6.402   2.493  0.00  0.00    +0.157 HD
ENDROOT
BRANCH  12  15
ATOM     15  C   UNL     1       0.122  -8.485   0.891  0.00  0.00    +0.101 C 
ATOM     16  C   UNL     1       1.434  -8.876   1.610  0.00  0.00    +0.110 C 
ATOM     17  C   UNL     1       1.766 -10.245   1.058  0.00  0.00    +0.217 C 
ATOM     18  O   UNL     1       2.553 -11.022   1.556  0.00  0.00    -0.276 OA
ATOM     19  N   UNL     1       1.061 -10.475  -0.063  0.00  0.00    -0.298 N 
ATOM     20  C   UNL     1       0.206  -9.330  -0.400  0.00  0.00    +0.121 C 
BRANCH  19  21
ATOM     21  C   UNL     1       1.136 -11.709  -0.848  0.00  0.00    +0.076 C 
ATOM     22  C   UNL     1       0.720 -12.895   0.025  0.00  0.00    +0.022 C 
ATOM     23  C   UNL     1       0.798 -14.184  -0.795  0.00  0.00    +0.002 C 
ATOM     24  C   UNL     1       2.232 -14.390  -1.285  0.00  0.00    +0.000 C 
ATOM     25  C   UNL     1       2.649 -13.205  -2.158  0.00  0.00    +0.002 C 
ATOM     26  C   UNL     1       2.571 -11.916  -1.338  0.00  0.00    +0.022 C 
ENDBRANCH  19  21
ENDBRANCH  12  15
TORSDOF 2
