REMARK  Name = ZINC05728989
REMARK  4 active torsions:
REMARK  status: ('A' for Active; 'I' for Inactive)
REMARK    1  A    between atoms: C_4  and  N_7
REMARK    2  A    between atoms: N_8  and  C_9
REMARK    3  A    between atoms: C_10  and  C_16
REMARK    4  A    between atoms: C_14  and  N_15
REMARK                            x       y       z     vdW  Elec       q    Type
REMARK                         _______ _______ _______ _____ _____    ______ ____
ROOT
ATOM      1  C   UNL     1       4.808  -2.579  -0.060  0.00  0.00    +0.152 A 
ATOM      2  C   UNL     1       5.007  -4.033  -0.076  0.00  0.00    +0.121 A 
ATOM      3  N   UNL     1       6.303  -4.246  -0.089  0.00  0.00    -0.170 NA
ATOM      4  N   UNL     1       6.975  -3.021  -0.082  0.00  0.00    -0.262 N 
ATOM      5  H   UNL     1       7.939  -2.912  -0.090  0.00  0.00    +0.190 HD
ATOM      6  C   UNL     1       6.080  -2.012  -0.071  0.00  0.00    +0.140 A 
ENDROOT
BRANCH   2   7
ATOM      7  C   UNL     1       3.946  -5.067  -0.077  0.00  0.00    +0.004 A 
ATOM      8  C   UNL     1       2.759  -4.853   0.623  0.00  0.00    +0.011 A 
ATOM      9  C   UNL     1       1.774  -5.819   0.618  0.00  0.00    +0.016 A 
ATOM     10  C   UNL     1       1.962  -7.000  -0.078  0.00  0.00    +0.018 A 
ATOM     11  C   UNL     1       3.139  -7.219  -0.774  0.00  0.00    +0.016 A 
ATOM     12  C   UNL     1       4.128  -6.256  -0.782  0.00  0.00    +0.011 A 
ATOM     13 BR   UNL     1       0.608  -8.320  -0.079  0.00  0.00    -0.050 Br
ENDBRANCH   2   7
BRANCH   6  14
ATOM     14  N   UNL     1       6.372  -0.661  -0.067  0.00  0.00    -0.342 N 
ATOM     15  H   UNL     1       5.653  -0.010  -0.056  0.00  0.00    +0.144 HD
ATOM     16  H   UNL     1       7.295  -0.364  -0.075  0.00  0.00    +0.144 HD
ENDBRANCH   6  14
BRANCH   1  18
ATOM     17  N   UNL     1       3.600  -0.630  -0.037  0.00  0.00    -0.149 NA
ATOM     18  N   UNL     1       3.621  -1.920  -0.044  0.00  0.00    -0.144 NA
BRANCH  17  22
ATOM     19  C   UNL     1      -0.017   1.380   0.010  0.00  0.00    +0.000 A 
ATOM     20  C   UNL     1       1.168   2.094   0.002  0.00  0.00    +0.002 A 
ATOM     21  C   UNL     1       2.377   1.431  -0.013  0.00  0.00    +0.029 A 
ATOM     22  C   UNL     1       2.404   0.034  -0.021  0.00  0.00    +0.086 A 
ATOM     23  C   UNL     1       1.204  -0.681  -0.013  0.00  0.00    +0.029 A 
ATOM     24  C   UNL     1       0.002  -0.004   0.002  0.00  0.00    +0.002 A 
ENDBRANCH  17  22
ENDBRANCH   1  18
TORSDOF 4
