REMARK  Name = ZINC67427259
REMARK  4 active torsions:
REMARK  status: ('A' for Active; 'I' for Inactive)
REMARK    1  A    between atoms: C_3  and  N_6
REMARK    2  A    between atoms: C_12  and  C_15
REMARK    3  A    between atoms: C_15  and  C_17
REMARK    4  A    between atoms: C_15  and  O_24
REMARK                            x       y       z     vdW  Elec       q    Type
REMARK                         _______ _______ _______ _____ _____    ______ ____
ROOT
ATOM      1  N   UNL     1       4.447  -0.399  -0.042  0.00  0.00    -0.264 N 
ATOM      2  C   UNL     1       4.690   0.927  -0.038  0.00  0.00    +0.307 C 
ATOM      3  O   UNL     1       3.767   1.714  -0.117  0.00  0.00    -0.252 OA
ATOM      4  N   UNL     1       5.956   1.379   0.054  0.00  0.00    -0.285 N 
ATOM      5  C   UNL     1       6.230   2.818   0.176  0.00  0.00    +0.109 C 
ATOM      6  C   UNL     1       7.114   3.049   1.405  0.00  0.00    +0.025 C 
ATOM      7  C   UNL     1       8.367   2.178   1.299  0.00  0.00    +0.025 C 
ATOM      8  C   UNL     1       7.963   0.702   1.265  0.00  0.00    +0.025 C 
ATOM      9  C   UNL     1       7.089   0.444   0.040  0.00  0.00    +0.109 C 
ATOM     10  H   UNL     1       5.186  -1.027  -0.053  0.00  0.00    +0.157 HD
ENDROOT
BRANCH   1  13
ATOM     11  C   UNL     1       1.312  -2.378  -0.015  0.00  0.00    +0.009 A 
ATOM     12  C   UNL     1       2.677  -2.153  -0.030  0.00  0.00    +0.031 A 
ATOM     13  C   UNL     1       3.130  -0.868  -0.029  0.00  0.00    +0.073 A 
ATOM     14  S   UNL     1       1.605   0.060  -0.006  0.00  0.00    -0.082 S 
ATOM     15  C   UNL     1       0.470  -1.317   0.001  0.00  0.00    +0.047 A 
ENDBRANCH   1  13
BRANCH   7  16
ATOM     16  C   UNL     1       9.269   2.432   2.508  0.00  0.00    +0.148 C 
BRANCH  16  17
ATOM     17  C   UNL     1      10.503   1.574   2.403  0.00  0.00    -0.019 A 
ATOM     18  C   UNL     1      11.591   2.015   1.673  0.00  0.00    +0.007 A 
ATOM     19  C   UNL     1      12.724   1.228   1.577  0.00  0.00    +0.020 A 
ATOM     20  C   UNL     1      12.768  -0.001   2.211  0.00  0.00    +0.041 A 
ATOM     21  C   UNL     1      11.679  -0.442   2.941  0.00  0.00    +0.020 A 
ATOM     22  C   UNL     1      10.550   0.348   3.042  0.00  0.00    +0.007 A 
ATOM     23 CL   UNL     1      14.190  -0.989   2.090  0.00  0.00    -0.084 Cl
ENDBRANCH  16  17
BRANCH  16  24
ATOM     24  O   UNL     1       9.648   3.809   2.539  0.00  0.00    -0.387 OA
ATOM     25  H   UNL     1      10.132   4.101   1.755  0.00  0.00    +0.210 HD
ENDBRANCH  16  24
ENDBRANCH   7  16
TORSDOF 4
