REMARK  Name = ZINC39955026
REMARK  8 active torsions:
REMARK  status: ('A' for Active; 'I' for Inactive)
REMARK    1  A    between atoms: C_1  and  C_2
REMARK    2  A    between atoms: C_2  and  C_3
REMARK    3  A    between atoms: C_2  and  C_4
REMARK    4  A    between atoms: C_4  and  C_5
REMARK    5  A    between atoms: C_7  and  C_11
REMARK    6  A    between atoms: C_15  and  C_20
REMARK    7  A    between atoms: C_20  and  S_21
REMARK    8  A    between atoms: S_21  and  C_22
REMARK                            x       y       z     vdW  Elec       q    Type
REMARK                         _______ _______ _______ _____ _____    ______ ____
ROOT
ATOM      1  C   UNL     1      -2.690  -5.047   0.564  0.00  0.00    +0.182 C 
ATOM      2  N   UNL     1      -2.664  -6.394  -0.066  0.00  0.00    -0.265 N 
ATOM      3  N   UNL     1      -3.868  -6.838  -0.527  0.00  0.00    -0.223 N 
ATOM      4  C   UNL     1      -4.449  -8.052  -0.849  0.00  0.00    +0.161 A 
ATOM      5  N   UNL     1      -5.648  -7.818  -1.294  0.00  0.00    -0.131 NA
ATOM      6  N   UNL     1      -5.890  -6.554  -1.269  0.00  0.00    -0.121 NA
ATOM      7  C   UNL     1      -4.857  -5.927  -0.799  0.00  0.00    +0.210 A 
ATOM      8  S   UNL     1      -4.157  -4.360  -0.321  0.00  0.00    -0.058 S 
ATOM      9  H   UNL     1      -1.961  -6.443  -0.787  0.00  0.00    +0.168 HD
ENDROOT
BRANCH   1  12
ATOM     10  C   UNL     1      -1.416  -2.035  -0.119  0.00  0.00    +0.062 C 
ATOM     11  C   UNL     1      -1.465  -2.886   0.907  0.00  0.00    +0.029 C 
ATOM     12  C   UNL     1      -1.420  -4.254   0.250  0.00  0.00    +0.185 C 
ATOM     13  N   UNL     1      -1.346  -3.930  -1.185  0.00  0.00    -0.177 NA
ATOM     14  N   UNL     1      -1.355  -2.701  -1.293  0.00  0.00    -0.159 NA
BRANCH  10  15
ATOM     15  C   UNL     1      -1.433  -0.534   0.013  0.00  0.00    +0.060 C 
BRANCH  15  17
ATOM     16  C   UNL     1      -0.019   1.526   0.010  0.00  0.00    +0.007 C 
ATOM     17  C   UNL     1       0.002  -0.004   0.002  0.00  0.00    -0.011 C 
ATOM     18  C   UNL     1       0.742  -0.511   1.242  0.00  0.00    +0.007 C 
ENDBRANCH  15  17
ENDBRANCH  10  15
ENDBRANCH   1  12
BRANCH   4  19
ATOM     19  C   UNL     1      -3.804  -9.407  -0.709  0.00  0.00    +0.152 C 
BRANCH  19  20
ATOM     20  S   UNL     1      -4.160 -10.078   0.939  0.00  0.00    -0.117 S 
BRANCH  20  21
ATOM     21  C   UNL     1      -3.349 -11.642   0.946  0.00  0.00    +0.008 A 
ATOM     22  C   UNL     1      -2.644 -12.066  -0.174  0.00  0.00    +0.016 A 
ATOM     23  C   UNL     1      -2.010 -13.292  -0.165  0.00  0.00    +0.021 A 
ATOM     24  C   UNL     1      -2.077 -14.100   0.957  0.00  0.00    +0.041 A 
ATOM     25  C   UNL     1      -2.779 -13.681   2.073  0.00  0.00    +0.021 A 
ATOM     26  C   UNL     1      -3.410 -12.453   2.073  0.00  0.00    +0.016 A 
ATOM     27 CL   UNL     1      -1.279 -15.641   0.963  0.00  0.00    -0.084 Cl
ENDBRANCH  20  21
ENDBRANCH  19  20
ENDBRANCH   4  19
TORSDOF 6
