REMARK  Name = ZINC20701147
REMARK  3 active torsions:
REMARK  status: ('A' for Active; 'I' for Inactive)
REMARK    1  A    between atoms: C_6  and  C_7
REMARK    2  A    between atoms: C_16  and  C_19
REMARK    3  A    between atoms: C_24  and  O_25
REMARK                            x       y       z     vdW  Elec       q    Type
REMARK                         _______ _______ _______ _____ _____    ______ ____
ROOT
ATOM      1  C   UNL     1       2.393   6.870   0.747  0.00  0.00    +0.020 A 
ATOM      2  C   UNL     1       2.788   5.859  -0.098  0.00  0.00    +0.024 A 
ATOM      3  C   UNL     1       3.019   4.576   0.394  0.00  0.00    +0.031 A 
ATOM      4  C   UNL     1       2.834   4.318   1.760  0.00  0.00    -0.018 A 
ATOM      5  C   UNL     1       2.447   5.327   2.607  0.00  0.00    +0.025 A 
ATOM      6  C   UNL     1       2.222   6.615   2.110  0.00  0.00    +0.052 A 
ATOM      7  C   UNL     1       3.050   2.932   2.228  0.00  0.00    +0.049 C 
ATOM      8  C   UNL     1       3.443   2.628   3.627  0.00  0.00    -0.023 C 
ATOM      9  C   UNL     1       4.192   1.531   3.629  0.00  0.00    -0.030 C 
ATOM     10  C   UNL     1       4.386   1.029   2.197  0.00  0.00    +0.033 C 
ATOM     11  C   UNL     1       4.214   2.322   1.390  0.00  0.00    +0.029 C 
ATOM     12  C   UNL     1       3.671   2.193  -0.022  0.00  0.00    +0.109 C 
ATOM     13  N   UNL     1       3.435   3.576  -0.487  0.00  0.00    -0.336 N 
ATOM     14  H   UNL     1       3.586   3.834  -1.546  0.00  0.00    +0.147 HD
ENDROOT
BRANCH  12  15
ATOM     15  C   UNL     1       2.378   1.418  -0.013  0.00  0.00    +0.017 A 
ATOM     16  C   UNL     1       1.171   2.090   0.002  0.00  0.00    +0.029 A 
ATOM     17  C   UNL     1      -0.017   1.380   0.010  0.00  0.00    +0.043 A 
ATOM     18  C   UNL     1       0.002  -0.004   0.002  0.00  0.00    +0.043 A 
ATOM     19  C   UNL     1       1.208  -0.679  -0.013  0.00  0.00    +0.084 A 
ATOM     20  C   UNL     1       2.400   0.032  -0.020  0.00  0.00    +0.140 A 
ATOM     21 CL   UNL     1       1.232  -2.415  -0.022  0.00  0.00    -0.080 Cl
ATOM     22 CL   UNL     1      -1.532   2.226   0.021  0.00  0.00    -0.083 Cl
BRANCH  20  23
ATOM     23  O   UNL     1       3.588  -0.630  -0.035  0.00  0.00    -0.505 OA
ATOM     24  H   UNL     1       3.604  -1.730  -0.041  0.00  0.00    +0.292 HD
ENDBRANCH  20  23
ENDBRANCH  12  15
BRANCH   6  25
ATOM     25  C   UNL     1       1.818   7.667   2.994  0.00  0.00    +0.099 C 
ATOM     26  N   UNL     1       1.498   8.502   3.695  0.00  0.00    -0.191 NA
ENDBRANCH   6  25
TORSDOF 3
