REMARK  Name = ZINC38704927
REMARK  11 active torsions:
REMARK  status: ('A' for Active; 'I' for Inactive)
REMARK    1  A    between atoms: C_1  and  C_2
REMARK    2  A    between atoms: C_4  and  C_36
REMARK    3  A    between atoms: C_5  and  C_9
REMARK    4  A    between atoms: C_6  and  O_8
REMARK    5  A    between atoms: N_17  and  C_30
REMARK    6  A    between atoms: C_18  and  C_20
REMARK    7  A    between atoms: C_23  and  C_26
REMARK    8  A    between atoms: C_26  and  C_27
REMARK    9  A    between atoms: C_26  and  C_28
REMARK   10  A    between atoms: C_26  and  C_29
REMARK   11  A    between atoms: C_30  and  C_31
REMARK                            x       y       z     vdW  Elec       q    Type
REMARK                         _______ _______ _______ _____ _____    ______ ____
ROOT
ATOM      1  C   UNL     1      -0.230  -4.713  -0.111  0.00  0.00    +0.102 A 
ATOM      2  C   UNL     1       0.044  -5.348   1.105  0.00  0.00    +0.035 A 
ATOM      3  C   UNL     1       0.104  -6.698   0.820  0.00  0.00    +0.126 A 
ATOM      4  N   UNL     1      -0.130  -6.814  -0.521  0.00  0.00    -0.272 N 
ATOM      5  H   UNL     1      -0.151  -7.650  -1.013  0.00  0.00    +0.189 HD
ATOM      6  N   UNL     1      -0.326  -5.651  -1.033  0.00  0.00    -0.173 NA
ATOM      7  C   UNL     1       0.389  -7.425   2.062  0.00  0.00    +0.266 C 
ATOM      8  O   UNL     1       0.504  -8.633   2.148  0.00  0.00    -0.268 OA
ATOM      9  N   UNL     1       0.505  -6.567   3.091  0.00  0.00    -0.278 N 
ATOM     10  C   UNL     1       0.301  -5.205   2.580  0.00  0.00    +0.142 C 
ENDROOT
BRANCH   1  15
ATOM     11  C   UNL     1      -0.853   0.956  -0.939  0.00  0.00    +0.044 C 
ATOM     12  C   UNL     1      -0.688  -0.526  -0.721  0.00  0.00    -0.047 A 
ATOM     13  C   UNL     1      -1.619  -1.407  -1.242  0.00  0.00    +0.007 A 
ATOM     14  C   UNL     1      -1.475  -2.766  -1.047  0.00  0.00    -0.037 A 
ATOM     15  C   UNL     1      -0.389  -3.253  -0.324  0.00  0.00    +0.047 A 
ATOM     16  C   UNL     1       0.550  -2.361   0.201  0.00  0.00    +0.127 A 
ATOM     17  C   UNL     1       0.397  -0.999  -0.007  0.00  0.00    +0.049 A 
ATOM     18  C   UNL     1      -2.492  -3.721  -1.616  0.00  0.00    +0.044 C 
BRANCH  16  19
ATOM     19  O   UNL     1       1.613  -2.827   0.908  0.00  0.00    -0.506 OA
ATOM     20  H   UNL     1       2.414  -2.946   0.380  0.00  0.00    +0.292 HD
ENDBRANCH  16  19
ENDBRANCH   1  15
BRANCH  10  21
ATOM     21  C   UNL     1      -0.889  -4.572   3.255  0.00  0.00    -0.022 A 
ATOM     22  C   UNL     1      -2.044  -5.306   3.450  0.00  0.00    +0.006 A 
ATOM     23  C   UNL     1      -3.135  -4.726   4.069  0.00  0.00    +0.004 A 
ATOM     24  C   UNL     1      -3.072  -3.411   4.493  0.00  0.00    -0.042 A 
ATOM     25  C   UNL     1      -1.916  -2.678   4.298  0.00  0.00    +0.004 A 
ATOM     26  C   UNL     1      -0.824  -3.260   3.683  0.00  0.00    +0.006 A 
BRANCH  24  27
ATOM     27  C   UNL     1      -4.262  -2.778   5.166  0.00  0.00    -0.013 C 
ATOM     28  C   UNL     1      -4.604  -3.559   6.436  0.00  0.00    +0.015 C 
ATOM     29  C   UNL     1      -3.930  -1.330   5.532  0.00  0.00    +0.015 C 
ATOM     30  C   UNL     1      -5.459  -2.802   4.214  0.00  0.00    +0.015 C 
ENDBRANCH  24  27
ENDBRANCH  10  21
BRANCH   9  31
ATOM     31  C   UNL     1       0.786  -6.928   4.482  0.00  0.00    +0.183 C 
BRANCH  31  32
ATOM     32  C   UNL     1       2.276  -6.938   4.708  0.00  0.00    +0.122 A 
ATOM     33  C   UNL     1       3.017  -5.891   5.112  0.00  0.00    +0.046 A 
ATOM     34  C   UNL     1       4.355  -6.341   5.191  0.00  0.00    +0.041 A 
ATOM     35  C   UNL     1       4.351  -7.638   4.831  0.00  0.00    +0.195 A 
ATOM     36  O   UNL     1       3.088  -7.995   4.545  0.00  0.00    -0.466 OA
ENDBRANCH  31  32
ENDBRANCH   9  31
TORSDOF 6
