REMARK  Name = ZINC64866287
REMARK  10 active torsions:
REMARK  status: ('A' for Active; 'I' for Inactive)
REMARK    1  A    between atoms: C_1  and  C_2
REMARK    2  A    between atoms: C_5  and  C_23
REMARK    3  A    between atoms: C_7  and  S_8
REMARK    4  A    between atoms: S_8  and  C_11
REMARK    5  A    between atoms: C_11  and  C_12
REMARK    6  A    between atoms: C_12  and  C_13
REMARK    7  A    between atoms: N_15  and  C_16
REMARK    8  A    between atoms: C_16  and  C_17
REMARK    9  A    between atoms: C_20  and  C_22
REMARK   10  A    between atoms: C_25  and  C_28
REMARK                            x       y       z     vdW  Elec       q    Type
REMARK                         _______ _______ _______ _____ _____    ______ ____
ROOT
ATOM      1  S   UNL     1       0.025   0.179   2.725  0.00  0.00    -0.002 S 
ATOM      2  O   UNL     1      -1.057   1.094   2.619  0.00  0.00    -0.169 OA
ATOM      3  O   UNL     1       0.024  -0.831   3.725  0.00  0.00    -0.169 OA
ENDROOT
BRANCH   1  10
ATOM      4  C   UNL     1      -0.018   1.503   0.010  0.00  0.00    +0.046 C 
ATOM      5  C   UNL     1       0.002  -0.004   0.002  0.00  0.00    -0.026 A 
ATOM      6  C   UNL     1       0.006  -0.686  -1.202  0.00  0.00    +0.006 A 
ATOM      7  C   UNL     1       0.024  -2.066  -1.216  0.00  0.00    +0.012 A 
ATOM      8  C   UNL     1       0.040  -2.773  -0.013  0.00  0.00    +0.022 A 
ATOM      9  C   UNL     1       0.037  -2.079   1.197  0.00  0.00    +0.038 A 
ATOM     10  C   UNL     1       0.023  -0.699   1.198  0.00  0.00    +0.092 A 
BRANCH   8  11
ATOM     11  C   UNL     1       0.060  -4.251  -0.021  0.00  0.00    +0.168 A 
ATOM     12  C   UNL     1       0.070  -5.048  -1.125  0.00  0.00    +0.075 A 
ATOM     13  C   UNL     1       0.089  -6.383  -0.695  0.00  0.00    +0.081 A 
ATOM     14  N   UNL     1       0.089  -6.393   0.609  0.00  0.00    -0.083 NA
ATOM     15  O   UNL     1       0.076  -5.051   1.061  0.00  0.00    -0.354 OA
ATOM     16  C   UNL     1       0.104  -7.597  -1.587  0.00  0.00    +0.069 C 
ENDBRANCH   8  11
ENDBRANCH   1  10
BRANCH   1  17
ATOM     17  C   UNL     1       1.601   1.076   2.745  0.00  0.00    +0.181 C 
BRANCH  17  18
ATOM     18  C   UNL     1       1.713   1.883   4.041  0.00  0.00    +0.119 C 
BRANCH  18  19
ATOM     19  C   UNL     1       3.023   2.628   4.057  0.00  0.00    +0.215 C 
ATOM     20  O   UNL     1       3.792   2.524   3.125  0.00  0.00    -0.276 OA
ATOM     21  N   UNL     1       3.340   3.410   5.108  0.00  0.00    -0.308 N 
ATOM     22  H   UNL     1       2.725   3.493   5.854  0.00  0.00    +0.149 HD
BRANCH  21  23
ATOM     23  C   UNL     1       4.614   4.134   5.124  0.00  0.00    +0.178 C 
BRANCH  23  24
ATOM     24  C   UNL     1       4.723   4.928   6.400  0.00  0.00    +0.122 A 
ATOM     25  C   UNL     1       5.263   4.494   7.553  0.00  0.00    +0.046 A 
ATOM     26  C   UNL     1       5.158   5.557   8.480  0.00  0.00    +0.045 A 
ATOM     27  C   UNL     1       4.560   6.576   7.838  0.00  0.00    +0.102 A 
ATOM     28  O   UNL     1       4.304   6.192   6.577  0.00  0.00    -0.463 OA
ATOM     29  C   UNL     1       4.237   7.923   8.432  0.00  0.00    +0.086 C 
ENDBRANCH  23  24
ENDBRANCH  21  23
ENDBRANCH  18  19
ENDBRANCH  17  18
ENDBRANCH   1  17
TORSDOF 7
