REMARK  Name = ZINC14092800
REMARK  8 active torsions:
REMARK  status: ('A' for Active; 'I' for Inactive)
REMARK    1  A    between atoms: C_1  and  C_2
REMARK    2  A    between atoms: C_5  and  C_8
REMARK    3  A    between atoms: C_8  and  C_10
REMARK    4  A    between atoms: C_8  and  N_16
REMARK    5  A    between atoms: N_16  and  C_17
REMARK    6  A    between atoms: C_17  and  C_18
REMARK    7  A    between atoms: N_20  and  C_21
REMARK    8  A    between atoms: N_20  and  C_29
REMARK                            x       y       z     vdW  Elec       q    Type
REMARK                         _______ _______ _______ _____ _____    ______ ____
ROOT
ATOM      1  N   UNL     1      -0.262  -4.933   1.513  0.00  0.00    +0.392 N 
ATOM      2  H   UNL     1       0.176  -4.966   2.421  0.00  0.00    -0.084 HD
ATOM      3  H   UNL     1      -1.060  -4.317   1.548  0.00  0.00    -0.084 HD
ENDROOT
BRANCH   1   4
ATOM      4  C   UNL     1       0.700  -4.433   0.523  0.00  0.00    -0.009 C 
BRANCH   4   9
ATOM      5  C   UNL     1       2.066   1.044   1.760  0.00  0.00    +0.044 C 
ATOM      6  C   UNL     1       1.710  -0.385   1.437  0.00  0.00    -0.050 A 
ATOM      7  C   UNL     1       1.527  -0.772   0.123  0.00  0.00    +0.003 A 
ATOM      8  C   UNL     1       1.201  -2.082  -0.173  0.00  0.00    +0.002 A 
ATOM      9  C   UNL     1       1.057  -3.005   0.845  0.00  0.00    -0.057 A 
ATOM     10  C   UNL     1       1.241  -2.619   2.160  0.00  0.00    +0.002 A 
ATOM     11  C   UNL     1       1.572  -1.310   2.455  0.00  0.00    +0.003 A 
ENDBRANCH   4   9
BRANCH   4  12
ATOM     12  C   UNL     1       1.945  -5.283   0.559  0.00  0.00    -0.057 A 
ATOM     13  C   UNL     1       2.446  -5.723   1.769  0.00  0.00    +0.002 A 
ATOM     14  C   UNL     1       3.587  -6.503   1.802  0.00  0.00    +0.000 A 
ATOM     15  C   UNL     1       4.227  -6.841   0.624  0.00  0.00    +0.000 A 
ATOM     16  C   UNL     1       3.725  -6.401  -0.586  0.00  0.00    +0.000 A 
ATOM     17  C   UNL     1       2.582  -5.626  -0.619  0.00  0.00    +0.002 A 
ENDBRANCH   4  12
ENDBRANCH   1   4
BRANCH   1  18
ATOM     18  C   UNL     1      -0.702  -6.282   1.132  0.00  0.00    +0.016 C 
BRANCH  18  19
ATOM     19  C   UNL     1      -1.689  -6.795   2.149  0.00  0.00    +0.199 C 
ATOM     20  O   UNL     1      -2.119  -6.051   3.005  0.00  0.00    -0.278 OA
ATOM     21  N   UNL     1      -2.094  -8.080   2.106  0.00  0.00    -0.295 N 
BRANCH  21  22
ATOM     22  C   UNL     1      -1.460  -9.017   1.177  0.00  0.00    +0.099 C 
ATOM     23  C   UNL     1      -1.691  -8.541  -0.267  0.00  0.00    +0.046 C 
ATOM     24  C   UNL     1      -0.757  -9.361  -1.203  0.00  0.00    +0.168 C 
ATOM     25  S   UNL     1       0.779  -9.410  -0.188  0.00  0.00    -0.029 S 
ATOM     26  O   UNL     1       1.609  -8.316  -0.552  0.00  0.00    -0.174 OA
ATOM     27  O   UNL     1       1.309 -10.728  -0.214  0.00  0.00    -0.174 OA
ATOM     28  C   UNL     1       0.058  -9.085   1.472  0.00  0.00    +0.188 C 
ENDBRANCH  21  22
BRANCH  21  29
ATOM     29  C   UNL     1      -3.170  -8.538   2.989  0.00  0.00    +0.076 C 
ATOM     30  C   UNL     1      -4.442  -7.739   2.700  0.00  0.00    +0.022 C 
ATOM     31  C   UNL     1      -5.565  -8.218   3.622  0.00  0.00    +0.002 C 
ATOM     32  C   UNL     1      -5.152  -8.009   5.080  0.00  0.00    +0.000 C 
ATOM     33  C   UNL     1      -3.879  -8.808   5.369  0.00  0.00    +0.002 C 
ATOM     34  C   UNL     1      -2.756  -8.329   4.447  0.00  0.00    +0.022 C 
ENDBRANCH  21  29
ENDBRANCH  18  19
ENDBRANCH   1  18
TORSDOF 7
