REMARK  Name = ZINC16435890
REMARK  15 active torsions:
REMARK  status: ('A' for Active; 'I' for Inactive)
REMARK    1  A    between atoms: C_1  and  C_2
REMARK    2  A    between atoms: C_5  and  N_9
REMARK    3  A    between atoms: C_6  and  C_8
REMARK    4  A    between atoms: C_10  and  N_18
REMARK    5  A    between atoms: C_12  and  C_14
REMARK    6  A    between atoms: C_14  and  C_15
REMARK    7  A    between atoms: C_14  and  C_16
REMARK    8  A    between atoms: C_14  and  C_17
REMARK    9  A    between atoms: C_19  and  C_21
REMARK   10  A    between atoms: C_21  and  N_22
REMARK   11  A    between atoms: N_22  and  C_23
REMARK   12  A    between atoms: C_23  and  C_24
REMARK   13  A    between atoms: C_24  and  O_25
REMARK   14  A    between atoms: O_25  and  C_26
REMARK   15  A    between atoms: C_27  and  C_29
REMARK                            x       y       z     vdW  Elec       q    Type
REMARK                         _______ _______ _______ _____ _____    ______ ____
ROOT
ATOM      1  N   UNL     1      -4.824   3.266  -1.946  0.00  0.00    -0.269 N 
ATOM      2  C   UNL     1      -3.693   2.690  -1.493  0.00  0.00    +0.236 C 
ATOM      3  O   UNL     1      -2.964   2.098  -2.261  0.00  0.00    -0.274 OA
ATOM      4  H   UNL     1      -5.407   3.739  -1.331  0.00  0.00    +0.156 HD
ENDROOT
BRANCH   1   6
ATOM      5  N   UNL     1      -6.311   3.616  -3.871  0.00  0.00    -0.218 N 
ATOM      6  C   UNL     1      -5.156   3.182  -3.297  0.00  0.00    +0.129 A 
ATOM      7  C   UNL     1      -4.383   2.655  -4.286  0.00  0.00    +0.069 A 
ATOM      8  C   UNL     1      -5.088   2.765  -5.487  0.00  0.00    +0.071 A 
ATOM      9  N   UNL     1      -6.237   3.341  -5.243  0.00  0.00    -0.169 NA
BRANCH   5  14
ATOM     10  C   UNL     1     -10.652   6.101  -1.190  0.00  0.00    +0.044 C 
ATOM     11  C   UNL     1      -9.499   5.441  -1.901  0.00  0.00    -0.050 A 
ATOM     12  C   UNL     1      -8.952   4.276  -1.396  0.00  0.00    +0.005 A 
ATOM     13  C   UNL     1      -7.899   3.666  -2.049  0.00  0.00    +0.028 A 
ATOM     14  C   UNL     1      -7.383   4.230  -3.209  0.00  0.00    +0.070 A 
ATOM     15  C   UNL     1      -7.934   5.400  -3.713  0.00  0.00    -0.025 A 
ATOM     16  C   UNL     1      -8.991   6.003  -3.058  0.00  0.00    +0.008 A 
ATOM     17  C   UNL     1      -7.381   6.012  -4.974  0.00  0.00    +0.046 C 
ENDBRANCH   5  14
BRANCH   8  18
ATOM     18  C   UNL     1      -4.604   2.304  -6.838  0.00  0.00    +0.006 C 
ATOM     19  C   UNL     1      -4.700   0.779  -6.921  0.00  0.00    +0.017 C 
ATOM     20  C   UNL     1      -5.471   2.930  -7.932  0.00  0.00    +0.017 C 
ATOM     21  C   UNL     1      -3.148   2.734  -7.032  0.00  0.00    +0.017 C 
ENDBRANCH   8  18
ENDBRANCH   1   6
BRANCH   2  22
ATOM     22  C   UNL     1      -3.334   2.780  -0.032  0.00  0.00    +0.204 C 
BRANCH  22  23
ATOM     23  N   UNL     1      -2.069   2.080   0.204  0.00  0.00    -0.286 N 
ATOM     24  C   UNL     1      -0.901   2.747   0.108  0.00  0.00    +0.249 C 
ATOM     25  O   UNL     1      -0.901   3.948  -0.080  0.00  0.00    -0.270 OA
BRANCH  24  26
ATOM     26  C   UNL     1       0.377   2.017   0.230  0.00  0.00    +0.055 A 
ATOM     27  C   UNL     1       0.647   0.931  -0.605  0.00  0.00    +0.016 A 
ATOM     28  C   UNL     1       1.845   0.258  -0.490  0.00  0.00    +0.021 A 
ATOM     29  C   UNL     1       2.781   0.657   0.451  0.00  0.00    +0.042 A 
ATOM     30  C   UNL     1       2.520   1.733   1.282  0.00  0.00    +0.040 A 
ATOM     31  C   UNL     1       1.324   2.415   1.177  0.00  0.00    +0.054 A 
ATOM     32 CL   UNL     1       0.999   3.765   2.219  0.00  0.00    -0.083 Cl
ATOM     33 CL   UNL     1       4.286  -0.197   0.589  0.00  0.00    -0.083 Cl
ENDBRANCH  24  26
BRANCH  23  34
ATOM     34  C   UNL     1      -2.073   0.655   0.546  0.00  0.00    +0.136 C 
BRANCH  34  35
ATOM     35  C   UNL     1      -2.225   0.494   2.060  0.00  0.00    +0.178 C 
BRANCH  35  36
ATOM     36  O   UNL     1      -3.505   0.984   2.465  0.00  0.00    -0.381 OA
ATOM     37  C   UNL     1      -3.750   0.879   3.869  0.00  0.00    +0.194 C 
ENDBRANCH  35  36
ENDBRANCH  34  35
ENDBRANCH  23  34
ENDBRANCH  22  23
ENDBRANCH   2  22
TORSDOF 9
