REMARK  Name = ZINC14633170
REMARK  4 active torsions:
REMARK  status: ('A' for Active; 'I' for Inactive)
REMARK    1  A    between atoms: C_9  and  C_11
REMARK    2  A    between atoms: C_14  and  N_17
REMARK    3  A    between atoms: C_18  and  C_20
REMARK    4  A    between atoms: C_20  and  C_21
REMARK                            x       y       z     vdW  Elec       q    Type
REMARK                         _______ _______ _______ _____ _____    ______ ____
ROOT
ATOM      1  C   UNL     1      -1.151   4.846   0.060  0.00  0.00    +0.017 A 
ATOM      2  C   UNL     1      -2.547   4.880   0.072  0.00  0.00    +0.013 A 
ATOM      3  C   UNL     1      -3.206   6.090   0.083  0.00  0.00    +0.024 A 
ATOM      4  C   UNL     1      -2.482   7.277   0.071  0.00  0.00    +0.033 A 
ATOM      5  C   UNL     1      -1.092   7.247   0.054  0.00  0.00    +0.024 A 
ATOM      6  C   UNL     1      -0.428   6.040   0.049  0.00  0.00    +0.013 A 
ENDROOT
BRANCH   1  15
ATOM      7  C   UNL     1       1.177  -0.687   0.042  0.00  0.00    +0.002 A 
ATOM      8  C   UNL     1       2.374   0.015   0.026  0.00  0.00    +0.002 A 
ATOM      9  C   UNL     1       2.380   1.381   0.023  0.00  0.00    +0.030 A 
ATOM     10  C   UNL     1       1.171   2.084   0.037  0.00  0.00    +0.089 A 
ATOM     11  C   UNL     1      -0.041   1.373   0.053  0.00  0.00    +0.066 A 
ATOM     12  C   UNL     1      -0.027  -0.015   0.056  0.00  0.00    +0.028 A 
ATOM     13  N   UNL     1      -1.046   2.321   0.058  0.00  0.00    -0.338 N 
ATOM     14  H   UNL     1      -2.030   2.144   0.064  0.00  0.00    +0.167 HD
ATOM     15  C   UNL     1      -0.442   3.550   0.054  0.00  0.00    +0.139 A 
ATOM     16  N   UNL     1       0.861   3.404   0.038  0.00  0.00    -0.228 NA
ENDBRANCH   1  15
BRANCH   4  17
ATOM     17  N   UNL     1      -3.153   8.502   0.077  0.00  0.00    -0.285 N 
ATOM     18  C   UNL     1      -4.322   8.633  -0.580  0.00  0.00    +0.218 C 
ATOM     19  O   UNL     1      -4.834   7.667  -1.106  0.00  0.00    -0.275 OA
ATOM     20  H   UNL     1      -2.777   9.258   0.554  0.00  0.00    +0.155 HD
BRANCH  18  21
ATOM     21  C   UNL     1      -4.994   9.979  -0.661  0.00  0.00    +0.103 C 
BRANCH  21  22
ATOM     22  C   UNL     1      -6.296   9.853  -1.456  0.00  0.00    +0.020 C 
ATOM     23  C   UNL     1      -7.046  11.205  -1.480  0.00  0.00    +0.012 C 
ATOM     24  C   UNL     1      -7.641  11.200  -2.907  0.00  0.00    +0.027 C 
ATOM     25  C   UNL     1      -6.732  10.288  -3.698  0.00  0.00    -0.031 C 
ATOM     26  C   UNL     1      -5.999   9.550  -2.906  0.00  0.00    -0.027 C 
ENDBRANCH  21  22
ENDBRANCH  18  21
ENDBRANCH   4  17
TORSDOF 4
