REMARK  Name = ZINC39664964
REMARK  8 active torsions:
REMARK  status: ('A' for Active; 'I' for Inactive)
REMARK    1  A    between atoms: C_1  and  C_2
REMARK    2  A    between atoms: C_5  and  C_8
REMARK    3  A    between atoms: C_12  and  C_21
REMARK    4  A    between atoms: N_23  and  C_24
REMARK    5  A    between atoms: C_24  and  C_25
REMARK    6  A    between atoms: C_25  and  C_27
REMARK    7  A    between atoms: C_25  and  O_28
REMARK    8  A    between atoms: O_28  and  C_29
REMARK                            x       y       z     vdW  Elec       q    Type
REMARK                         _______ _______ _______ _____ _____    ______ ____
ROOT
ATOM      1  C   UNL     1      -1.147  -4.707  -0.845  0.00  0.00    +0.247 C 
ATOM      2  O   UNL     1      -1.465  -5.398  -1.793  0.00  0.00    -0.270 OA
ATOM      3  N   UNL     1      -0.806  -5.283   0.325  0.00  0.00    -0.296 N 
ATOM      4  C   UNL     1      -0.517  -4.615   1.616  0.00  0.00    +0.121 C 
ATOM      5  C   UNL     1      -1.160  -5.531   2.681  0.00  0.00    +0.100 C 
ATOM      6  C   UNL     1      -1.232  -6.916   2.016  0.00  0.00    -0.004 C 
ATOM      7  C   UNL     1      -0.640  -6.728   0.612  0.00  0.00    +0.115 C 
ATOM      8  C   UNL     1      -2.682  -7.378   1.913  0.00  0.00    -0.010 C 
ATOM      9  C   UNL     1      -2.724  -8.781   1.301  0.00  0.00    -0.082 C 
ATOM     10  N   UNL     1      -1.953  -9.706   2.140  0.00  0.00    +0.379 N 
ATOM     11  C   UNL     1      -0.541  -9.307   2.159  0.00  0.00    -0.082 C 
ATOM     12  C   UNL     1      -0.407  -7.926   2.807  0.00  0.00    -0.010 C 
ATOM     13  H   UNL     1      -2.319  -9.689   3.081  0.00  0.00    -0.086 HD
ATOM     14  H   UNL     1      -2.032 -10.641   1.769  0.00  0.00    -0.086 HD
ENDROOT
BRANCH   1  19
ATOM     15  C   UNL     1      -1.100   1.025  -1.351  0.00  0.00    +0.044 C 
ATOM     16  C   UNL     1      -1.112  -0.476  -1.219  0.00  0.00    -0.050 A 
ATOM     17  C   UNL     1      -1.867  -1.238  -2.092  0.00  0.00    +0.004 A 
ATOM     18  C   UNL     1      -1.883  -2.613  -1.977  0.00  0.00    +0.013 A 
ATOM     19  C   UNL     1      -1.135  -3.234  -0.975  0.00  0.00    +0.037 A 
ATOM     20  C   UNL     1      -0.375  -2.459  -0.097  0.00  0.00    +0.013 A 
ATOM     21  C   UNL     1      -0.364  -1.086  -0.228  0.00  0.00    +0.004 A 
ENDBRANCH   1  19
BRANCH   5  22
ATOM     22  C   UNL     1      -2.542  -5.042   3.030  0.00  0.00    +0.218 C 
ATOM     23  O   UNL     1      -3.207  -4.460   2.199  0.00  0.00    -0.275 OA
ATOM     24  N   UNL     1      -3.039  -5.250   4.265  0.00  0.00    -0.312 N 
ATOM     25  H   UNL     1      -2.507  -5.715   4.930  0.00  0.00    +0.149 HD
BRANCH  24  26
ATOM     26  C   UNL     1      -4.383  -4.774   4.604  0.00  0.00    +0.148 C 
BRANCH  26  27
ATOM     27  C   UNL     1      -4.701  -5.136   6.056  0.00  0.00    +0.187 C 
ATOM     28  C   UNL     1      -6.104  -4.638   6.410  0.00  0.00    +0.053 C 
BRANCH  27  29
ATOM     29  O   UNL     1      -4.644  -6.554   6.217  0.00  0.00    -0.488 OA
BRANCH  29  30
ATOM     30  C   UNL     1      -4.376  -7.024   7.464  0.00  0.00    +0.121 A 
ATOM     31  C   UNL     1      -4.186  -8.383   7.669  0.00  0.00    +0.045 A 
ATOM     32  C   UNL     1      -3.913  -8.857   8.937  0.00  0.00    +0.004 A 
ATOM     33  C   UNL     1      -3.831  -7.979  10.002  0.00  0.00    +0.000 A 
ATOM     34  C   UNL     1      -4.020  -6.624   9.800  0.00  0.00    +0.004 A 
ATOM     35  C   UNL     1      -4.287  -6.144   8.533  0.00  0.00    +0.045 A 
ENDBRANCH  29  30
ENDBRANCH  27  29
ENDBRANCH  26  27
ENDBRANCH  24  26
ENDBRANCH   5  22
TORSDOF 6
