REMARK  Name = ZINC36601308
REMARK  10 active torsions:
REMARK  status: ('A' for Active; 'I' for Inactive)
REMARK    1  A    between atoms: C_1  and  C_2
REMARK    2  A    between atoms: C_5  and  C_7
REMARK    3  A    between atoms: C_7  and  N_8
REMARK    4  A    between atoms: N_8  and  C_9
REMARK    5  A    between atoms: C_9  and  C_11
REMARK    6  A    between atoms: C_9  and  C_18
REMARK    7  A    between atoms: C_14  and  O_17
REMARK    8  A    between atoms: N_20  and  C_21
REMARK    9  A    between atoms: C_27  and  C_29
REMARK   10  A    between atoms: C_33  and  N_35
REMARK                            x       y       z     vdW  Elec       q    Type
REMARK                         _______ _______ _______ _____ _____    ______ ____
ROOT
ATOM      1  N   UNL     1       1.053  -2.599  -1.929  0.00  0.00    -0.275 N 
ATOM      2  C   UNL     1       0.386  -3.685  -1.491  0.00  0.00    +0.248 C 
ATOM      3  O   UNL     1      -0.224  -3.641  -0.441  0.00  0.00    -0.270 OA
ENDROOT
BRANCH   2   4
ATOM      4  C   UNL     1       0.395  -4.930  -2.289  0.00  0.00    +0.039 A 
ATOM      5  C   UNL     1       1.606  -5.487  -2.704  0.00  0.00    +0.013 A 
ATOM      6  C   UNL     1       1.607  -6.649  -3.447  0.00  0.00    +0.003 A 
ATOM      7  C   UNL     1       0.412  -7.261  -3.782  0.00  0.00    +0.033 A 
ATOM      8  C   UNL     1      -0.791  -6.714  -3.374  0.00  0.00    +0.127 A 
ATOM      9  C   UNL     1      -0.806  -5.556  -2.625  0.00  0.00    +0.045 A 
BRANCH   8  10
ATOM     10  N   UNL     1      -2.064  -7.376  -3.737  0.00  0.00    +0.056 N 
ATOM     11  O   UNL     1      -2.052  -8.394  -4.390  0.00  0.00    -0.126 OA
ATOM     12  O   UNL     1      -3.116  -6.898  -3.381  0.00  0.00    -0.126 OA
ENDBRANCH   8  10
ENDBRANCH   2   4
BRANCH   1  13
ATOM     13  C   UNL     1       0.950  -1.332  -1.200  0.00  0.00    +0.183 C 
BRANCH  13  18
ATOM     14  C   UNL     1      -3.488   0.696  -2.479  0.00  0.00    +0.086 C 
ATOM     15  C   UNL     1      -2.424  -0.024  -1.691  0.00  0.00    +0.102 A 
ATOM     16  C   UNL     1      -2.580  -0.566  -0.470  0.00  0.00    +0.045 A 
ATOM     17  C   UNL     1      -1.337  -1.135  -0.112  0.00  0.00    +0.046 A 
ATOM     18  C   UNL     1      -0.494  -0.906  -1.135  0.00  0.00    +0.122 A 
ATOM     19  O   UNL     1      -1.160  -0.238  -2.091  0.00  0.00    -0.463 OA
ENDBRANCH  13  18
ENDBRANCH   1  13
BRANCH   1  20
ATOM     20  C   UNL     1       1.881  -2.685  -3.135  0.00  0.00    +0.193 C 
BRANCH  20  21
ATOM     21  C   UNL     1       3.310  -2.354  -2.787  0.00  0.00    -0.018 A 
ATOM     22  C   UNL     1       3.703  -2.300  -1.462  0.00  0.00    +0.009 A 
ATOM     23  C   UNL     1       5.012  -1.996  -1.141  0.00  0.00    +0.046 A 
ATOM     24  C   UNL     1       5.932  -1.747  -2.149  0.00  0.00    +0.117 A 
ATOM     25  C   UNL     1       5.535  -1.803  -3.477  0.00  0.00    +0.046 A 
ATOM     26  C   UNL     1       4.227  -2.111  -3.793  0.00  0.00    +0.009 A 
BRANCH  24  27
ATOM     27  O   UNL     1       7.220  -1.448  -1.835  0.00  0.00    -0.507 OA
ATOM     28  H   UNL     1       7.799  -2.220  -1.770  0.00  0.00    +0.292 HD
ENDBRANCH  24  27
ENDBRANCH  20  21
BRANCH  20  29
ATOM     29  C   UNL     1       1.375  -1.706  -4.163  0.00  0.00    +0.238 C 
ATOM     30  O   UNL     1       0.738  -0.735  -3.814  0.00  0.00    -0.273 OA
ATOM     31  N   UNL     1       1.631  -1.910  -5.471  0.00  0.00    -0.311 N 
ATOM     32  H   UNL     1       2.140  -2.687  -5.750  0.00  0.00    +0.149 HD
BRANCH  31  33
ATOM     33  C   UNL     1       1.139  -0.959  -6.470  0.00  0.00    +0.073 C 
ATOM     34  C   UNL     1      -0.301  -1.314  -6.847  0.00  0.00    +0.022 C 
ATOM     35  C   UNL     1      -0.815  -0.321  -7.891  0.00  0.00    +0.002 C 
ATOM     36  C   UNL     1       0.069  -0.388  -9.137  0.00  0.00    +0.000 C 
ATOM     37  C   UNL     1       1.509  -0.033  -8.761  0.00  0.00    +0.002 C 
ATOM     38  C   UNL     1       2.023  -1.026  -7.717  0.00  0.00    +0.022 C 
ENDBRANCH  31  33
ENDBRANCH  20  29
ENDBRANCH   1  20
TORSDOF 9
