REMARK  Name = ZINC14165947
REMARK  7 active torsions:
REMARK  status: ('A' for Active; 'I' for Inactive)
REMARK    1  A    between atoms: C_1  and  O_2
REMARK    2  A    between atoms: O_2  and  C_3
REMARK    3  A    between atoms: C_8  and  N_9
REMARK    4  A    between atoms: N_9  and  S_10
REMARK    5  A    between atoms: S_10  and  C_13
REMARK    6  A    between atoms: C_26  and  C_29
REMARK    7  A    between atoms: C_32  and  C_35
REMARK                            x       y       z     vdW  Elec       q    Type
REMARK                         _______ _______ _______ _____ _____    ______ ____
ROOT
ATOM      1  C   UNL     1       1.321   1.845   0.127  0.00  0.00    +0.109 A 
ATOM      2  C   UNL     1       0.111   1.179   0.204  0.00  0.00    +0.030 A 
ATOM      3  C   UNL     1      -1.062   1.901   0.293  0.00  0.00    +0.025 A 
ATOM      4  C   UNL     1      -1.024   3.290   0.317  0.00  0.00    +0.031 A 
ATOM      5  C   UNL     1       0.186   3.961   0.240  0.00  0.00    -0.018 A 
ATOM      6  C   UNL     1       1.359   3.224   0.145  0.00  0.00    +0.034 A 
ATOM      7  C   UNL     1       0.276   5.454   0.255  0.00  0.00    +0.049 C 
ATOM      8  C   UNL     1       0.763   5.963   1.591  0.00  0.00    -0.023 C 
ATOM      9  C   UNL     1       0.161   7.088   1.895  0.00  0.00    -0.030 C 
ATOM     10  C   UNL     1      -0.807   7.484   0.797  0.00  0.00    +0.033 C 
ATOM     11  C   UNL     1      -1.091   6.141   0.064  0.00  0.00    +0.029 C 
ATOM     12  C   UNL     1      -2.163   5.400   0.869  0.00  0.00    +0.105 C 
ATOM     13  N   UNL     1      -2.221   4.007   0.415  0.00  0.00    -0.336 N 
ATOM     14  H   UNL     1      -3.068   3.593   0.189  0.00  0.00    +0.147 HD
ENDROOT
BRANCH  12  15
ATOM     15  C   UNL     1      -1.812   5.440   2.334  0.00  0.00    -0.027 A 
ATOM     16  C   UNL     1      -0.877   4.556   2.842  0.00  0.00    +0.006 A 
ATOM     17  C   UNL     1      -0.547   4.590   4.181  0.00  0.00    +0.015 A 
ATOM     18  C   UNL     1      -1.167   5.513   5.026  0.00  0.00    +0.063 A 
ATOM     19  C   UNL     1      -2.113   6.399   4.507  0.00  0.00    +0.015 A 
ATOM     20  C   UNL     1      -2.430   6.357   3.166  0.00  0.00    +0.006 A 
BRANCH  18  21
ATOM     21  C   UNL     1      -0.822   5.552   6.462  0.00  0.00    +0.387 C 
ATOM     22  O   UNL     1      -1.363   6.356   7.194  0.00  0.00    -0.241 OA
ATOM     23  O   UNL     1       0.092   4.696   6.959  0.00  0.00    -0.241 OA
ENDBRANCH  18  21
ENDBRANCH  12  15
BRANCH   1  24
ATOM     24  S   UNL     1       2.821   0.927   0.005  0.00  0.00    +0.072 S 
ATOM     25  O   UNL     1       3.853   1.771   0.496  0.00  0.00    -0.150 OA
ATOM     26  O   UNL     1       2.558  -0.355   0.557  0.00  0.00    -0.150 OA
BRANCH  24  27
ATOM     27  N   UNL     1       3.124   0.697  -1.607  0.00  0.00    -0.213 N 
ATOM     28  H   UNL     1       3.177  -0.203  -1.966  0.00  0.00    +0.174 HD
BRANCH  27  34
ATOM     29  C   UNL     1       2.844   1.755  -3.765  0.00  0.00    +0.142 A 
ATOM     30  C   UNL     1       3.019   2.851  -4.593  0.00  0.00    +0.047 A 
ATOM     31  C   UNL     1       3.659   3.982  -4.118  0.00  0.00    +0.004 A 
ATOM     32  C   UNL     1       4.120   4.024  -2.816  0.00  0.00    +0.002 A 
ATOM     33  C   UNL     1       3.943   2.937  -1.981  0.00  0.00    +0.028 A 
ATOM     34  C   UNL     1       3.303   1.799  -2.450  0.00  0.00    +0.090 A 
BRANCH  29  36
ATOM     35  C   UNL     1       1.776   0.666  -5.590  0.00  0.00    +0.277 C 
ATOM     36  O   UNL     1       2.220   0.640  -4.232  0.00  0.00    -0.493 OA
ENDBRANCH  29  36
ENDBRANCH  27  34
ENDBRANCH  24  27
ENDBRANCH   1  24
TORSDOF 6
