REMARK  Name = ZINC00796467
REMARK  8 active torsions:
REMARK  status: ('A' for Active; 'I' for Inactive)
REMARK    1  A    between atoms: C_1  and  C_2
REMARK    2  A    between atoms: C_7  and  C_8
REMARK    3  A    between atoms: C_12  and  C_15
REMARK    4  A    between atoms: C_19  and  O_22
REMARK    5  A    between atoms: C_20  and  O_21
REMARK    6  A    between atoms: O_22  and  C_23
REMARK    7  A    between atoms: C_27  and  C_29
REMARK    8  A    between atoms: C_27  and  C_30
REMARK                            x       y       z     vdW  Elec       q    Type
REMARK                         _______ _______ _______ _____ _____    ______ ____
ROOT
ATOM      1  C   UNL     1       1.591   1.544   2.677  0.00  0.00    +0.044 C 
ATOM      2  C   UNL     1       0.103   1.775   2.602  0.00  0.00    -0.046 A 
ATOM      3  C   UNL     1      -0.573   2.269   3.704  0.00  0.00    +0.028 A 
ATOM      4  C   UNL     1      -1.940   2.478   3.626  0.00  0.00    +0.050 A 
ATOM      5  C   UNL     1      -2.627   2.163   2.463  0.00  0.00    +0.053 A 
ATOM      6  C   UNL     1      -1.946   1.690   1.355  0.00  0.00    +0.028 A 
ATOM      7  C   UNL     1      -0.578   1.493   1.432  0.00  0.00    -0.046 A 
ATOM      8  C   UNL     1       0.174   0.973   0.234  0.00  0.00    +0.044 C 
ATOM      9  N   UNL     1      -4.010   2.300   2.481  0.00  0.00    -0.316 N 
ATOM     10  C   UNL     1      -4.669   3.478   2.611  0.00  0.00    +0.017 C 
ATOM     11  C   UNL     1      -4.376   4.423   3.521  0.00  0.00    +0.037 C 
ATOM     12  C   UNL     1      -3.267   4.357   4.543  0.00  0.00    +0.140 C 
ATOM     13  N   UNL     1      -2.652   3.053   4.678  0.00  0.00    -0.331 N 
ATOM     14  C   UNL     1      -5.146   5.609   3.588  0.00  0.00    +0.163 C 
ATOM     15  O   UNL     1      -4.848   6.454   4.409  0.00  0.00    -0.292 OA
ATOM     16  C   UNL     1      -6.316   5.860   2.686  0.00  0.00    +0.086 C 
ATOM     17  C   UNL     1      -6.913   4.511   2.269  0.00  0.00    -0.023 C 
ATOM     18  C   UNL     1      -5.800   3.691   1.619  0.00  0.00    +0.058 C 
ATOM     19  C   UNL     1      -7.446   3.776   3.501  0.00  0.00    +0.011 C 
ATOM     20  C   UNL     1      -8.048   4.733   1.267  0.00  0.00    +0.011 C 
ATOM     21  H   UNL     1      -4.543   1.494   2.394  0.00  0.00    +0.152 HD
ATOM     22  H   UNL     1      -2.737   2.571   5.515  0.00  0.00    +0.147 HD
ENDROOT
BRANCH  12  23
ATOM     23  C   UNL     1      -2.199   5.346   4.153  0.00  0.00    +0.022 A 
ATOM     24  C   UNL     1      -2.164   5.855   2.868  0.00  0.00    +0.009 A 
ATOM     25  C   UNL     1      -1.186   6.763   2.508  0.00  0.00    +0.004 A 
ATOM     26  C   UNL     1      -0.239   7.167   3.431  0.00  0.00    +0.049 A 
ATOM     27  C   UNL     1      -0.269   6.661   4.720  0.00  0.00    +0.162 A 
ATOM     28  C   UNL     1      -1.257   5.751   5.085  0.00  0.00    +0.164 A 
BRANCH  28  29
ATOM     29  O   UNL     1      -1.293   5.255   6.351  0.00  0.00    -0.503 OA
ATOM     30  H   UNL     1      -0.776   4.447   6.471  0.00  0.00    +0.292 HD
ENDBRANCH  28  29
BRANCH  27  31
ATOM     31  O   UNL     1       0.661   7.058   5.630  0.00  0.00    -0.491 OA
ATOM     32  C   UNL     1       1.641   7.999   5.187  0.00  0.00    +0.277 C 
ENDBRANCH  27  31
ENDBRANCH  12  23
TORSDOF 3
