REMARK  Name = ZINC03434054
REMARK  13 active torsions:
REMARK  status: ('A' for Active; 'I' for Inactive)
REMARK    1  A    between atoms: C_1  and  C_2
REMARK    2  A    between atoms: C_2  and  C_3
REMARK    3  A    between atoms: C_3  and  C_4
REMARK    4  A    between atoms: C_4  and  N_5
REMARK    5  A    between atoms: C_9  and  S_32
REMARK    6  A    between atoms: C_13  and  S_14
REMARK    7  A    between atoms: S_14  and  C_15
REMARK    8  A    between atoms: C_15  and  C_16
REMARK    9  A    between atoms: C_16  and  C_18
REMARK   10  A    between atoms: C_20  and  C_31
REMARK   11  A    between atoms: N_21  and  C_24
REMARK   12  A    between atoms: C_22  and  C_23
REMARK   13  A    between atoms: S_32  and  N_35
REMARK                            x       y       z     vdW  Elec       q    Type
REMARK                         _______ _______ _______ _____ _____    ______ ____
ROOT
ATOM      1  N   UNL     1      -1.500   5.322  -4.682  0.00  0.00    -0.319 N 
ATOM      2  C   UNL     1      -1.598   4.319  -3.732  0.00  0.00    +0.070 A 
ATOM      3  C   UNL     1      -2.085   3.021  -3.751  0.00  0.00    +0.030 A 
ATOM      4  C   UNL     1      -2.039   2.253  -2.605  0.00  0.00    +0.030 A 
ATOM      5  C   UNL     1      -1.507   2.771  -1.433  0.00  0.00    +0.107 A 
ATOM      6  C   UNL     1      -1.024   4.060  -1.395  0.00  0.00    +0.058 A 
ATOM      7  C   UNL     1      -1.058   4.849  -2.547  0.00  0.00    +0.092 A 
ATOM      8  N   UNL     1      -0.665   6.120  -2.820  0.00  0.00    -0.222 NA
ATOM      9  C   UNL     1      -0.923   6.401  -4.074  0.00  0.00    +0.170 A 
ENDROOT
BRANCH   5  10
ATOM     10  S   UNL     1      -1.456   1.774   0.019  0.00  0.00    +0.056 S 
ATOM     11  O   UNL     1      -2.472   0.792  -0.128  0.00  0.00    -0.153 OA
ATOM     12  O   UNL     1      -1.413   2.667   1.123  0.00  0.00    -0.153 OA
BRANCH  10  13
ATOM     13  N   UNL     1      -0.011   0.966   0.007  0.00  0.00    -0.204 NA
ATOM     14  H   UNL     1       0.002  -0.004   0.002  0.00  0.00    +0.144 HD
ATOM     15  H   UNL     1       0.822   1.462   0.002  0.00  0.00    +0.144 HD
ENDBRANCH  10  13
ENDBRANCH   5  10
BRANCH   1  16
ATOM     16  C   UNL     1      -1.934   5.242  -6.079  0.00  0.00    +0.124 C 
BRANCH  16  17
ATOM     17  C   UNL     1      -3.390   5.699  -6.187  0.00  0.00    +0.021 C 
BRANCH  17  19
ATOM     18  C   UNL     1      -5.300   6.072  -7.755  0.00  0.00    +0.004 C 
ATOM     19  C   UNL     1      -3.844   5.614  -7.646  0.00  0.00    -0.002 C 
ENDBRANCH  17  19
ENDBRANCH  16  17
ENDBRANCH   1  16
BRANCH   9  20
ATOM     20  S   UNL     1      -0.577   7.941  -4.858  0.00  0.00    -0.080 S 
BRANCH  20  21
ATOM     21  C   UNL     1       0.159   8.842  -3.471  0.00  0.00    +0.157 C 
BRANCH  21  22
ATOM     22  C   UNL     1       0.544  10.228  -3.921  0.00  0.00    +0.175 C 
ATOM     23  O   UNL     1       0.342  10.572  -5.066  0.00  0.00    -0.291 OA
BRANCH  22  24
ATOM     24  C   UNL     1       1.164  11.158  -2.975  0.00  0.00    +0.039 A 
ATOM     25  C   UNL     1       1.478  10.905  -1.562  0.00  0.00    +0.034 A 
ATOM     26  C   UNL     1       2.035  12.033  -1.090  0.00  0.00    +0.022 A 
ATOM     27  N   UNL     1       2.090  12.960  -2.093  0.00  0.00    -0.314 N 
ATOM     28  C   UNL     1       1.578  12.452  -3.230  0.00  0.00    +0.032 A 
ATOM     29  C   UNL     1       1.472  13.171  -4.550  0.00  0.00    +0.064 C 
ATOM     30  C   UNL     1       2.521  12.243   0.321  0.00  0.00    +0.064 C 
BRANCH  27  31
ATOM     31  C   UNL     1       2.611  14.255  -1.958  0.00  0.00    +0.082 A 
ATOM     32  C   UNL     1       3.956  14.493  -2.206  0.00  0.00    +0.029 A 
ATOM     33  C   UNL     1       4.467  15.770  -2.072  0.00  0.00    +0.002 A 
ATOM     34  C   UNL     1       3.640  16.811  -1.692  0.00  0.00    +0.003 A 
ATOM     35  C   UNL     1       2.300  16.580  -1.444  0.00  0.00    +0.040 A 
ATOM     36  C   UNL     1       1.781  15.305  -1.581  0.00  0.00    +0.147 A 
ATOM     37  F   UNL     1       0.470  15.079  -1.344  0.00  0.00    -0.203 F 
ENDBRANCH  27  31
ENDBRANCH  22  24
ENDBRANCH  21  22
ENDBRANCH  20  21
ENDBRANCH   9  20
TORSDOF 10
