REMARK  Name = ZINC15225808
REMARK  11 active torsions:
REMARK  status: ('A' for Active; 'I' for Inactive)
REMARK    1  A    between atoms: C_1  and  C_2
REMARK    2  A    between atoms: C_2  and  C_3
REMARK    3  A    between atoms: C_3  and  C_4
REMARK    4  A    between atoms: C_4  and  N_5
REMARK    5  A    between atoms: C_15  and  S_16
REMARK    6  A    between atoms: S_16  and  C_17
REMARK    7  A    between atoms: C_17  and  C_18
REMARK    8  A    between atoms: C_18  and  C_20
REMARK    9  A    between atoms: C_20  and  C_30
REMARK   10  A    between atoms: C_30  and  O_32
REMARK   11  A    between atoms: O_32  and  C_33
REMARK                            x       y       z     vdW  Elec       q    Type
REMARK                         _______ _______ _______ _____ _____    ______ ____
ROOT
ATOM      1  C   UNL     1      -5.219  -2.005   0.045  0.00  0.00    +0.183 C 
ATOM      2  O   UNL     1      -5.435  -3.201   0.041  0.00  0.00    -0.291 OA
ENDROOT
BRANCH   1   3
ATOM      3  C   UNL     1      -6.293  -1.097   0.060  0.00  0.00    +0.138 C 
ATOM      4  C   UNL     1      -7.618  -1.573   0.071  0.00  0.00    +0.110 C 
ATOM      5  N   UNL     1      -7.983  -2.880   0.062  0.00  0.00    -0.301 N 
ATOM      6  C   UNL     1      -9.371  -2.946   0.081  0.00  0.00    +0.054 A 
ATOM      7  C   UNL     1     -10.271  -4.003   0.083  0.00  0.00    +0.025 A 
ATOM      8  C   UNL     1     -11.627  -3.751   0.097  0.00  0.00    +0.002 A 
ATOM      9  C   UNL     1     -12.096  -2.448   0.110  0.00  0.00    +0.002 A 
ATOM     10  C   UNL     1     -11.210  -1.389   0.107  0.00  0.00    +0.025 A 
ATOM     11  C   UNL     1      -9.844  -1.631   0.093  0.00  0.00    +0.054 A 
ATOM     12  N   UNL     1      -8.731  -0.798   0.086  0.00  0.00    -0.301 N 
ATOM     13  H   UNL     1      -7.378  -3.639   0.048  0.00  0.00    +0.153 HD
ATOM     14  H   UNL     1      -8.748   0.172   0.092  0.00  0.00    +0.153 HD
BRANCH   3  15
ATOM     15  C   UNL     1      -6.033   0.341   0.065  0.00  0.00    +0.345 C 
ATOM     16  O   UNL     1      -6.962   1.127   0.078  0.00  0.00    -0.245 OA
BRANCH  15  17
ATOM     17  O   UNL     1      -4.764   0.798   0.054  0.00  0.00    -0.464 OA
ATOM     18  C   UNL     1      -4.584   2.216   0.060  0.00  0.00    +0.280 C 
ENDBRANCH  15  17
ENDBRANCH   3  15
ENDBRANCH   1   3
BRANCH   1  19
ATOM     19  C   UNL     1      -3.801  -1.496   0.033  0.00  0.00    +0.157 C 
BRANCH  19  20
ATOM     20  S   UNL     1      -2.656  -2.897   0.014  0.00  0.00    -0.080 S 
BRANCH  20  31
ATOM     21  N   UNL     1       0.036  -2.766  -0.012  0.00  0.00    -0.287 N 
ATOM     22  C   UNL     1       1.239  -2.146  -0.021  0.00  0.00    +0.262 A 
ATOM     23  O   UNL     1       2.277  -2.782  -0.034  0.00  0.00    -0.267 OA
ATOM     24  C   UNL     1       1.245  -0.677  -0.013  0.00  0.00    +0.065 A 
ATOM     25  C   UNL     1       2.432   0.055  -0.021  0.00  0.00    +0.015 A 
ATOM     26  C   UNL     1       2.381   1.422  -0.013  0.00  0.00    +0.001 A 
ATOM     27  C   UNL     1       1.161   2.086   0.002  0.00  0.00    +0.002 A 
ATOM     28  C   UNL     1      -0.017   1.394   0.010  0.00  0.00    +0.028 A 
ATOM     29  C   UNL     1       0.002  -0.004   0.002  0.00  0.00    +0.079 A 
ATOM     30  N   UNL     1      -1.136  -0.726   0.009  0.00  0.00    -0.223 NA
ATOM     31  C   UNL     1      -1.119  -2.036   0.003  0.00  0.00    +0.173 A 
BRANCH  21  32
ATOM     32  C   UNL     1      -0.028  -4.229  -0.019  0.00  0.00    +0.127 C 
BRANCH  32  33
ATOM     33  C   UNL     1      -0.037  -4.746   1.421  0.00  0.00    +0.021 C 
BRANCH  33  35
ATOM     34  C   UNL     1      -0.112  -6.791   2.854  0.00  0.00    +0.004 C 
ATOM     35  C   UNL     1      -0.104  -6.275   1.414  0.00  0.00    -0.002 C 
ENDBRANCH  33  35
ENDBRANCH  32  33
ENDBRANCH  21  32
ENDBRANCH  20  31
ENDBRANCH  19  20
ENDBRANCH   1  19
TORSDOF 9
