REMARK  Name = ZINC06753266
REMARK  6 active torsions:
REMARK  status: ('A' for Active; 'I' for Inactive)
REMARK    1  A    between atoms: C_1  and  C_2
REMARK    2  A    between atoms: C_5  and  O_33
REMARK    3  A    between atoms: C_6  and  C_8
REMARK    4  A    between atoms: N_16  and  C_26
REMARK    5  A    between atoms: C_17  and  C_19
REMARK    6  A    between atoms: C_26  and  C_27
REMARK                            x       y       z     vdW  Elec       q    Type
REMARK                         _______ _______ _______ _____ _____    ______ ____
ROOT
ATOM      1  C   UNL     1       0.000  -1.582   2.973  0.00  0.00    +0.075 A 
ATOM      2  C   UNL     1       0.852  -2.611   3.217  0.00  0.00    +0.035 A 
ATOM      3  C   UNL     1       0.238  -3.395   4.220  0.00  0.00    +0.153 A 
ATOM      4  N   UNL     1      -0.907  -2.813   4.514  0.00  0.00    -0.168 NA
ATOM      5  N   UNL     1      -1.068  -1.752   3.807  0.00  0.00    -0.276 N 
ATOM      6  H   UNL     1      -1.836  -1.161   3.856  0.00  0.00    +0.189 HD
ATOM      7  C   UNL     1       1.131  -4.529   4.518  0.00  0.00    +0.268 C 
ATOM      8  O   UNL     1       0.900  -5.397   5.338  0.00  0.00    -0.268 OA
ATOM      9  N   UNL     1       2.236  -4.470   3.756  0.00  0.00    -0.281 N 
ATOM     10  C   UNL     1       2.157  -3.286   2.891  0.00  0.00    +0.144 C 
ENDROOT
BRANCH   1  16
ATOM     11  C   UNL     1       0.883   3.235   2.015  0.00  0.00    +0.044 C 
ATOM     12  C   UNL     1       0.620   1.832   1.532  0.00  0.00    -0.050 A 
ATOM     13  C   UNL     1       0.560   1.570   0.175  0.00  0.00    +0.007 A 
ATOM     14  C   UNL     1       0.319   0.287  -0.279  0.00  0.00    +0.046 A 
ATOM     15  C   UNL     1       0.136  -0.746   0.626  0.00  0.00    +0.126 A 
ATOM     16  C   UNL     1       0.195  -0.485   1.999  0.00  0.00    +0.042 A 
ATOM     17  C   UNL     1       0.445   0.812   2.445  0.00  0.00    +0.017 A 
BRANCH  15  18
ATOM     18  O   UNL     1      -0.102  -2.008   0.181  0.00  0.00    -0.506 OA
ATOM     19  H   UNL     1       0.699  -2.508  -0.029  0.00  0.00    +0.292 HD
ENDBRANCH  15  18
ENDBRANCH   1  16
BRANCH  10  20
ATOM     20  C   UNL     1       2.178  -3.700   1.443  0.00  0.00    +0.013 A 
ATOM     21  C   UNL     1       1.476  -4.818   1.033  0.00  0.00    +0.008 A 
ATOM     22  C   UNL     1       1.495  -5.198  -0.296  0.00  0.00    +0.001 A 
ATOM     23  C   UNL     1       2.217  -4.461  -1.217  0.00  0.00    +0.003 A 
ATOM     24  C   UNL     1       2.919  -3.343  -0.809  0.00  0.00    +0.039 A 
ATOM     25  C   UNL     1       2.896  -2.958   0.521  0.00  0.00    +0.129 A 
ATOM     26  F   UNL     1       3.578  -1.862   0.919  0.00  0.00    -0.205 F 
ENDBRANCH  10  20
BRANCH   9  27
ATOM     27  C   UNL     1       3.342  -5.431   3.783  0.00  0.00    +0.145 C 
BRANCH  27  28
ATOM     28  C   UNL     1       3.004  -6.609   2.906  0.00  0.00    -0.012 A 
ATOM     29  C   UNL     1       2.213  -7.640   3.390  0.00  0.00    +0.008 A 
ATOM     30  C   UNL     1       1.928  -8.704   2.548  0.00  0.00    +0.020 A 
ATOM     31  C   UNL     1       2.440  -8.702   1.264  0.00  0.00    +0.111 A 
ATOM     32  N   UNL     1       3.190  -7.705   0.838  0.00  0.00    -0.263 NA
ATOM     33  C   UNL     1       3.475  -6.674   1.609  0.00  0.00    +0.115 A 
ENDBRANCH  27  28
ENDBRANCH   9  27
TORSDOF 5
