REMARK  Name = ZINC13937395
REMARK  7 active torsions:
REMARK  status: ('A' for Active; 'I' for Inactive)
REMARK    1  A    between atoms: C_3  and  S_20
REMARK    2  A    between atoms: C_6  and  N_7
REMARK    3  A    between atoms: N_7  and  C_8
REMARK    4  A    between atoms: C_8  and  N_10
REMARK    5  A    between atoms: N_10  and  C_11
REMARK    6  A    between atoms: S_20  and  N_23
REMARK    7  A    between atoms: N_23  and  C_24
REMARK                            x       y       z     vdW  Elec       q    Type
REMARK                         _______ _______ _______ _____ _____    ______ ____
ROOT
ATOM      1  C   UNL     1      -1.288  -3.621   0.385  0.00  0.00    +0.025 A 
ATOM      2  C   UNL     1      -1.584  -4.959   0.213  0.00  0.00    +0.030 A 
ATOM      3  C   UNL     1      -2.901  -5.369   0.109  0.00  0.00    +0.109 A 
ATOM      4  C   UNL     1      -3.925  -4.443   0.182  0.00  0.00    +0.030 A 
ATOM      5  C   UNL     1      -3.635  -3.104   0.359  0.00  0.00    +0.025 A 
ATOM      6  C   UNL     1      -2.314  -2.689   0.464  0.00  0.00    +0.033 A 
ENDROOT
BRANCH   3   7
ATOM      7  S   UNL     1      -3.274  -7.076  -0.117  0.00  0.00    +0.072 S 
ATOM      8  O   UNL     1      -2.217  -7.807   0.488  0.00  0.00    -0.150 OA
ATOM      9  O   UNL     1      -4.633  -7.248   0.260  0.00  0.00    -0.150 OA
BRANCH   7  10
ATOM     10  N   UNL     1      -3.192  -7.384  -1.743  0.00  0.00    -0.216 N 
ATOM     11  H   UNL     1      -3.974  -7.710  -2.215  0.00  0.00    +0.174 HD
BRANCH  10  12
ATOM     12  C   UNL     1      -1.997  -7.174  -2.434  0.00  0.00    +0.051 A 
ATOM     13  C   UNL     1      -1.875  -6.096  -3.301  0.00  0.00    +0.044 A 
ATOM     14  C   UNL     1      -0.689  -5.888  -3.980  0.00  0.00    +0.044 A 
ATOM     15  C   UNL     1       0.373  -6.758  -3.804  0.00  0.00    +0.040 A 
ATOM     16  C   UNL     1       0.252  -7.836  -2.944  0.00  0.00    +0.044 A 
ATOM     17  C   UNL     1      -0.930  -8.046  -2.259  0.00  0.00    +0.044 A 
ATOM     18 CL   UNL     1       1.587  -8.925  -2.726  0.00  0.00    -0.083 Cl
ATOM     19 CL   UNL     1      -0.533  -4.537  -5.059  0.00  0.00    -0.083 Cl
ENDBRANCH  10  12
ENDBRANCH   7  10
ENDBRANCH   3   7
BRANCH   6  20
ATOM     20  N   UNL     1      -2.018  -1.333   0.643  0.00  0.00    -0.297 N 
ATOM     21  H   UNL     1      -2.471  -0.663   0.108  0.00  0.00    +0.154 HD
BRANCH  20  22
ATOM     22  C   UNL     1      -1.102  -0.959   1.558  0.00  0.00    +0.139 C 
ATOM     23  S   UNL     1      -0.223  -2.146   2.425  0.00  0.00    -0.018 S 
BRANCH  22  24
ATOM     24  N   UNL     1      -0.877   0.349   1.790  0.00  0.00    -0.297 N 
ATOM     25  H   UNL     1      -1.417   1.021   1.344  0.00  0.00    +0.154 HD
BRANCH  24  26
ATOM     26  C   UNL     1       0.135   0.740   2.676  0.00  0.00    +0.036 A 
ATOM     27  C   UNL     1       0.271   0.099   3.901  0.00  0.00    +0.027 A 
ATOM     28  C   UNL     1       1.273   0.479   4.773  0.00  0.00    +0.051 A 
ATOM     29  C   UNL     1       2.141   1.504   4.431  0.00  0.00    +0.166 A 
ATOM     30  C   UNL     1       2.004   2.151   3.206  0.00  0.00    +0.168 A 
ATOM     31  C   UNL     1       1.000   1.770   2.332  0.00  0.00    +0.072 A 
ATOM     32  O   UNL     1       2.969   3.112   3.110  0.00  0.00    -0.453 OA
ATOM     33  C   UNL     1       3.950   2.772   4.107  0.00  0.00    +0.466 C 
ATOM     34  O   UNL     1       3.193   2.059   5.103  0.00  0.00    -0.453 OA
ENDBRANCH  24  26
ENDBRANCH  22  24
ENDBRANCH  20  22
ENDBRANCH   6  20
TORSDOF 7
