REMARK  Name = ZINC63588648
REMARK  11 active torsions:
REMARK  status: ('A' for Active; 'I' for Inactive)
REMARK    1  A    between atoms: C_1  and  C_2
REMARK    2  A    between atoms: C_7  and  C_8
REMARK    3  A    between atoms: C_8  and  N_10
REMARK    4  A    between atoms: N_12  and  C_13
REMARK    5  A    between atoms: C_16  and  O_21
REMARK    6  A    between atoms: C_17  and  O_19
REMARK    7  A    between atoms: O_19  and  C_20
REMARK    8  A    between atoms: O_21  and  C_22
REMARK    9  A    between atoms: N_23  and  C_24
REMARK   10  A    between atoms: C_24  and  C_25
REMARK   11  A    between atoms: C_25  and  C_26
REMARK                            x       y       z     vdW  Elec       q    Type
REMARK                         _______ _______ _______ _____ _____    ______ ____
ROOT
ATOM      1  N   UNL     1       0.574  -0.672   3.798  0.00  0.00    -0.143 NA
ATOM      2  C   UNL     1       0.157   0.101   4.790  0.00  0.00    +0.194 C 
ATOM      3  N   UNL     1       0.391   1.444   4.753  0.00  0.00    -0.328 N 
ATOM      4  N   UNL     1      -0.507  -0.447   5.848  0.00  0.00    -0.357 N 
ATOM      5  H   UNL     1       0.538   1.888   3.903  0.00  0.00    +0.169 HD
ATOM      6  H   UNL     1      -0.837   0.122   6.561  0.00  0.00    +0.162 HD
ENDROOT
BRANCH   3   7
ATOM      7  C   UNL     1       0.419   2.183   5.942  0.00  0.00    +0.045 A 
ATOM      8  C   UNL     1       0.768   1.565   7.135  0.00  0.00    +0.029 A 
ATOM      9  C   UNL     1       0.796   2.293   8.310  0.00  0.00    +0.051 A 
ATOM     10  C   UNL     1       0.477   3.641   8.299  0.00  0.00    +0.162 A 
ATOM     11  C   UNL     1       0.126   4.264   7.104  0.00  0.00    +0.163 A 
ATOM     12  C   UNL     1       0.103   3.535   5.927  0.00  0.00    +0.075 A 
BRANCH  11  13
ATOM     13  O   UNL     1      -0.187   5.587   7.093  0.00  0.00    -0.491 OA
ATOM     14  C   UNL     1      -0.537   6.160   5.831  0.00  0.00    +0.277 C 
ENDBRANCH  11  13
BRANCH  10  15
ATOM     15  O   UNL     1       0.505   4.357   9.456  0.00  0.00    -0.491 OA
ATOM     16  C   UNL     1       0.979   3.683  10.624  0.00  0.00    +0.277 C 
ENDBRANCH  10  15
ENDBRANCH   3   7
BRANCH   1  17
ATOM     17  C   UNL     1       1.383  -0.173   2.855  0.00  0.00    +0.270 C 
ATOM     18  O   UNL     1       1.796   0.970   2.949  0.00  0.00    -0.268 OA
BRANCH  17  25
ATOM     19  C   UNL     1       3.135   0.920   0.827  0.00  0.00    +0.044 C 
ATOM     20  C   UNL     1       2.621  -0.492   0.715  0.00  0.00    -0.038 A 
ATOM     21  C   UNL     1       2.988  -1.279  -0.358  0.00  0.00    +0.004 A 
ATOM     22  C   UNL     1       2.517  -2.575  -0.462  0.00  0.00    +0.000 A 
ATOM     23  C   UNL     1       1.675  -3.092   0.507  0.00  0.00    +0.001 A 
ATOM     24  C   UNL     1       1.301  -2.316   1.584  0.00  0.00    +0.013 A 
ATOM     25  C   UNL     1       1.777  -1.009   1.698  0.00  0.00    +0.042 A 
ENDBRANCH  17  25
ENDBRANCH   1  17
BRANCH   4  26
ATOM     26  C   UNL     1      -0.723  -1.895   5.908  0.00  0.00    +0.120 C 
BRANCH  26  27
ATOM     27  C   UNL     1      -1.486  -2.245   7.187  0.00  0.00    +0.054 C 
BRANCH  27  28
ATOM     28  C   UNL     1      -1.708  -3.734   7.248  0.00  0.00    -0.040 C 
ATOM     29  C   UNL     1      -0.943  -4.644   7.893  0.00  0.00    -0.001 A 
ATOM     30  C   UNL     1       0.279  -4.525   8.697  0.00  0.00    +0.010 A 
ATOM     31  C   UNL     1       0.828  -5.643   9.225  0.00  0.00    +0.001 A 
ATOM     32  C   UNL     1       0.262  -6.909   9.023  0.00  0.00    +0.002 A 
ATOM     33  C   UNL     1      -0.859  -7.098   8.295  0.00  0.00    +0.026 A 
ATOM     34  C   UNL     1      -1.521  -5.992   7.694  0.00  0.00    +0.043 A 
ATOM     35  N   UNL     1      -2.602  -5.918   6.956  0.00  0.00    -0.380 N 
ATOM     36  C   UNL     1      -2.835  -4.513   6.607  0.00  0.00    +0.144 C 
ATOM     37  H   UNL     1      -3.157  -6.668   6.688  0.00  0.00    +0.160 HD
ENDBRANCH  27  28
ENDBRANCH  26  27
ENDBRANCH   4  26
TORSDOF 8
