REMARK  Name = ZINC14995435
REMARK  12 active torsions:
REMARK  status: ('A' for Active; 'I' for Inactive)
REMARK    1  A    between atoms: C_1  and  C_2
REMARK    2  A    between atoms: C_2  and  C_4
REMARK    3  A    between atoms: C_2  and  O_18
REMARK    4  A    between atoms: C_4  and  N_5
REMARK    5  A    between atoms: N_5  and  S_6
REMARK    6  A    between atoms: S_6  and  C_9
REMARK    7  A    between atoms: O_18  and  C_19
REMARK    8  A    between atoms: C_23  and  C_25
REMARK    9  A    between atoms: C_25  and  N_56
REMARK   10  A    between atoms: C_26  and  N_56
REMARK   11  A    between atoms: C_27  and  C_28
REMARK   12  A    between atoms: C_27  and  N_56
REMARK                            x       y       z     vdW  Elec       q    Type
REMARK                         _______ _______ _______ _____ _____    ______ ____
ROOT
ATOM      1  C   UNL     1       1.588   5.982   1.609  0.00  0.00    +0.053 C 
ATOM      2  C   UNL     1       1.192   5.866   0.135  0.00  0.00    +0.186 C 
ENDROOT
BRANCH   2   3
ATOM      3  C   UNL     1       1.082   7.265  -0.475  0.00  0.00    +0.150 C 
BRANCH   3   4
ATOM      4  N   UNL     1       0.703   7.154  -1.885  0.00  0.00    -0.186 NA
ATOM      5  H   UNL     1       0.775   6.301  -2.341  0.00  0.00    +0.148 HD
BRANCH   4   6
ATOM      6  S   UNL     1       0.151   8.485  -2.701  0.00  0.00    +0.061 S 
ATOM      7  O   UNL     1      -0.104   8.067  -4.035  0.00  0.00    -0.153 OA
ATOM      8  O   UNL     1      -0.850   9.077  -1.884  0.00  0.00    -0.153 OA
BRANCH   6   9
ATOM      9  C   UNL     1       1.482   9.636  -2.781  0.00  0.00    +0.133 A 
ATOM     10  C   UNL     1       2.023   9.965  -3.978  0.00  0.00    +0.031 A 
ATOM     11  C   UNL     1       3.077  10.873  -4.079  0.00  0.00    +0.004 A 
ATOM     12  C   UNL     1       3.608  11.466  -2.983  0.00  0.00    +0.031 A 
ATOM     13  C   UNL     1       3.091  11.170  -1.695  0.00  0.00    +0.102 A 
ATOM     14  C   UNL     1       1.984  10.224  -1.590  0.00  0.00    +0.126 A 
ATOM     15  N   UNL     1       1.596  10.046  -0.329  0.00  0.00    -0.189 NA
ATOM     16  S   UNL     1       2.518  10.961   0.547  0.00  0.00    +0.117 S 
ATOM     17  N   UNL     1       3.464  11.637  -0.505  0.00  0.00    -0.191 NA
ENDBRANCH   6   9
ENDBRANCH   4   6
ENDBRANCH   3   4
ENDBRANCH   2   3
BRANCH   2  18
ATOM     18  O   UNL     1      -0.069   5.201   0.032  0.00  0.00    -0.488 OA
BRANCH  18  19
ATOM     19  C   UNL     1      -0.050   3.842   0.025  0.00  0.00    +0.121 A 
ATOM     20  C   UNL     1       1.142   3.162   0.230  0.00  0.00    +0.045 A 
ATOM     21  C   UNL     1       1.158   1.781   0.223  0.00  0.00    +0.004 A 
ATOM     22  C   UNL     1      -0.013   1.076   0.013  0.00  0.00    +0.002 A 
ATOM     23  C   UNL     1      -1.201   1.751  -0.197  0.00  0.00    -0.060 A 
ATOM     24  C   UNL     1      -1.223   3.132  -0.186  0.00  0.00    +0.047 A 
BRANCH  23  25
ATOM     25  C   UNL     1      -2.474   0.980  -0.431  0.00  0.00    -0.043 C 
BRANCH  25  27
ATOM     26  C   UNL     1      -3.592   1.971   1.474  0.00  0.00    -0.095 C 
ATOM     27  N   UNL     1      -3.115   0.708   0.873  0.00  0.00    +0.383 N 
ATOM     28  H   UNL     1      -2.424   0.280   1.501  0.00  0.00    -0.081 HD
BRANCH  27  29
ATOM     29  C   UNL     1      -4.246  -0.227   0.695  0.00  0.00    -0.042 C 
BRANCH  29  30
ATOM     30  C   UNL     1      -4.738  -0.658   2.053  0.00  0.00    -0.057 A 
ATOM     31  C   UNL     1      -4.198  -1.768   2.675  0.00  0.00    +0.009 A 
ATOM     32  C   UNL     1      -4.659  -2.125   3.899  0.00  0.00    +0.045 A 
ATOM     33  S   UNL     1      -5.905  -0.882   4.201  0.00  0.00    -0.105 S 
ATOM     34  C   UNL     1      -5.721   0.034   2.680  0.00  0.00    +0.047 A 
ENDBRANCH  29  30
ENDBRANCH  27  29
ENDBRANCH  25  27
ENDBRANCH  23  25
ENDBRANCH  18  19
ENDBRANCH   2  18
TORSDOF 10
