REMARK  Name = ZINC03401005
REMARK  8 active torsions:
REMARK  status: ('A' for Active; 'I' for Inactive)
REMARK    1  A    between atoms: C_1  and  C_2
REMARK    2  A    between atoms: C_5  and  C_16
REMARK    3  A    between atoms: C_7  and  N_8
REMARK    4  A    between atoms: C_9  and  C_11
REMARK    5  A    between atoms: N_18  and  C_19
REMARK    6  A    between atoms: C_19  and  C_20
REMARK    7  A    between atoms: C_20  and  N_21
REMARK    8  A    between atoms: C_25  and  C_26
REMARK                            x       y       z     vdW  Elec       q    Type
REMARK                         _______ _______ _______ _____ _____    ______ ____
ROOT
ATOM      1  C   UNL     1       0.291  -3.424  -1.417  0.00  0.00    +0.244 C 
ATOM      2  O   UNL     1       0.051  -3.825  -0.295  0.00  0.00    -0.270 OA
ATOM      3  N   UNL     1       0.169  -4.256  -2.470  0.00  0.00    -0.310 N 
ATOM      4  H   UNL     1       0.361  -3.936  -3.365  0.00  0.00    +0.149 HD
ENDROOT
BRANCH   1   9
ATOM      5  C   UNL     1       1.953   2.028  -2.246  0.00  0.00    +0.045 C 
ATOM      6  C   UNL     1       1.518   0.602  -2.027  0.00  0.00    -0.029 A 
ATOM      7  C   UNL     1       1.387  -0.252  -3.107  0.00  0.00    +0.006 A 
ATOM      8  C   UNL     1       0.995  -1.560  -2.913  0.00  0.00    +0.013 A 
ATOM      9  C   UNL     1       0.718  -2.023  -1.626  0.00  0.00    +0.038 A 
ATOM     10  C   UNL     1       0.845  -1.161  -0.537  0.00  0.00    +0.036 A 
ATOM     11  C   UNL     1       1.245   0.151  -0.741  0.00  0.00    +0.037 A 
BRANCH  11  12
ATOM     12  N   UNL     1       1.375   1.020   0.347  0.00  0.00    -0.279 N 
ATOM     13  C   UNL     1       1.740   0.540   1.552  0.00  0.00    +0.284 C 
ATOM     14  O   UNL     1       1.892  -0.657   1.710  0.00  0.00    -0.266 OA
ATOM     15  H   UNL     1       1.201   1.968   0.234  0.00  0.00    +0.155 HD
BRANCH  13  16
ATOM     16  C   UNL     1       1.953   1.461   2.674  0.00  0.00    +0.189 A 
ATOM     17  C   UNL     1       2.323   1.110   3.941  0.00  0.00    +0.054 A 
ATOM     18  C   UNL     1       2.409   2.300   4.679  0.00  0.00    +0.042 A 
ATOM     19  C   UNL     1       2.093   3.313   3.842  0.00  0.00    +0.196 A 
ATOM     20  O   UNL     1       1.824   2.803   2.633  0.00  0.00    -0.458 OA
ENDBRANCH  13  16
ENDBRANCH  11  12
ENDBRANCH   1   9
BRANCH   3  21
ATOM     21  C   UNL     1      -0.253  -5.643  -2.263  0.00  0.00    +0.124 C 
BRANCH  21  22
ATOM     22  C   UNL     1      -0.311  -6.365  -3.611  0.00  0.00    +0.136 C 
BRANCH  22  23
ATOM     23  N   UNL     1      -0.733  -7.753  -3.403  0.00  0.00    -0.227 N 
ATOM     24  C   UNL     1      -2.022  -8.047  -3.435  0.00  0.00    +0.260 C 
ATOM     25  O   UNL     1      -2.868  -7.195  -3.631  0.00  0.00    -0.269 OA
ATOM     26  C   UNL     1      -2.382  -9.464  -3.219  0.00  0.00    +0.080 C 
ATOM     27  C   UNL     1      -3.604 -10.052  -3.197  0.00  0.00    +0.028 C 
ATOM     28  S   UNL     1      -0.764 -10.190  -2.995  0.00  0.00    -0.026 S 
ATOM     29  C   UNL     1       0.202  -8.701  -3.191  0.00  0.00    +0.286 C 
ATOM     30  O   UNL     1       1.410  -8.573  -3.142  0.00  0.00    -0.262 OA
BRANCH  27  31
ATOM     31  C   UNL     1      -3.714 -11.516  -3.139  0.00  0.00    -0.024 A 
ATOM     32  C   UNL     1      -2.649 -12.318  -3.564  0.00  0.00    +0.011 A 
ATOM     33  C   UNL     1      -2.757 -13.690  -3.502  0.00  0.00    +0.039 A 
ATOM     34  C   UNL     1      -3.922 -14.277  -3.030  0.00  0.00    +0.123 A 
ATOM     35  C   UNL     1      -4.984 -13.488  -2.613  0.00  0.00    +0.039 A 
ATOM     36  C   UNL     1      -4.887 -12.114  -2.664  0.00  0.00    +0.011 A 
ATOM     37  F   UNL     1      -4.024 -15.623  -2.976  0.00  0.00    -0.205 F 
ENDBRANCH  27  31
ENDBRANCH  22  23
ENDBRANCH  21  22
ENDBRANCH   3  21
TORSDOF 7
