REMARK  Name = ZINC39946196
REMARK  12 active torsions:
REMARK  status: ('A' for Active; 'I' for Inactive)
REMARK    1  A    between atoms: C_1  and  C_2
REMARK    2  A    between atoms: C_4  and  C_12
REMARK    3  A    between atoms: C_12  and  C_14
REMARK    4  A    between atoms: C_14  and  O_15
REMARK    5  A    between atoms: O_15  and  C_16
REMARK    6  A    between atoms: C_16  and  C_18
REMARK    7  A    between atoms: C_18  and  C_20
REMARK    8  A    between atoms: C_18  and  N_24
REMARK    9  A    between atoms: C_20  and  C_21
REMARK   10  A    between atoms: C_21  and  C_22
REMARK   11  A    between atoms: C_21  and  C_23
REMARK   12  A    between atoms: C_25  and  C_27
REMARK                            x       y       z     vdW  Elec       q    Type
REMARK                         _______ _______ _______ _____ _____    ______ ____
ROOT
ATOM      1  C   UNL     1       1.427  -0.765  -6.345  0.00  0.00    +0.328 C 
ATOM      2  O   UNL     1       2.481  -1.343  -6.464  0.00  0.00    -0.249 OA
ENDROOT
BRANCH   1   3
ATOM      3  O   UNL     1       0.931  -0.520  -5.122  0.00  0.00    -0.455 OA
BRANCH   3   4
ATOM      4  C   UNL     1       1.702  -0.970  -4.006  0.00  0.00    +0.311 C 
BRANCH   4   5
ATOM      5  C   UNL     1       0.993  -0.609  -2.727  0.00  0.00    +0.199 C 
ATOM      6  O   UNL     1      -0.069  -0.023  -2.766  0.00  0.00    -0.289 OA
BRANCH   5   9
ATOM      7  C   UNL     1       0.853   0.836   0.104  0.00  0.00    +0.035 C 
ATOM      8  C   UNL     1       0.999  -0.672  -0.108  0.00  0.00    +0.111 C 
ATOM      9  C   UNL     1       1.564  -0.952  -1.483  0.00  0.00    +0.029 C 
ATOM     10  C   UNL     1       2.758  -1.616  -1.265  0.00  0.00    +0.007 A 
ATOM     11  C   UNL     1       3.742  -2.139  -2.137  0.00  0.00    +0.010 A 
ATOM     12  C   UNL     1       4.837  -2.755  -1.639  0.00  0.00    +0.001 A 
ATOM     13  C   UNL     1       5.054  -2.906  -0.260  0.00  0.00    +0.002 A 
ATOM     14  C   UNL     1       4.177  -2.443   0.657  0.00  0.00    +0.026 A 
ATOM     15  C   UNL     1       2.957  -1.759   0.199  0.00  0.00    +0.043 A 
ATOM     16  N   UNL     1       1.961  -1.226   0.850  0.00  0.00    -0.377 N 
ATOM     17  H   UNL     1       1.871  -1.199   1.815  0.00  0.00    +0.160 HD
ENDBRANCH   5   9
ENDBRANCH   4   5
ENDBRANCH   3   4
ENDBRANCH   1   3
BRANCH   1  18
ATOM     18  C   UNL     1       0.669  -0.320  -7.569  0.00  0.00    +0.182 C 
BRANCH  18  19
ATOM     19  N   UNL     1       1.414  -0.703  -8.771  0.00  0.00    -0.298 N 
ATOM     20  C   UNL     1       1.289   0.022  -9.900  0.00  0.00    +0.245 C 
ATOM     21  O   UNL     1       0.636   1.048  -9.895  0.00  0.00    -0.270 OA
ATOM     22  H   UNL     1       1.997  -1.478  -8.754  0.00  0.00    +0.150 HD
BRANCH  20  23
ATOM     23  C   UNL     1       1.947  -0.429 -11.144  0.00  0.00    +0.037 A 
ATOM     24  C   UNL     1       2.693  -1.609 -11.154  0.00  0.00    +0.014 A 
ATOM     25  C   UNL     1       3.304  -2.026 -12.318  0.00  0.00    +0.021 A 
ATOM     26  C   UNL     1       3.179  -1.276 -13.476  0.00  0.00    +0.041 A 
ATOM     27  C   UNL     1       2.440  -0.104 -13.472  0.00  0.00    +0.021 A 
ATOM     28  C   UNL     1       1.820   0.320 -12.316  0.00  0.00    +0.014 A 
ATOM     29 CL   UNL     1       3.952  -1.806 -14.937  0.00  0.00    -0.084 Cl
ENDBRANCH  20  23
ENDBRANCH  18  19
BRANCH  18  30
ATOM     30  C   UNL     1      -0.708  -0.987  -7.587  0.00  0.00    +0.036 C 
BRANCH  30  31
ATOM     31  C   UNL     1      -1.548  -0.456  -6.425  0.00  0.00    -0.015 C 
ATOM     32  C   UNL     1      -1.778   1.046  -6.606  0.00  0.00    +0.007 C 
ATOM     33  C   UNL     1      -2.897  -1.178  -6.398  0.00  0.00    +0.007 C 
ENDBRANCH  30  31
ENDBRANCH  18  30
ENDBRANCH   1  18
TORSDOF 9
