REMARK  Name = ZINC04225355
REMARK  9 active torsions:
REMARK  status: ('A' for Active; 'I' for Inactive)
REMARK    1  A    between atoms: C_1  and  C_2
REMARK    2  A    between atoms: C_6  and  C_15
REMARK    3  A    between atoms: C_13  and  C_14
REMARK    4  A    between atoms: C_15  and  C_16
REMARK    5  A    between atoms: C_16  and  N_17
REMARK    6  A    between atoms: N_17  and  C_18
REMARK    7  A    between atoms: C_18  and  N_20
REMARK    8  A    between atoms: N_20  and  C_21
REMARK    9  A    between atoms: C_24  and  N_27
REMARK                            x       y       z     vdW  Elec       q    Type
REMARK                         _______ _______ _______ _____ _____    ______ ____
ROOT
ATOM      1  C   UNL     1      -5.976   3.279  -1.331  0.00  0.00    +0.108 C 
ENDROOT
BRANCH   1   2
ATOM      2  N   UNL     1      -7.022   4.305  -1.356  0.00  0.00    -0.326 N 
ATOM      3  H   UNL     1      -7.237   4.798  -0.549  0.00  0.00    +0.148 HD
BRANCH   2   4
ATOM      4  C   UNL     1      -7.685   4.563  -2.501  0.00  0.00    +0.135 C 
ATOM      5  S   UNL     1      -7.304   3.692  -3.925  0.00  0.00    -0.019 S 
BRANCH   4   6
ATOM      6  N   UNL     1      -8.647   5.506  -2.525  0.00  0.00    -0.297 N 
ATOM      7  H   UNL     1      -8.905   5.957  -1.705  0.00  0.00    +0.154 HD
BRANCH   6   8
ATOM      8  C   UNL     1      -9.273   5.837  -3.732  0.00  0.00    +0.033 A 
ATOM      9  C   UNL     1      -9.473   7.169  -4.070  0.00  0.00    +0.025 A 
ATOM     10  C   UNL     1     -10.086   7.492  -5.264  0.00  0.00    +0.034 A 
ATOM     11  C   UNL     1     -10.512   6.490  -6.118  0.00  0.00    +0.126 A 
ATOM     12  C   UNL     1     -10.319   5.163  -5.781  0.00  0.00    +0.034 A 
ATOM     13  C   UNL     1      -9.701   4.833  -4.591  0.00  0.00    +0.025 A 
BRANCH  11  14
ATOM     14  N   UNL     1     -11.174   6.839  -7.395  0.00  0.00    +0.056 N 
ATOM     15  O   UNL     1     -11.549   5.958  -8.147  0.00  0.00    -0.126 OA
ATOM     16  O   UNL     1     -11.345   8.008  -7.692  0.00  0.00    -0.126 OA
ENDBRANCH  11  14
ENDBRANCH   6   8
ENDBRANCH   4   6
ENDBRANCH   2   4
ENDBRANCH   1   2
BRANCH   1  17
ATOM     17  C   UNL     1      -5.388   3.186   0.079  0.00  0.00    +0.059 C 
BRANCH  17  23
ATOM     18  C   UNL     1       1.749   1.066  -0.358  0.00  0.00    +0.044 C 
ATOM     19  C   UNL     1       0.290   0.738  -0.171  0.00  0.00    -0.047 A 
ATOM     20  C   UNL     1      -0.638   1.741  -0.201  0.00  0.00    +0.013 A 
ATOM     21  C   UNL     1      -1.992   1.437  -0.027  0.00  0.00    -0.001 A 
ATOM     22  C   UNL     1      -3.013   2.487  -0.053  0.00  0.00    +0.019 A 
ATOM     23  C   UNL     1      -4.312   2.131   0.105  0.00  0.00    +0.019 A 
ATOM     24  C   UNL     1      -4.659   0.778   0.306  0.00  0.00    +0.252 A 
ATOM     25  O   UNL     1      -5.832   0.481   0.456  0.00  0.00    -0.268 OA
ATOM     26  N   UNL     1      -3.728  -0.192   0.336  0.00  0.00    -0.322 N 
ATOM     27  H   UNL     1      -4.010  -1.141   0.481  0.00  0.00    +0.169 HD
ATOM     28  C   UNL     1      -2.392   0.102   0.171  0.00  0.00    +0.049 A 
ATOM     29  C   UNL     1      -1.429  -0.901   0.203  0.00  0.00    +0.030 A 
ATOM     30  C   UNL     1      -0.100  -0.579   0.030  0.00  0.00    -0.046 A 
ATOM     31  C   UNL     1       0.942  -1.668   0.058  0.00  0.00    +0.044 C 
ENDBRANCH  17  23
ENDBRANCH   1  17
TORSDOF 7
