REMARK  Name = ZINC62996344
REMARK  4 active torsions:
REMARK  status: ('A' for Active; 'I' for Inactive)
REMARK    1  A    between atoms: C_3  and  N_18
REMARK    2  A    between atoms: C_6  and  N_7
REMARK    3  A    between atoms: N_7  and  C_8
REMARK    4  A    between atoms: C_15  and  O_17
REMARK                            x       y       z     vdW  Elec       q    Type
REMARK                         _______ _______ _______ _____ _____    ______ ____
ROOT
ATOM      1  C   UNL     1      -0.017   1.384   0.024  0.00  0.00    +0.025 A 
ATOM      2  C   UNL     1       1.170   2.091   0.016  0.00  0.00    +0.025 A 
ATOM      3  C   UNL     1       2.381   1.413  -0.013  0.00  0.00    +0.030 A 
ATOM      4  C   UNL     1       2.400   0.025  -0.035  0.00  0.00    +0.025 A 
ATOM      5  C   UNL     1       1.214  -0.682  -0.027  0.00  0.00    +0.025 A 
ATOM      6  C   UNL     1       0.002  -0.004   0.002  0.00  0.00    +0.028 A 
ENDROOT
BRANCH   3   7
ATOM      7  N   UNL     1       3.584   2.130  -0.021  0.00  0.00    -0.326 N 
ATOM      8  C   UNL     1       4.879   1.437   0.067  0.00  0.00    +0.133 C 
ATOM      9  C   UNL     1       5.779   1.948  -1.064  0.00  0.00    +0.178 C 
ATOM     10  O   UNL     1       5.819   3.377  -1.024  0.00  0.00    -0.377 OA
ATOM     11  C   UNL     1       4.553   4.004  -1.240  0.00  0.00    +0.178 C 
ATOM     12  C   UNL     1       3.591   3.598  -0.124  0.00  0.00    +0.133 C 
ENDBRANCH   3   7
BRANCH   6  13
ATOM     13  N   UNL     1      -1.201  -0.721   0.010  0.00  0.00    -0.339 N 
ATOM     14  H   UNL     1      -2.047  -0.247   0.031  0.00  0.00    +0.146 HD
BRANCH  13  15
ATOM     15  C   UNL     1      -1.181  -2.185  -0.013  0.00  0.00    +0.099 C 
ATOM     16  C   UNL     1      -1.035  -2.660  -1.473  0.00  0.00    +0.025 C 
ATOM     17  C   UNL     1      -0.510  -4.070  -1.467  0.00  0.00    +0.002 C 
ATOM     18  C   UNL     1      -1.637  -5.118  -1.540  0.00  0.00    +0.000 C 
ATOM     19  C   UNL     1      -2.844  -4.762  -0.651  0.00  0.00    +0.003 C 
ATOM     20  C   UNL     1      -2.430  -4.223   0.692  0.00  0.00    +0.033 C 
ATOM     21  C   UNL     1      -2.398  -2.683   0.611  0.00  0.00    +0.135 C 
BRANCH  21  22
ATOM     22  O   UNL     1      -2.491  -2.150   1.934  0.00  0.00    -0.390 OA
ATOM     23  H   UNL     1      -3.278  -2.435   2.418  0.00  0.00    +0.210 HD
ENDBRANCH  21  22
ENDBRANCH  13  15
ENDBRANCH   6  13
TORSDOF 4
