REMARK  Name = ZINC08014425
REMARK  7 active torsions:
REMARK  status: ('A' for Active; 'I' for Inactive)
REMARK    1  A    between atoms: C_1  and  C_2
REMARK    2  A    between atoms: C_9  and  N_14
REMARK    3  A    between atoms: C_15  and  C_17
REMARK    4  A    between atoms: C_17  and  C_19
REMARK    5  A    between atoms: C_17  and  N_26
REMARK    6  A    between atoms: C_19  and  C_20
REMARK    7  A    between atoms: C_27  and  C_29
REMARK                            x       y       z     vdW  Elec       q    Type
REMARK                         _______ _______ _______ _____ _____    ______ ____
ROOT
ATOM      1  N   UNL     1      -2.629  -4.003  -0.699  0.00  0.00    -0.284 N 
ATOM      2  C   UNL     1      -2.423  -2.675  -0.588  0.00  0.00    +0.238 C 
ATOM      3  O   UNL     1      -3.276  -1.896  -0.957  0.00  0.00    -0.273 OA
ATOM      4  H   UNL     1      -1.921  -4.624  -0.467  0.00  0.00    +0.155 HD
ENDROOT
BRANCH   1  12
ATOM      5  C   UNL     1      -6.856  -7.894  -3.696  0.00  0.00    +0.062 C 
ATOM      6  C   UNL     1      -7.658  -7.329  -2.522  0.00  0.00    +0.256 C 
ATOM      7  C   UNL     1      -7.152  -7.926  -1.234  0.00  0.00    +0.258 C 
ATOM      8  O   UNL     1      -7.653  -8.940  -0.795  0.00  0.00    -0.271 OA
ATOM      9  N   UNL     1      -6.138  -7.328  -0.571  0.00  0.00    -0.279 N 
ATOM     10  C   UNL     1      -5.600  -6.138  -1.082  0.00  0.00    +0.077 A 
ATOM     11  C   UNL     1      -4.376  -5.669  -0.637  0.00  0.00    +0.050 A 
ATOM     12  C   UNL     1      -3.864  -4.485  -1.150  0.00  0.00    +0.035 A 
ATOM     13  C   UNL     1      -4.573  -3.781  -2.115  0.00  0.00    +0.027 A 
ATOM     14  C   UNL     1      -5.793  -4.253  -2.564  0.00  0.00    +0.049 A 
ATOM     15  C   UNL     1      -6.309  -5.430  -2.051  0.00  0.00    +0.143 A 
ATOM     16  O   UNL     1      -7.508  -5.907  -2.484  0.00  0.00    -0.478 OA
ATOM     17  H   UNL     1      -5.788  -7.717   0.246  0.00  0.00    +0.155 HD
ENDBRANCH   1  12
BRANCH   2  18
ATOM     18  C   UNL     1      -1.133  -2.159  -0.004  0.00  0.00    +0.164 C 
BRANCH  18  19
ATOM     19  N   UNL     1      -1.155  -0.694   0.007  0.00  0.00    -0.297 N 
ATOM     20  C   UNL     1       0.003  -0.003  -0.006  0.00  0.00    +0.280 C 
ATOM     21  O   UNL     1       1.065  -0.596  -0.029  0.00  0.00    -0.267 OA
ATOM     22  H   UNL     1      -2.001  -0.221   0.025  0.00  0.00    +0.150 HD
BRANCH  20  23
ATOM     23  C   UNL     1      -0.019   1.463   0.006  0.00  0.00    +0.189 A 
ATOM     24  C   UNL     1       1.074   2.282  -0.006  0.00  0.00    +0.054 A 
ATOM     25  C   UNL     1       0.591   3.600   0.012  0.00  0.00    +0.042 A 
ATOM     26  C   UNL     1      -0.758   3.529   0.033  0.00  0.00    +0.196 A 
ATOM     27  O   UNL     1      -1.122   2.240   0.024  0.00  0.00    -0.458 OA
ENDBRANCH  20  23
ENDBRANCH  18  19
BRANCH  18  28
ATOM     28  C   UNL     1      -0.976  -2.678   1.426  0.00  0.00    +0.067 C 
BRANCH  28  29
ATOM     29  C   UNL     1       0.369  -2.264   1.966  0.00  0.00    -0.045 A 
ATOM     30  C   UNL     1       1.465  -3.090   1.798  0.00  0.00    +0.004 A 
ATOM     31  C   UNL     1       2.699  -2.708   2.289  0.00  0.00    +0.000 A 
ATOM     32  C   UNL     1       2.835  -1.505   2.957  0.00  0.00    +0.000 A 
ATOM     33  C   UNL     1       1.738  -0.682   3.130  0.00  0.00    +0.000 A 
ATOM     34  C   UNL     1       0.505  -1.062   2.634  0.00  0.00    +0.004 A 
ENDBRANCH  28  29
ENDBRANCH  18  28
ENDBRANCH   2  18
TORSDOF 6
