REMARK  Name = ZINC06625592
REMARK  12 active torsions:
REMARK  status: ('A' for Active; 'I' for Inactive)
REMARK    1  A    between atoms: C_1  and  C_2
REMARK    2  A    between atoms: C_2  and  C_3
REMARK    3  A    between atoms: C_3  and  C_4
REMARK    4  A    between atoms: C_4  and  N_5
REMARK    5  A    between atoms: N_5  and  C_6
REMARK    6  A    between atoms: C_7  and  N_19
REMARK    7  A    between atoms: N_8  and  C_15
REMARK    8  A    between atoms: C_15  and  C_16
REMARK    9  A    between atoms: C_16  and  C_17
REMARK   10  A    between atoms: C_16  and  C_18
REMARK   11  A    between atoms: C_20  and  C_22
REMARK   12  A    between atoms: C_25  and  C_28
REMARK                            x       y       z     vdW  Elec       q    Type
REMARK                         _______ _______ _______ _____ _____    ______ ____
ROOT
ATOM      1  C   UNL     1       0.100  -1.259   0.734  0.00  0.00    +0.140 A 
ATOM      2  C   UNL     1       1.414  -1.381   1.137  0.00  0.00    +0.127 A 
ATOM      3  N   UNL     1       2.415  -0.925   0.311  0.00  0.00    -0.280 N 
ATOM      4  C   UNL     1       2.116  -0.361  -0.873  0.00  0.00    +0.331 A 
ATOM      5  O   UNL     1       3.015   0.041  -1.587  0.00  0.00    -0.246 OA
ATOM      6  N   UNL     1       0.842  -0.239  -1.285  0.00  0.00    -0.273 N 
ATOM      7  H   UNL     1       0.647   0.177  -2.173  0.00  0.00    +0.173 HD
ATOM      8  C   UNL     1      -0.176  -0.669  -0.514  0.00  0.00    +0.277 A 
ATOM      9  O   UNL     1      -1.328  -0.549  -0.895  0.00  0.00    -0.266 OA
ENDROOT
BRANCH   1  10
ATOM     10  N   UNL     1      -0.948  -1.718   1.558  0.00  0.00    -0.260 N 
ATOM     11  C   UNL     1      -1.125  -1.184   2.783  0.00  0.00    +0.251 C 
ATOM     12  O   UNL     1      -1.987  -1.625   3.520  0.00  0.00    -0.270 OA
BRANCH  11  13
ATOM     13  C   UNL     1      -0.273  -0.063   3.231  0.00  0.00    +0.037 A 
ATOM     14  C   UNL     1       0.328   0.779   2.294  0.00  0.00    +0.013 A 
ATOM     15  C   UNL     1       1.119   1.827   2.719  0.00  0.00    +0.004 A 
ATOM     16  C   UNL     1       1.325   2.037   4.071  0.00  0.00    -0.050 A 
ATOM     17  C   UNL     1       0.737   1.203   5.005  0.00  0.00    +0.004 A 
ATOM     18  C   UNL     1      -0.060   0.155   4.593  0.00  0.00    +0.013 A 
ATOM     19  C   UNL     1       2.195   3.180   4.527  0.00  0.00    +0.044 C 
ENDBRANCH  11  13
BRANCH  10  20
ATOM     20  C   UNL     1      -1.845  -2.774   1.083  0.00  0.00    +0.114 C 
BRANCH  20  21
ATOM     21  C   UNL     1      -1.344  -4.131   1.582  0.00  0.00    +0.019 C 
BRANCH  21  23
ATOM     22  C   UNL     1      -1.780  -6.591   1.585  0.00  0.00    +0.004 C 
ATOM     23  C   UNL     1      -2.280  -5.235   1.086  0.00  0.00    -0.002 C 
ENDBRANCH  21  23
ENDBRANCH  20  21
ENDBRANCH  10  20
ENDBRANCH   1  10
BRANCH   2  24
ATOM     24  N   UNL     1       1.720  -1.953   2.349  0.00  0.00    -0.343 N 
ATOM     25  H   UNL     1       2.607  -1.845   2.727  0.00  0.00    +0.144 HD
ATOM     26  H   UNL     1       1.048  -2.464   2.828  0.00  0.00    +0.144 HD
ENDBRANCH   2  24
BRANCH   3  27
ATOM     27  C   UNL     1       3.815  -1.048   0.726  0.00  0.00    +0.131 C 
BRANCH  27  28
ATOM     28  C   UNL     1       4.374  -2.387   0.242  0.00  0.00    +0.003 C 
ATOM     29  C   UNL     1       4.403  -2.405  -1.287  0.00  0.00    +0.009 C 
ATOM     30  C   UNL     1       5.794  -2.571   0.781  0.00  0.00    +0.009 C 
ENDBRANCH  27  28
ENDBRANCH   3  27
TORSDOF 8
