REMARK  Name = ZINC36582053
REMARK  19 active torsions:
REMARK  status: ('A' for Active; 'I' for Inactive)
REMARK    1  A    between atoms: C_1  and  C_2
REMARK    2  A    between atoms: C_2  and  C_3
REMARK    3  A    between atoms: C_3  and  C_4
REMARK    4  A    between atoms: C_4  and  C_5
REMARK    5  A    between atoms: C_5  and  C_6
REMARK    6  A    between atoms: C_7  and  C_8
REMARK    7  A    between atoms: N_10  and  C_11
REMARK    8  A    between atoms: N_10  and  C_36
REMARK    9  A    between atoms: C_11  and  C_13
REMARK   10  A    between atoms: C_11  and  C_22
REMARK   11  A    between atoms: C_13  and  C_15
REMARK   12  A    between atoms: C_13  and  C_16
REMARK   13  A    between atoms: N_24  and  C_25
REMARK   14  A    between atoms: C_25  and  S_26
REMARK   15  A    between atoms: S_26  and  C_29
REMARK   16  A    between atoms: C_32  and  C_35
REMARK   17  A    between atoms: C_36  and  C_37
REMARK   18  A    between atoms: C_36  and  C_38
REMARK   19  A    between atoms: C_36  and  C_39
REMARK                            x       y       z     vdW  Elec       q    Type
REMARK                         _______ _______ _______ _____ _____    ______ ____
ROOT
ATOM      1  C   UNL     1       0.698  -7.319  -4.382  0.00  0.00    +0.170 C 
ENDROOT
BRANCH   1   2
ATOM      2  C   UNL     1      -0.740  -7.752  -4.509  0.00  0.00    +0.235 C 
ATOM      3  O   UNL     1      -1.006  -8.918  -4.711  0.00  0.00    -0.274 OA
ATOM      4  N   UNL     1      -1.729  -6.844  -4.399  0.00  0.00    -0.295 N 
ATOM      5  H   UNL     1      -1.516  -5.902  -4.306  0.00  0.00    +0.150 HD
BRANCH   4   6
ATOM      6  C   UNL     1      -3.128  -7.279  -4.421  0.00  0.00    +0.278 C 
BRANCH   6   7
ATOM      7  S   UNL     1      -3.721  -7.493  -2.720  0.00  0.00    +0.013 S 
ATOM      8  O   UNL     1      -5.102  -7.828  -2.722  0.00  0.00    -0.168 OA
ATOM      9  O   UNL     1      -2.790  -8.263  -1.971  0.00  0.00    -0.168 OA
BRANCH   7  10
ATOM     10  C   UNL     1      -3.649  -5.883  -2.009  0.00  0.00    +0.090 A 
ATOM     11  C   UNL     1      -2.467  -5.423  -1.458  0.00  0.00    +0.027 A 
ATOM     12  C   UNL     1      -2.411  -4.160  -0.900  0.00  0.00    +0.005 A 
ATOM     13  C   UNL     1      -3.536  -3.356  -0.893  0.00  0.00    -0.050 A 
ATOM     14  C   UNL     1      -4.717  -3.816  -1.444  0.00  0.00    +0.005 A 
ATOM     15  C   UNL     1      -4.772  -5.078  -2.006  0.00  0.00    +0.027 A 
ATOM     16  C   UNL     1      -3.474  -1.979  -0.283  0.00  0.00    +0.044 C 
ENDBRANCH   7  10
ENDBRANCH   6   7
ENDBRANCH   4   6
ENDBRANCH   1   2
BRANCH   1  19
ATOM     17  C   UNL     1       1.556  -5.039  -4.318  0.00  0.00    +0.240 C 
ATOM     18  O   UNL     1       2.090  -5.300  -3.257  0.00  0.00    -0.271 OA
ATOM     19  N   UNL     1       0.862  -5.989  -4.975  0.00  0.00    -0.281 N 
BRANCH  19  20
ATOM     20  C   UNL     1       0.271  -5.692  -6.282  0.00  0.00    +0.030 C 
ATOM     21  C   UNL     1       1.379  -5.325  -7.271  0.00  0.00    +0.031 C 
ATOM     22  C   UNL     1      -0.482  -6.922  -6.793  0.00  0.00    +0.031 C 
ATOM     23  C   UNL     1      -0.702  -4.519  -6.147  0.00  0.00    +0.031 C 
ENDBRANCH  19  20
BRANCH  17  25
ATOM     24  C   UNL     1       2.248  -2.717  -4.181  0.00  0.00    -0.022 C 
ATOM     25  C   UNL     1       1.668  -3.686  -4.884  0.00  0.00    +0.063 C 
BRANCH  24  26
ATOM     26  C   UNL     1       2.363  -1.331  -4.761  0.00  0.00    +0.027 C 
BRANCH  26  27
ATOM     27  C   UNL     1       1.736  -0.321  -3.797  0.00  0.00    +0.004 C 
BRANCH  27  28
ATOM     28  C   UNL     1       1.853   1.086  -4.386  0.00  0.00    +0.000 C 
BRANCH  28  30
ATOM     29  C   UNL     1       1.343   3.503  -4.011  0.00  0.00    +0.004 C 
ATOM     30  C   UNL     1       1.226   2.096  -3.423  0.00  0.00    -0.003 C 
ENDBRANCH  28  30
ENDBRANCH  27  28
ENDBRANCH  26  27
ENDBRANCH  24  26
ENDBRANCH  17  25
ENDBRANCH   1  19
BRANCH   1  31
ATOM     31  C   UNL     1       1.598  -8.317  -5.112  0.00  0.00    +0.045 C 
ATOM     32  C   UNL     1       3.065  -7.974  -4.842  0.00  0.00    +0.015 C 
BRANCH  31  33
ATOM     33  C   UNL     1       1.309  -9.710  -4.616  0.00  0.00    -0.042 A 
ATOM     34  C   UNL     1       1.367  -9.988  -3.263  0.00  0.00    +0.004 A 
ATOM     35  C   UNL     1       1.102 -11.266  -2.808  0.00  0.00    +0.000 A 
ATOM     36  C   UNL     1       0.778 -12.266  -3.706  0.00  0.00    +0.000 A 
ATOM     37  C   UNL     1       0.719 -11.988  -5.059  0.00  0.00    +0.000 A 
ATOM     38  C   UNL     1       0.980 -10.709  -5.513  0.00  0.00    +0.004 A 
ENDBRANCH  31  33
ENDBRANCH   1  31
TORSDOF 13
