REMARK  Name = ZINC67103522
REMARK  8 active torsions:
REMARK  status: ('A' for Active; 'I' for Inactive)
REMARK    1  A    between atoms: C_4  and  C_7
REMARK    2  A    between atoms: C_7  and  C_8
REMARK    3  A    between atoms: N_10  and  C_11
REMARK    4  A    between atoms: C_11  and  C_12
REMARK    5  A    between atoms: C_12  and  N_13
REMARK    6  A    between atoms: N_16  and  N_17
REMARK    7  A    between atoms: C_18  and  C_20
REMARK    8  A    between atoms: C_20  and  C_21
REMARK                            x       y       z     vdW  Elec       q    Type
REMARK                         _______ _______ _______ _____ _____    ______ ____
ROOT
ATOM      1  N   UNL     1       4.655  -6.081   4.496  0.00  0.00    -0.297 N 
ATOM      2  C   UNL     1       5.276  -6.751   5.487  0.00  0.00    +0.316 C 
ATOM      3  O   UNL     1       5.733  -6.146   6.437  0.00  0.00    -0.251 OA
ATOM      4  N   UNL     1       5.390  -8.093   5.424  0.00  0.00    -0.218 N 
ATOM      5  H   UNL     1       4.290  -6.564   3.738  0.00  0.00    +0.150 HD
ATOM      6  H   UNL     1       5.837  -8.575   6.137  0.00  0.00    +0.174 HD
ENDROOT
BRANCH   4   7
ATOM      7  N   UNL     1       4.864  -8.791   4.330  0.00  0.00    -0.233 N 
ATOM      8  C   UNL     1       4.978 -10.132   4.267  0.00  0.00    +0.229 C 
ATOM      9  O   UNL     1       5.537 -10.735   5.159  0.00  0.00    -0.274 OA
ATOM     10  H   UNL     1       4.417  -8.309   3.616  0.00  0.00    +0.173 HD
BRANCH   8  11
ATOM     11  C   UNL     1       4.412 -10.883   3.090  0.00  0.00    +0.101 C 
BRANCH  11  12
ATOM     12  C   UNL     1       4.675 -12.380   3.265  0.00  0.00    -0.002 C 
ATOM     13  C   UNL     1       6.181 -12.641   3.225  0.00  0.00    +0.004 C 
ATOM     14  C   UNL     1       6.444 -14.138   3.400  0.00  0.00    +0.000 C 
ATOM     15  C   UNL     1       5.762 -14.912   2.270  0.00  0.00    +0.000 C 
ATOM     16  C   UNL     1       4.255 -14.650   2.310  0.00  0.00    +0.000 C 
ATOM     17  C   UNL     1       3.993 -13.153   2.135  0.00  0.00    +0.004 C 
ENDBRANCH  11  12
ENDBRANCH   8  11
ENDBRANCH   4   7
BRANCH   1  18
ATOM     18  C   UNL     1       4.531  -4.623   4.563  0.00  0.00    +0.124 C 
BRANCH  18  19
ATOM     19  C   UNL     1       3.791  -4.116   3.324  0.00  0.00    +0.123 C 
BRANCH  19  22
ATOM     20  C   UNL     1       3.045  -1.988   2.401  0.00  0.00    +0.213 C 
ATOM     21  O   UNL     1       2.590  -2.592   1.453  0.00  0.00    -0.276 OA
ATOM     22  N   UNL     1       3.666  -2.658   3.392  0.00  0.00    -0.314 N 
ATOM     23  H   UNL     1       4.031  -2.175   4.149  0.00  0.00    +0.149 HD
BRANCH  20  24
ATOM     24  C   UNL     1       2.917  -0.488   2.470  0.00  0.00    +0.099 C 
BRANCH  24  28
ATOM     25  C   UNL     1      -0.019   1.526   0.010  0.00  0.00    +0.000 C 
ATOM     26  C   UNL     1       1.417   2.055  -0.000  0.00  0.00    +0.000 C 
ATOM     27  C   UNL     1       2.157   1.548   1.239  0.00  0.00    +0.004 C 
ATOM     28  C   UNL     1       2.178   0.019   1.231  0.00  0.00    -0.002 C 
ATOM     29  C   UNL     1       0.742  -0.511   1.242  0.00  0.00    +0.004 C 
ATOM     30  C   UNL     1       0.002  -0.004   0.002  0.00  0.00    +0.000 C 
ENDBRANCH  24  28
ENDBRANCH  20  24
ENDBRANCH  19  22
ENDBRANCH  18  19
ENDBRANCH   1  18
TORSDOF 8
