REMARK  Name = ZINC33763234
REMARK  4 active torsions:
REMARK  status: ('A' for Active; 'I' for Inactive)
REMARK    1  A    between atoms: C_10  and  C_11
REMARK    2  A    between atoms: C_11  and  N_12
REMARK    3  A    between atoms: C_14  and  C_21
REMARK    4  A    between atoms: N_27  and  C_28
REMARK                            x       y       z     vdW  Elec       q    Type
REMARK                         _______ _______ _______ _____ _____    ______ ____
ROOT
ATOM      1  N   UNL     1       5.183   0.434   1.396  0.00  0.00    -0.342 N 
ATOM      2  C   UNL     1       4.830   1.580   2.035  0.00  0.00    +0.095 A 
ATOM      3  C   UNL     1       5.510   1.676   3.216  0.00  0.00    +0.001 A 
ATOM      4  C   UNL     1       6.359   0.473   3.309  0.00  0.00    +0.007 A 
ATOM      5  C   UNL     1       6.107  -0.268   2.143  0.00  0.00    +0.050 A 
ATOM      6  C   UNL     1       6.769  -1.475   1.946  0.00  0.00    +0.026 A 
ATOM      7  C   UNL     1       7.659  -1.934   2.892  0.00  0.00    +0.002 A 
ATOM      8  C   UNL     1       7.904  -1.202   4.045  0.00  0.00    +0.001 A 
ATOM      9  C   UNL     1       7.265   0.001   4.254  0.00  0.00    +0.010 A 
ENDROOT
BRANCH   3  10
ATOM     10  C   UNL     1       5.413   2.758   4.197  0.00  0.00    +0.030 C 
ATOM     11  C   UNL     1       4.856   3.949   3.844  0.00  0.00    +0.078 C 
ATOM     12  C   UNL     1       4.743   5.152   4.601  0.00  0.00    +0.256 C 
ATOM     13  O   UNL     1       5.178   5.219   5.737  0.00  0.00    -0.269 OA
ATOM     14  N   UNL     1       4.155   6.194   4.040  0.00  0.00    -0.260 N 
ATOM     15  C   UNL     1       3.667   6.103   2.751  0.00  0.00    +0.166 C 
ATOM     16  N   UNL     1       3.059   7.021   2.033  0.00  0.00    -0.226 NA
ATOM     17  S   UNL     1       4.080   4.423   2.306  0.00  0.00    -0.049 S 
ATOM     18  H   UNL     1       4.065   7.024   4.534  0.00  0.00    +0.157 HD
BRANCH  16  19
ATOM     19  C   UNL     1       2.646   6.731   0.760  0.00  0.00    +0.067 A 
ATOM     20  C   UNL     1       3.494   6.047  -0.114  0.00  0.00    +0.030 A 
ATOM     21  C   UNL     1       3.073   5.758  -1.395  0.00  0.00    +0.040 A 
ATOM     22  C   UNL     1       1.812   6.146  -1.816  0.00  0.00    +0.124 A 
ATOM     23  C   UNL     1       0.966   6.825  -0.955  0.00  0.00    +0.040 A 
ATOM     24  C   UNL     1       1.373   7.114   0.331  0.00  0.00    +0.030 A 
ATOM     25  F   UNL     1       1.405   5.861  -3.073  0.00  0.00    -0.205 F 
ENDBRANCH  16  19
ENDBRANCH   3  10
BRANCH   1  26
ATOM     26  C   UNL     1       4.654   0.003   0.100  0.00  0.00    +0.157 C 
BRANCH  26  36
ATOM     27  C   UNL     1      -0.368   0.554   0.925  0.00  0.00    +0.001 A 
ATOM     28  C   UNL     1       0.696   1.433   0.726  0.00  0.00    +0.001 A 
ATOM     29  C   UNL     1       1.960   0.970   0.526  0.00  0.00    +0.009 A 
ATOM     30  C   UNL     1       2.200  -0.415   0.521  0.00  0.00    -0.013 A 
ATOM     31  C   UNL     1       1.119  -1.309   0.724  0.00  0.00    -0.018 A 
ATOM     32  C   UNL     1      -0.173  -0.793   0.927  0.00  0.00    +0.008 A 
ATOM     33  C   UNL     1       1.359  -2.693   0.720  0.00  0.00    +0.008 A 
ATOM     34  C   UNL     1       2.623  -3.156   0.520  0.00  0.00    +0.001 A 
ATOM     35  C   UNL     1       3.686  -2.278   0.321  0.00  0.00    +0.006 A 
ATOM     36  C   UNL     1       3.491  -0.931   0.319  0.00  0.00    -0.020 A 
ENDBRANCH  26  36
ENDBRANCH   1  26
TORSDOF 4
