REMARK  Name = ZINC12428324
REMARK  6 active torsions:
REMARK  status: ('A' for Active; 'I' for Inactive)
REMARK    1  A    between atoms: C_2  and  C_21
REMARK    2  A    between atoms: C_5  and  C_6
REMARK    3  A    between atoms: C_8  and  C_19
REMARK    4  A    between atoms: C_9  and  N_18
REMARK    5  A    between atoms: C_21  and  S_22
REMARK    6  A    between atoms: S_22  and  C_23
REMARK                            x       y       z     vdW  Elec       q    Type
REMARK                         _______ _______ _______ _____ _____    ______ ____
ROOT
ATOM      1  C   UNL     1       0.918   5.160   0.020  0.00  0.00    +0.108 C 
ATOM      2  C   UNL     1       1.763   5.391   1.241  0.00  0.00    +0.099 C 
ATOM      3  C   UNL     1       3.115   5.398   1.148  0.00  0.00    +0.198 C 
ATOM      4  O   UNL     1       3.736   5.196  -0.025  0.00  0.00    -0.445 OA
ATOM      5  C   UNL     1       3.077   5.409  -1.179  0.00  0.00    +0.115 C 
ATOM      6  C   UNL     1       1.732   5.408  -1.228  0.00  0.00    +0.046 C 
ATOM      7  C   UNL     1       1.043   5.640  -2.434  0.00  0.00    +0.163 C 
ATOM      8  O   UNL     1      -0.172   5.615  -2.441  0.00  0.00    -0.292 OA
ATOM      9  C   UNL     1       1.784   5.916  -3.714  0.00  0.00    +0.080 C 
ATOM     10  C   UNL     1       3.128   6.570  -3.376  0.00  0.00    +0.016 C 
ATOM     11  C   UNL     1       3.893   5.644  -2.428  0.00  0.00    +0.075 C 
ENDROOT
BRANCH   1  16
ATOM     12  C   UNL     1      -0.855   3.279   0.027  0.00  0.00    +0.016 A 
ATOM     13  C   UNL     1      -1.077   1.915   0.017  0.00  0.00    -0.030 A 
ATOM     14  C   UNL     1      -0.013   1.076   0.008  0.00  0.00    +0.050 A 
ATOM     15  S   UNL     1       1.359   2.219   0.001  0.00  0.00    -0.100 S 
ATOM     16  C   UNL     1       0.421   3.738   0.017  0.00  0.00    +0.003 A 
BRANCH  13  17
ATOM     17  C   UNL     1      -2.482   1.369   0.019  0.00  0.00    +0.112 C 
BRANCH  17  18
ATOM     18  S   UNL     1      -3.039   1.141   1.730  0.00  0.00    -0.092 S 
BRANCH  18  19
ATOM     19  C   UNL     1      -4.674   0.506   1.565  0.00  0.00    +0.160 A 
ATOM     20  N   UNL     1      -5.365   0.251   0.470  0.00  0.00    -0.133 NA
ATOM     21  N   UNL     1      -6.642  -0.253   0.569  0.00  0.00    -0.125 NA
ATOM     22  C   UNL     1      -7.173  -0.467   1.757  0.00  0.00    +0.180 A 
ATOM     23  S   UNL     1      -5.843   0.043   2.834  0.00  0.00    -0.025 S 
ATOM     24  N   UNL     1      -8.431  -0.958   2.083  0.00  0.00    -0.336 N 
ATOM     25  H   UNL     1      -8.685  -1.062   3.014  0.00  0.00    +0.144 HD
ATOM     26  H   UNL     1      -9.056  -1.197   1.381  0.00  0.00    +0.144 HD
ENDBRANCH  18  19
ENDBRANCH  17  18
ENDBRANCH  13  17
ENDBRANCH   1  16
BRANCH   3  27
ATOM     27  N   UNL     1       3.865   5.617   2.276  0.00  0.00    -0.328 N 
ATOM     28  H   UNL     1       3.427   5.764   3.129  0.00  0.00    +0.145 HD
ATOM     29  H   UNL     1       4.834   5.624   2.221  0.00  0.00    +0.145 HD
ENDBRANCH   3  27
BRANCH   2  30
ATOM     30  C   UNL     1       1.136   5.604   2.511  0.00  0.00    +0.101 C 
ATOM     31  N   UNL     1       0.639   5.774   3.518  0.00  0.00    -0.191 NA
ENDBRANCH   2  30
TORSDOF 6
