REMARK  Name = ZINC13617724
REMARK  4 active torsions:
REMARK  status: ('A' for Active; 'I' for Inactive)
REMARK    1  A    between atoms: C_4  and  C_10
REMARK    2  A    between atoms: C_6  and  N_7
REMARK    3  A    between atoms: N_11  and  N_12
REMARK    4  A    between atoms: C_13  and  C_15
REMARK                            x       y       z     vdW  Elec       q    Type
REMARK                         _______ _______ _______ _____ _____    ______ ____
ROOT
ATOM      1  C   UNL     1      -1.314   2.075   0.227  0.00  0.00    +0.142 C 
ATOM      2  N   UNL     1      -2.409   1.444  -0.069  0.00  0.00    -0.187 NA
ENDROOT
BRANCH   1   6
ATOM      3  C   UNL     1       2.177  -0.103   1.276  0.00  0.00    +0.036 A 
ATOM      4  C   UNL     1       2.299   1.162   0.733  0.00  0.00    +0.054 A 
ATOM      5  C   UNL     1       1.166   1.880   0.386  0.00  0.00    +0.188 A 
ATOM      6  C   UNL     1      -0.102   1.318   0.587  0.00  0.00    +0.043 A 
ATOM      7  C   UNL     1      -0.211   0.038   1.136  0.00  0.00    +0.046 A 
ATOM      8  C   UNL     1       0.927  -0.663   1.476  0.00  0.00    +0.127 A 
ATOM      9  O   UNL     1       1.284   3.124  -0.147  0.00  0.00    -0.287 OA
BRANCH   8  10
ATOM     10  N   UNL     1       0.811  -2.019   2.059  0.00  0.00    +0.056 N 
ATOM     11  O   UNL     1       1.808  -2.603   2.444  0.00  0.00    -0.126 OA
ATOM     12  O   UNL     1      -0.281  -2.550   2.152  0.00  0.00    -0.126 OA
ENDBRANCH   8  10
ENDBRANCH   1   6
BRANCH   2  13
ATOM     13  N   UNL     1      -2.385   0.060  -0.284  0.00  0.00    -0.203 N 
ATOM     14  C   UNL     1      -3.536  -0.612  -0.480  0.00  0.00    +0.265 C 
ATOM     15  O   UNL     1      -4.588  -0.006  -0.562  0.00  0.00    -0.268 OA
ATOM     16  H   UNL     1      -1.539  -0.415  -0.291  0.00  0.00    +0.178 HD
BRANCH  14  17
ATOM     17  C   UNL     1      -3.521  -2.085  -0.597  0.00  0.00    +0.057 A 
ATOM     18  C   UNL     1      -4.694  -2.787  -0.905  0.00  0.00    +0.031 A 
ATOM     19  C   UNL     1      -4.626  -4.166  -1.003  0.00  0.00    +0.037 A 
ATOM     20  C   UNL     1      -3.413  -4.801  -0.795  0.00  0.00    +0.126 A 
ATOM     21  N   UNL     1      -2.325  -4.113  -0.507  0.00  0.00    -0.261 NA
ATOM     22  C   UNL     1      -2.338  -2.800  -0.407  0.00  0.00    +0.123 A 
ATOM     23 BR   UNL     1      -6.172  -5.172  -1.417  0.00  0.00    -0.049 Br
ENDBRANCH  14  17
ENDBRANCH   2  13
TORSDOF 4
