REMARK  Name = ZINC38744453
REMARK  7 active torsions:
REMARK  status: ('A' for Active; 'I' for Inactive)
REMARK    1  A    between atoms: C_1  and  C_2
REMARK    2  A    between atoms: C_2  and  C_3
REMARK    3  A    between atoms: C_2  and  C_4
REMARK    4  A    between atoms: C_6  and  C_10
REMARK    5  A    between atoms: C_14  and  C_19
REMARK    6  A    between atoms: C_22  and  O_25
REMARK    7  A    between atoms: O_25  and  C_26
REMARK                            x       y       z     vdW  Elec       q    Type
REMARK                         _______ _______ _______ _____ _____    ______ ____
ROOT
ATOM      1  C   UNL     1       2.045  -2.942  -3.073  0.00  0.00    +0.182 C 
ATOM      2  N   UNL     1       2.449  -3.178  -4.484  0.00  0.00    -0.265 N 
ATOM      3  N   UNL     1       3.775  -3.433  -4.669  0.00  0.00    -0.220 N 
ATOM      4  C   UNL     1       4.691  -3.375  -5.715  0.00  0.00    +0.182 A 
ATOM      5  N   UNL     1       5.843  -3.803  -5.261  0.00  0.00    -0.127 NA
ATOM      6  N   UNL     1       5.737  -4.111  -4.016  0.00  0.00    -0.120 NA
ATOM      7  C   UNL     1       4.523  -3.888  -3.613  0.00  0.00    +0.211 A 
ATOM      8  S   UNL     1       3.385  -3.901  -2.241  0.00  0.00    -0.058 S 
ATOM      9  H   UNL     1       1.880  -3.897  -4.907  0.00  0.00    +0.168 HD
ENDROOT
BRANCH   4  10
ATOM     10  C   UNL     1       4.415  -2.913  -7.092  0.00  0.00    +0.021 A 
ATOM     11  C   UNL     1       3.097  -2.774  -7.532  0.00  0.00    +0.015 A 
ATOM     12  C   UNL     1       2.844  -2.343  -8.816  0.00  0.00    +0.046 A 
ATOM     13  C   UNL     1       3.897  -2.047  -9.672  0.00  0.00    +0.120 A 
ATOM     14  C   UNL     1       5.208  -2.184  -9.238  0.00  0.00    +0.046 A 
ATOM     15  C   UNL     1       5.470  -2.609  -7.953  0.00  0.00    +0.015 A 
BRANCH  13  16
ATOM     16  O   UNL     1       3.642  -1.623 -10.938  0.00  0.00    -0.495 OA
ATOM     17  C   UNL     1       4.772  -1.336 -11.765  0.00  0.00    +0.277 C 
ENDBRANCH  13  16
ENDBRANCH   4  10
BRANCH   1  20
ATOM     18  C   UNL     1       0.707  -0.490  -1.238  0.00  0.00    +0.064 C 
ATOM     19  C   UNL     1       1.805  -1.250  -1.237  0.00  0.00    +0.029 C 
ATOM     20  C   UNL     1       2.107  -1.457  -2.710  0.00  0.00    +0.185 C 
ATOM     21  N   UNL     1       1.029  -0.708  -3.378  0.00  0.00    -0.177 NA
ATOM     22  N   UNL     1       0.311  -0.220  -2.502  0.00  0.00    -0.158 NA
BRANCH  18  24
ATOM     23  C   UNL     1      -0.019   1.526   0.010  0.00  0.00    +0.014 C 
ATOM     24  C   UNL     1       0.002  -0.004   0.002  0.00  0.00    +0.033 C 
ATOM     25  C   UNL     1      -1.433  -0.534   0.013  0.00  0.00    +0.014 C 
ENDBRANCH  18  24
ENDBRANCH   1  20
TORSDOF 4
