REMARK  Name = ZINC01567988
REMARK  8 active torsions:
REMARK  status: ('A' for Active; 'I' for Inactive)
REMARK    1  A    between atoms: C_1  and  N_37
REMARK    2  A    between atoms: C_2  and  N_37
REMARK    3  A    between atoms: C_3  and  C_4
REMARK    4  A    between atoms: C_3  and  N_37
REMARK    5  A    between atoms: C_4  and  C_5
REMARK    6  A    between atoms: C_5  and  N_6
REMARK    7  A    between atoms: C_9  and  C_12
REMARK    8  A    between atoms: C_18  and  C_21
REMARK                            x       y       z     vdW  Elec       q    Type
REMARK                         _______ _______ _______ _____ _____    ______ ____
ROOT
ATOM      1  N   UNL     1       1.356   2.033   0.000  0.00  0.00    -0.256 N 
ATOM      2  C   UNL     1       1.994   2.279  -1.204  0.00  0.00    +0.186 A 
ATOM      3  N   UNL     1       3.220   2.733  -1.427  0.00  0.00    -0.204 NA
ATOM      4  C   UNL     1       3.617   2.891  -2.667  0.00  0.00    +0.191 A 
ATOM      5  N   UNL     1       2.804   2.599  -3.654  0.00  0.00    -0.188 NA
ATOM      6  S   UNL     1       1.405   2.068  -2.823  0.00  0.00    +0.050 S 
ATOM      7  C   UNL     1       2.017   2.266   1.195  0.00  0.00    +0.186 A 
ATOM      8  N   UNL     1       3.247   2.718   1.399  0.00  0.00    -0.204 NA
ATOM      9  C   UNL     1       3.667   2.862   2.633  0.00  0.00    +0.191 A 
ATOM     10  N   UNL     1       2.873   2.560   3.632  0.00  0.00    -0.188 NA
ATOM     11  S   UNL     1       1.453   2.052   2.822  0.00  0.00    +0.050 S 
ENDROOT
BRANCH   4  12
ATOM     12  C   UNL     1       5.003   3.405  -2.958  0.00  0.00    +0.250 C 
ATOM     13 CL   UNL     1       6.044   2.044  -3.519  0.00  0.00    -0.075 Cl
ATOM     14 CL   UNL     1       4.919   4.667  -4.243  0.00  0.00    -0.075 Cl
ATOM     15 CL   UNL     1       5.705   4.120  -1.459  0.00  0.00    -0.075 Cl
ENDBRANCH   4  12
BRANCH   9  16
ATOM     16  C   UNL     1       5.060   3.373   2.902  0.00  0.00    +0.250 C 
ATOM     17 CL   UNL     1       4.974   5.087   3.456  0.00  0.00    -0.075 Cl
ATOM     18 CL   UNL     1       5.832   2.365   4.182  0.00  0.00    -0.075 Cl
ATOM     19 CL   UNL     1       6.037   3.277   1.390  0.00  0.00    -0.075 Cl
ENDBRANCH   9  16
BRANCH   1  20
ATOM     20  C   UNL     1      -0.019   1.526   0.010  0.00  0.00    +0.113 C 
BRANCH  20  21
ATOM     21  C   UNL     1       0.002  -0.004   0.002  0.00  0.00    +0.001 C 
BRANCH  21  22
ATOM     22  C   UNL     1      -1.433  -0.534   0.013  0.00  0.00    -0.078 C 
BRANCH  22  25
ATOM     23  C   UNL     1      -0.838  -2.528   1.250  0.00  0.00    -0.097 C 
ATOM     24  C   UNL     1      -2.759  -2.546  -0.223  0.00  0.00    -0.097 C 
ATOM     25  N   UNL     1      -1.397  -2.011  -0.017  0.00  0.00    +0.376 N 
ATOM     26  H   UNL     1      -0.798  -2.314  -0.794  0.00  0.00    -0.083 HD
ENDBRANCH  22  25
ENDBRANCH  21  22
ENDBRANCH  20  21
ENDBRANCH   1  20
TORSDOF 6
