REMARK  Name = ZINC37083615
REMARK  3 active torsions:
REMARK  status: ('A' for Active; 'I' for Inactive)
REMARK    1  A    between atoms: C_1  and  C_2
REMARK    2  A    between atoms: C_2  and  C_3
REMARK    3  A    between atoms: C_10  and  C_12
REMARK                            x       y       z     vdW  Elec       q    Type
REMARK                         _______ _______ _______ _____ _____    ______ ____
ROOT
ATOM      1  C   UNL     1      -2.157   0.820  -3.494  0.00  0.00    +0.157 C 
ATOM      2  C   UNL     1      -3.177   1.932  -3.220  0.00  0.00    +0.036 C 
ATOM      3  C   UNL     1      -3.939   2.232  -4.511  0.00  0.00    +0.039 C 
ATOM      4  C   UNL     1      -2.978   2.477  -5.645  0.00  0.00    -0.026 A 
ATOM      5  C   UNL     1      -3.419   3.171  -6.760  0.00  0.00    +0.005 A 
ATOM      6  C   UNL     1      -2.563   3.409  -7.817  0.00  0.00    +0.000 A 
ATOM      7  C   UNL     1      -1.258   2.954  -7.770  0.00  0.00    +0.002 A 
ATOM      8  C   UNL     1      -0.809   2.262  -6.663  0.00  0.00    +0.023 A 
ATOM      9  C   UNL     1      -1.669   2.023  -5.596  0.00  0.00    +0.031 A 
ATOM     10  N   UNL     1      -1.192   1.326  -4.480  0.00  0.00    -0.333 N 
ATOM     11  H   UNL     1      -0.241   1.180  -4.359  0.00  0.00    +0.147 HD
ENDROOT
BRANCH   1  18
ATOM     12  C   UNL     1      -1.392  -0.635  -0.029  0.00  0.00    +0.076 C 
ATOM     13  C   UNL     1      -1.260  -2.151   0.155  0.00  0.00    +0.022 C 
ATOM     14  C   UNL     1      -2.633  -2.804  -0.022  0.00  0.00    +0.003 C 
ATOM     15  C   UNL     1      -3.149  -2.533  -1.437  0.00  0.00    +0.019 C 
ATOM     16  C   UNL     1      -3.303  -1.022  -1.639  0.00  0.00    +0.108 C 
ATOM     17  N   UNL     1      -2.024  -0.368  -1.328  0.00  0.00    -0.297 N 
ATOM     18  C   UNL     1      -1.440   0.459  -2.218  0.00  0.00    +0.236 C 
ATOM     19  O   UNL     1      -0.339   0.913  -1.992  0.00  0.00    -0.274 OA
BRANCH  12  21
ATOM     20  C   UNL     1       0.650  -0.271   1.363  0.00  0.00    +0.006 C 
ATOM     21  C   UNL     1      -0.005   0.009   0.009  0.00  0.00    +0.019 C 
ENDBRANCH  12  21
ENDBRANCH   1  18
TORSDOF 2
