REMARK  Name = ZINC09114421
REMARK  10 active torsions:
REMARK  status: ('A' for Active; 'I' for Inactive)
REMARK    1  A    between atoms: C_1  and  N_53
REMARK    2  A    between atoms: C_2  and  C_3
REMARK    3  A    between atoms: C_2  and  N_53
REMARK    4  A    between atoms: C_14  and  C_15
REMARK    5  A    between atoms: C_14  and  N_53
REMARK    6  A    between atoms: N_17  and  C_18
REMARK    7  A    between atoms: N_17  and  C_24
REMARK    8  A    between atoms: C_18  and  C_19
REMARK    9  A    between atoms: C_27  and  O_30
REMARK   10  A    between atoms: O_30  and  C_31
REMARK                            x       y       z     vdW  Elec       q    Type
REMARK                         _______ _______ _______ _____ _____    ______ ____
ROOT
ATOM      1  C   UNL     1      -2.313   1.828  -0.824  0.00  0.00    +0.204 C 
ATOM      2  O   UNL     1      -2.719   1.390   0.232  0.00  0.00    -0.277 OA
ATOM      3  N   UNL     1      -3.161   1.982  -1.860  0.00  0.00    -0.268 N 
ENDROOT
BRANCH   3   4
ATOM      4  C   UNL     1      -4.487   1.542  -1.752  0.00  0.00    +0.037 A 
ATOM      5  C   UNL     1      -4.763   0.184  -1.670  0.00  0.00    +0.027 A 
ATOM      6  C   UNL     1      -6.070  -0.249  -1.558  0.00  0.00    +0.047 A 
ATOM      7  C   UNL     1      -7.107   0.672  -1.539  0.00  0.00    +0.120 A 
ATOM      8  C   UNL     1      -6.832   2.029  -1.625  0.00  0.00    +0.047 A 
ATOM      9  C   UNL     1      -5.525   2.463  -1.732  0.00  0.00    +0.027 A 
BRANCH   7  10
ATOM     10  O   UNL     1      -8.393   0.245  -1.434  0.00  0.00    -0.495 OA
ATOM     11  C   UNL     1      -8.604  -1.166  -1.349  0.00  0.00    +0.277 C 
ENDBRANCH   7  10
ENDBRANCH   3   4
BRANCH   1  12
ATOM     12  C   UNL     1      -0.861   2.199  -0.977  0.00  0.00    +0.019 C 
BRANCH  12  14
ATOM     13  C   UNL     1      -0.117   0.502   0.580  0.00  0.00    -0.095 C 
ATOM     14  N   UNL     1      -0.168   1.953   0.305  0.00  0.00    +0.388 N 
ATOM     15  H   UNL     1      -0.686   2.418   1.059  0.00  0.00    -0.081 HD
BRANCH  14  16
ATOM     16  C   UNL     1       1.202   2.506   0.253  0.00  0.00    -0.003 C 
BRANCH  16  17
ATOM     17  C   UNL     1       1.806   2.440   1.632  0.00  0.00    +0.094 A 
ATOM     18  N   UNL     1       3.065   2.918   1.810  0.00  0.00    -0.311 N 
ATOM     19  H   UNL     1       3.557   3.291   1.062  0.00  0.00    +0.170 HD
ATOM     20  C   UNL     1       3.626   2.869   3.042  0.00  0.00    +0.266 A 
ATOM     21  O   UNL     1       4.755   3.290   3.235  0.00  0.00    -0.267 OA
ATOM     22  C   UNL     1       2.877   2.323   4.085  0.00  0.00    +0.102 A 
ATOM     23  C   UNL     1       1.576   1.834   3.874  0.00  0.00    +0.085 A 
ATOM     24  N   UNL     1       1.097   1.935   2.590  0.00  0.00    -0.235 NA
ATOM     25  C   UNL     1       0.936   1.312   5.006  0.00  0.00    +0.036 A 
ATOM     26  C   UNL     1       1.569   1.302   6.199  0.00  0.00    +0.048 A 
ATOM     27  S   UNL     1       3.148   2.040   5.814  0.00  0.00    -0.090 S 
ENDBRANCH  16  17
ENDBRANCH  14  16
ENDBRANCH  12  14
ENDBRANCH   1  12
BRANCH   3  28
ATOM     28  C   UNL     1      -2.697   2.610  -3.100  0.00  0.00    +0.156 C 
BRANCH  28  29
ATOM     29  C   UNL     1      -2.156   1.552  -4.027  0.00  0.00    +0.007 A 
ATOM     30  C   UNL     1      -2.807   0.831  -4.972  0.00  0.00    +0.013 A 
ATOM     31  C   UNL     1      -2.099  -0.096  -5.714  0.00  0.00    +0.008 A 
ATOM     32  C   UNL     1      -0.775  -0.257  -5.474  0.00  0.00    +0.045 A 
ATOM     33  S   UNL     1      -0.489   0.928  -4.170  0.00  0.00    -0.100 S 
ENDBRANCH  28  29
ENDBRANCH   3  28
TORSDOF 8
