REMARK  Name = ZINC09867379
REMARK  11 active torsions:
REMARK  status: ('A' for Active; 'I' for Inactive)
REMARK    1  A    between atoms: C_1  and  C_2
REMARK    2  A    between atoms: C_2  and  C_3
REMARK    3  A    between atoms: C_3  and  C_5
REMARK    4  A    between atoms: C_3  and  C_6
REMARK    5  A    between atoms: C_11  and  O_12
REMARK    6  A    between atoms: O_12  and  C_13
REMARK    7  A    between atoms: C_13  and  C_15
REMARK    8  A    between atoms: C_13  and  C_16
REMARK    9  A    between atoms: N_18  and  C_19
REMARK   10  A    between atoms: C_23  and  N_26
REMARK   11  A    between atoms: C_24  and  C_25
REMARK                            x       y       z     vdW  Elec       q    Type
REMARK                         _______ _______ _______ _____ _____    ______ ____
ROOT
ATOM      1  C   UNL     1       5.610   2.541   1.014  0.00  0.00    +0.258 C 
ATOM      2  O   UNL     1       5.476   3.635   1.522  0.00  0.00    -0.271 OA
ATOM      3  N   UNL     1       6.777   1.878   1.141  0.00  0.00    -0.282 N 
ATOM      4  H   UNL     1       6.910   1.037   0.676  0.00  0.00    +0.155 HD
ENDROOT
BRANCH   3   5
ATOM      5  C   UNL     1       7.796   2.402   1.944  0.00  0.00    +0.039 A 
ATOM      6  C   UNL     1       7.970   3.777   2.038  0.00  0.00    +0.024 A 
ATOM      7  C   UNL     1       8.976   4.291   2.832  0.00  0.00    +0.004 A 
ATOM      8  C   UNL     1       9.811   3.439   3.531  0.00  0.00    +0.033 A 
ATOM      9  C   UNL     1       9.641   2.070   3.439  0.00  0.00    +0.131 A 
ATOM     10  C   UNL     1       8.633   1.549   2.651  0.00  0.00    +0.001 A 
ATOM     11  C   UNL     1       8.444   0.057   2.556  0.00  0.00    +0.048 C 
BRANCH   9  12
ATOM     12  N   UNL     1      10.537   1.161   4.189  0.00  0.00    +0.057 N 
ATOM     13  O   UNL     1      11.339   1.616   4.985  0.00  0.00    -0.126 OA
ATOM     14  O   UNL     1      10.472  -0.042   4.010  0.00  0.00    -0.126 OA
ENDBRANCH   9  12
ENDBRANCH   3   5
BRANCH   1  15
ATOM     15  C   UNL     1       4.473   1.925   0.242  0.00  0.00    +0.256 C 
ATOM     16  C   UNL     1       4.913   1.673  -1.201  0.00  0.00    +0.062 C 
BRANCH  15  17
ATOM     17  O   UNL     1       3.354   2.813   0.251  0.00  0.00    -0.480 OA
BRANCH  17  23
ATOM     18  C   UNL     1       0.988   3.046   0.341  0.00  0.00    -0.003 A 
ATOM     19  C   UNL     1      -0.268   2.471   0.314  0.00  0.00    +0.007 A 
ATOM     20  C   UNL     1      -0.399   1.102   0.170  0.00  0.00    +0.001 A 
ATOM     21  C   UNL     1       0.726   0.306   0.054  0.00  0.00    +0.004 A 
ATOM     22  C   UNL     1       1.983   0.876   0.080  0.00  0.00    +0.046 A 
ATOM     23  C   UNL     1       2.118   2.250   0.225  0.00  0.00    +0.125 A 
BRANCH  18  24
ATOM     24  C   UNL     1       1.131   4.539   0.497  0.00  0.00    +0.019 C 
ATOM     25  C   UNL     1       0.428   5.242  -0.666  0.00  0.00    +0.012 C 
BRANCH  24  27
ATOM     26  C   UNL     1       0.748   6.470   2.035  0.00  0.00    +0.004 C 
ATOM     27  C   UNL     1       0.495   4.976   1.818  0.00  0.00    +0.004 C 
ENDBRANCH  24  27
ENDBRANCH  18  24
ENDBRANCH  17  23
ENDBRANCH  15  17
ENDBRANCH   1  15
TORSDOF 7
