REMARK  Name = ZINC36156010
REMARK  14 active torsions:
REMARK  status: ('A' for Active; 'I' for Inactive)
REMARK    1  A    between atoms: C_1  and  C_2
REMARK    2  A    between atoms: C_2  and  C_3
REMARK    3  A    between atoms: C_2  and  C_4
REMARK    4  A    between atoms: C_2  and  O_5
REMARK    5  A    between atoms: O_5  and  C_6
REMARK    6  A    between atoms: C_6  and  C_7
REMARK    7  A    between atoms: C_7  and  C_9
REMARK    8  A    between atoms: C_7  and  O_35
REMARK    9  A    between atoms: C_9  and  N_10
REMARK   10  A    between atoms: N_10  and  C_11
REMARK   11  A    between atoms: N_10  and  C_19
REMARK   12  A    between atoms: C_11  and  C_12
REMARK   13  A    between atoms: C_12  and  N_13
REMARK   14  A    between atoms: C_19  and  C_20
REMARK                            x       y       z     vdW  Elec       q    Type
REMARK                         _______ _______ _______ _____ _____    ______ ____
ROOT
ATOM      1  N   UNL     1       4.800  -0.743  -4.033  0.00  0.00    +0.387 N 
ATOM      2  H   UNL     1       4.308  -1.590  -3.787  0.00  0.00    -0.081 HD
ENDROOT
BRANCH   1   3
ATOM      3  C   UNL     1       4.380   0.344  -3.139  0.00  0.00    -0.044 C 
BRANCH   3   4
ATOM      4  C   UNL     1       2.856   0.477  -3.178  0.00  0.00    +0.124 C 
BRANCH   4   5
ATOM      5  O   UNL     1       2.452   0.944  -4.466  0.00  0.00    -0.391 OA
ATOM      6  H   UNL     1       2.820   1.805  -4.706  0.00  0.00    +0.210 HD
ENDBRANCH   4   5
BRANCH   4   7
ATOM      7  C   UNL     1       2.404   1.474  -2.109  0.00  0.00    +0.189 C 
BRANCH   7   8
ATOM      8  O   UNL     1       0.976   1.512  -2.067  0.00  0.00    -0.372 OA
BRANCH   8  10
ATOM      9  C   UNL     1       0.927   3.837  -1.408  0.00  0.00    +0.041 C 
ATOM     10  C   UNL     1       0.447   2.418  -1.096  0.00  0.00    +0.061 C 
ATOM     11  C   UNL     1       0.930   2.011   0.298  0.00  0.00    +0.041 C 
ATOM     12  C   UNL     1      -1.082   2.375  -1.139  0.00  0.00    +0.041 C 
ENDBRANCH   8  10
ENDBRANCH   7   8
ENDBRANCH   4   7
ENDBRANCH   3   4
ENDBRANCH   1   3
BRANCH   1  13
ATOM     13  C   UNL     1       4.488  -0.383  -5.422  0.00  0.00    -0.063 C 
BRANCH  13  14
ATOM     14  C   UNL     1       5.106   0.979  -5.746  0.00  0.00    +0.066 C 
BRANCH  14  15
ATOM     15  N   UNL     1       4.704   1.390  -7.098  0.00  0.00    -0.300 NA
ATOM     16  C   UNL     1       5.284   0.499  -8.114  0.00  0.00    +0.112 C 
ATOM     17  C   UNL     1       4.793   0.926  -9.500  0.00  0.00    +0.175 C 
ATOM     18  O   UNL     1       5.137   2.296  -9.721  0.00  0.00    -0.377 OA
ATOM     19  C   UNL     1       4.588   3.192  -8.750  0.00  0.00    +0.175 C 
ATOM     20  C   UNL     1       5.077   2.788  -7.357  0.00  0.00    +0.112 C 
ENDBRANCH  14  15
ENDBRANCH  13  14
ENDBRANCH   1  13
BRANCH   1  21
ATOM     21  C   UNL     1       6.246  -0.960  -3.895  0.00  0.00    -0.003 C 
BRANCH  21  22
ATOM     22  C   UNL     1       6.649  -2.177  -4.686  0.00  0.00    +0.094 A 
ATOM     23  N   UNL     1       7.959  -2.532  -4.743  0.00  0.00    -0.312 N 
ATOM     24  H   UNL     1       8.617  -1.997  -4.273  0.00  0.00    +0.170 HD
ATOM     25  C   UNL     1       8.362  -3.612  -5.438  0.00  0.00    +0.260 A 
ATOM     26  O   UNL     1       9.541  -3.918  -5.478  0.00  0.00    -0.267 OA
ATOM     27  C   UNL     1       7.382  -4.397  -6.129  0.00  0.00    +0.075 A 
ATOM     28  C   UNL     1       7.585  -5.598  -6.938  0.00  0.00    -0.023 A 
ATOM     29  C   UNL     1       6.488  -6.158  -7.489  0.00  0.00    -0.004 A 
ATOM     30  S   UNL     1       5.138  -5.133  -6.968  0.00  0.00    -0.073 S 
ATOM     31  C   UNL     1       6.055  -3.953  -6.012  0.00  0.00    +0.116 A 
ATOM     32  N   UNL     1       5.732  -2.876  -5.301  0.00  0.00    -0.229 NA
ATOM     33  C   UNL     1       6.429  -7.381  -8.353  0.00  0.00    +0.043 C 
ATOM     34  C   UNL     1       7.851  -7.702  -8.834  0.00  0.00    +0.005 C 
ATOM     35  C   UNL     1       8.799  -7.652  -7.632  0.00  0.00    +0.005 C 
ATOM     36  C   UNL     1       8.967  -6.206  -7.163  0.00  0.00    +0.037 C 
ENDBRANCH  21  22
ENDBRANCH   1  21
TORSDOF 11
