REMARK  Name = ZINC39519160
REMARK  5 active torsions:
REMARK  status: ('A' for Active; 'I' for Inactive)
REMARK    1  A    between atoms: C_4  and  C_7
REMARK    2  A    between atoms: C_9  and  C_13
REMARK    3  A    between atoms: C_18  and  N_21
REMARK    4  A    between atoms: C_29  and  C_31
REMARK    5  A    between atoms: C_31  and  C_32
REMARK                            x       y       z     vdW  Elec       q    Type
REMARK                         _______ _______ _______ _____ _____    ______ ____
ROOT
ATOM      1  C   UNL     1       5.775  -3.000   1.163  0.00  0.00    +0.246 C 
ATOM      2  O   UNL     1       6.258  -2.403   2.101  0.00  0.00    -0.273 OA
ATOM      3  N   UNL     1       5.632  -4.339   1.217  0.00  0.00    -0.299 N 
ATOM      4  C   UNL     1       5.055  -5.077   0.086  0.00  0.00    +0.109 C 
ATOM      5  C   UNL     1       3.889  -5.930   0.597  0.00  0.00    +0.041 C 
ATOM      6  C   UNL     1       4.378  -6.819   1.743  0.00  0.00    +0.080 C 
ATOM      7  C   UNL     1       4.875  -5.942   2.894  0.00  0.00    +0.041 C 
ATOM      8  C   UNL     1       6.056  -5.090   2.407  0.00  0.00    +0.109 C 
ENDROOT
BRANCH   6   9
ATOM      9  N   UNL     1       3.274  -7.660   2.212  0.00  0.00    -0.294 N 
ATOM     10  C   UNL     1       2.057  -7.213   2.729  0.00  0.00    +0.122 A 
ATOM     11  C   UNL     1       1.261  -8.306   3.068  0.00  0.00    +0.067 A 
ATOM     12  C   UNL     1      -0.002  -8.085   3.604  0.00  0.00    +0.028 A 
ATOM     13  C   UNL     1      -0.425  -6.775   3.784  0.00  0.00    +0.019 A 
ATOM     14  C   UNL     1       0.415  -5.740   3.426  0.00  0.00    +0.084 A 
ATOM     15  N   UNL     1       1.609  -5.978   2.919  0.00  0.00    -0.348 N 
ATOM     16  N   UNL     1       1.938  -9.497   2.780  0.00  0.00    -0.323 N 
ATOM     17  C   UNL     1       3.243  -9.128   2.219  0.00  0.00    +0.160 C 
ATOM     18  H   UNL     1       1.606 -10.398   2.922  0.00  0.00    +0.148 HD
ATOM     19  H   UNL     1       2.176  -5.229   2.678  0.00  0.00    +0.167 HD
BRANCH  17  20
ATOM     20  C   UNL     1       4.368  -9.675   3.100  0.00  0.00    +0.045 C 
BRANCH  20  21
ATOM     21  C   UNL     1       4.400 -11.201   2.996  0.00  0.00    -0.008 C 
ATOM     22  C   UNL     1       3.136 -11.801   3.647  0.00  0.00    +0.003 C 
ATOM     23  C   UNL     1       3.640 -13.096   4.332  0.00  0.00    +0.000 C 
ATOM     24  C   UNL     1       5.028 -12.677   4.876  0.00  0.00    +0.000 C 
ATOM     25  C   UNL     1       5.603 -11.758   3.778  0.00  0.00    +0.003 C 
ENDBRANCH  20  21
ENDBRANCH  17  20
ENDBRANCH   6   9
BRANCH   1  28
ATOM     26  C   UNL     1       3.699  -0.689  -0.037  0.00  0.00    +0.092 C 
ATOM     27  C   UNL     1       3.832  -2.029  -0.051  0.00  0.00    +0.040 C 
ATOM     28  C   UNL     1       5.335  -2.245  -0.065  0.00  0.00    +0.238 C 
ATOM     29  N   UNL     1       5.871  -0.874  -0.056  0.00  0.00    -0.170 NA
ATOM     30  N   UNL     1       4.919  -0.090  -0.047  0.00  0.00    -0.153 NA
BRANCH  26  34
ATOM     31  C   UNL     1      -0.017   1.379   0.010  0.00  0.00    +0.000 A 
ATOM     32  C   UNL     1       1.169   2.092   0.002  0.00  0.00    +0.001 A 
ATOM     33  C   UNL     1       2.377   1.426  -0.013  0.00  0.00    +0.010 A 
ATOM     34  C   UNL     1       2.402   0.033  -0.021  0.00  0.00    +0.002 A 
ATOM     35  C   UNL     1       1.205  -0.680  -0.013  0.00  0.00    +0.010 A 
ATOM     36  C   UNL     1       0.002  -0.004   0.002  0.00  0.00    +0.001 A 
ENDBRANCH  26  34
ENDBRANCH   1  28
TORSDOF 5
