REMARK  Name = ZINC01217474
REMARK  7 active torsions:
REMARK  status: ('A' for Active; 'I' for Inactive)
REMARK    1  A    between atoms: C_1  and  C_2
REMARK    2  A    between atoms: C_7  and  O_8
REMARK    3  A    between atoms: O_8  and  C_9
REMARK    4  A    between atoms: C_9  and  C_11
REMARK    5  A    between atoms: C_9  and  C_12
REMARK    6  A    between atoms: N_14  and  C_15
REMARK    7  A    between atoms: C_16  and  C_24
REMARK                            x       y       z     vdW  Elec       q    Type
REMARK                         _______ _______ _______ _____ _____    ______ ____
ROOT
ATOM      1  C   UNL     1       1.135   1.822  -0.165  0.00  0.00    +0.258 C 
ATOM      2  O   UNL     1       1.200   3.017   0.032  0.00  0.00    -0.271 OA
ATOM      3  N   UNL     1      -0.065   1.231  -0.331  0.00  0.00    -0.276 N 
ATOM      4  H   UNL     1      -0.118   0.275  -0.488  0.00  0.00    +0.155 HD
ENDROOT
BRANCH   3   5
ATOM      5  C   UNL     1      -1.225   1.990  -0.281  0.00  0.00    +0.084 A 
ATOM      6  C   UNL     1      -2.538   1.569  -0.438  0.00  0.00    +0.068 A 
ATOM      7  C   UNL     1      -3.582   2.575  -0.336  0.00  0.00    -0.023 A 
ATOM      8  C   UNL     1      -3.148   3.833  -0.106  0.00  0.00    -0.004 A 
ATOM      9  S   UNL     1      -1.385   3.695  -0.017  0.00  0.00    -0.077 S 
ATOM     10  C   UNL     1      -3.986   5.066   0.038  0.00  0.00    +0.043 C 
ATOM     11  C   UNL     1      -5.396   4.756  -0.485  0.00  0.00    +0.005 C 
ATOM     12  C   UNL     1      -5.867   3.430   0.121  0.00  0.00    +0.005 C 
ATOM     13  C   UNL     1      -5.068   2.272  -0.479  0.00  0.00    +0.037 C 
BRANCH   6  14
ATOM     14  C   UNL     1      -2.861   0.162  -0.692  0.00  0.00    +0.244 C 
ATOM     15  O   UNL     1      -3.063  -0.594   0.241  0.00  0.00    -0.270 OA
ATOM     16  N   UNL     1      -2.932  -0.295  -1.957  0.00  0.00    -0.325 N 
ATOM     17  H   UNL     1      -2.771   0.307  -2.700  0.00  0.00    +0.145 HD
ATOM     18  H   UNL     1      -3.146  -1.226  -2.125  0.00  0.00    +0.145 HD
ENDBRANCH   6  14
ENDBRANCH   3   5
BRANCH   1  19
ATOM     19  C   UNL     1       2.395   0.998  -0.225  0.00  0.00    +0.256 C 
ATOM     20  C   UNL     1       2.414   0.010   0.943  0.00  0.00    +0.062 C 
BRANCH  19  21
ATOM     21  O   UNL     1       3.532   1.859  -0.139  0.00  0.00    -0.480 OA
BRANCH  21  28
ATOM     22  C   UNL     1       5.729   3.633  -0.182  0.00  0.00    +0.047 C 
ATOM     23  C   UNL     1       5.806   2.231  -0.730  0.00  0.00    -0.007 A 
ATOM     24  C   UNL     1       6.985   1.768  -1.281  0.00  0.00    +0.027 A 
ATOM     25  C   UNL     1       7.056   0.481  -1.784  0.00  0.00    +0.041 A 
ATOM     26  C   UNL     1       5.946  -0.345  -1.736  0.00  0.00    +0.023 A 
ATOM     27  C   UNL     1       4.767   0.114  -1.182  0.00  0.00    +0.047 A 
ATOM     28  C   UNL     1       4.692   1.405  -0.681  0.00  0.00    +0.125 A 
ATOM     29 CL   UNL     1       8.539  -0.099  -2.475  0.00  0.00    -0.084 Cl
ENDBRANCH  21  28
ENDBRANCH  19  21
ENDBRANCH   1  19
TORSDOF 5
