REMARK  Name = ZINC00888537
REMARK  12 active torsions:
REMARK  status: ('A' for Active; 'I' for Inactive)
REMARK    1  A    between atoms: C_1  and  C_2
REMARK    2  A    between atoms: C_5  and  C_7
REMARK    3  A    between atoms: N_10  and  C_12
REMARK    4  A    between atoms: C_12  and  C_13
REMARK    5  A    between atoms: N_15  and  C_16
REMARK    6  A    between atoms: N_15  and  C_25
REMARK    7  A    between atoms: C_16  and  C_17
REMARK    8  A    between atoms: C_20  and  O_23
REMARK    9  A    between atoms: O_23  and  C_24
REMARK   10  A    between atoms: C_25  and  C_27
REMARK   11  A    between atoms: C_25  and  C_32
REMARK   12  A    between atoms: N_34  and  C_35
REMARK                            x       y       z     vdW  Elec       q    Type
REMARK                         _______ _______ _______ _____ _____    ______ ____
ROOT
ATOM      1  C   UNL     1       6.397  -3.657  -0.296  0.00  0.00    +0.240 C 
ATOM      2  O   UNL     1       6.318  -2.462  -0.488  0.00  0.00    -0.273 OA
ATOM      3  N   UNL     1       6.906  -4.460  -1.251  0.00  0.00    -0.280 N 
ENDROOT
BRANCH   1   4
ATOM      4  C   UNL     1       5.927  -4.243   1.010  0.00  0.00    +0.264 C 
BRANCH   4   8
ATOM      5  C   UNL     1       5.660  -1.663   3.405  0.00  0.00    +0.239 A 
ATOM      6  N   UNL     1       4.409  -1.715   2.924  0.00  0.00    -0.105 NA
ATOM      7  N   UNL     1       4.383  -2.639   2.024  0.00  0.00    -0.045 NA
ATOM      8  N   UNL     1       5.556  -3.160   1.925  0.00  0.00    -0.154 N 
ATOM      9  N   UNL     1       6.353  -2.578   2.753  0.00  0.00    -0.127 NA
BRANCH   5  14
ATOM     10  C   UNL     1       8.768   0.590   6.641  0.00  0.00    +0.086 C 
ATOM     11  C   UNL     1       7.521   0.234   5.873  0.00  0.00    +0.103 A 
ATOM     12  C   UNL     1       6.314   0.813   6.025  0.00  0.00    +0.045 A 
ATOM     13  C   UNL     1       5.438   0.183   5.118  0.00  0.00    +0.053 A 
ATOM     14  C   UNL     1       6.166  -0.754   4.457  0.00  0.00    +0.175 A 
ATOM     15  O   UNL     1       7.429  -0.708   4.921  0.00  0.00    -0.457 OA
ENDBRANCH   5  14
ENDBRANCH   4   8
ENDBRANCH   1   4
BRANCH   3  16
ATOM     16  C   UNL     1       7.465  -3.881  -2.474  0.00  0.00    +0.144 C 
BRANCH  16  17
ATOM     17  C   UNL     1       8.868  -3.398  -2.206  0.00  0.00    -0.030 A 
ATOM     18  C   UNL     1       9.072  -2.163  -1.619  0.00  0.00    +0.009 A 
ATOM     19  C   UNL     1      10.356  -1.718  -1.372  0.00  0.00    +0.046 A 
ATOM     20  C   UNL     1      11.442  -2.513  -1.713  0.00  0.00    +0.120 A 
ATOM     21  C   UNL     1      11.234  -3.752  -2.301  0.00  0.00    +0.046 A 
ATOM     22  C   UNL     1       9.947  -4.194  -2.541  0.00  0.00    +0.009 A 
BRANCH  20  23
ATOM     23  O   UNL     1      12.706  -2.077  -1.472  0.00  0.00    -0.495 OA
ATOM     24  C   UNL     1      13.775  -2.947  -1.848  0.00  0.00    +0.277 C 
ENDBRANCH  20  23
ENDBRANCH  16  17
ENDBRANCH   3  16
BRANCH   3  25
ATOM     25  C   UNL     1       6.899  -5.914  -1.065  0.00  0.00    +0.199 C 
BRANCH  25  26
ATOM     26  C   UNL     1       5.689  -6.501  -1.745  0.00  0.00    +0.019 A 
ATOM     27  C   UNL     1       4.832  -7.449  -1.294  0.00  0.00    +0.013 A 
ATOM     28  C   UNL     1       3.778  -7.838  -2.099  0.00  0.00    +0.008 A 
ATOM     29  C   UNL     1       3.632  -7.261  -3.316  0.00  0.00    +0.045 A 
ATOM     30  S   UNL     1       5.008  -6.123  -3.352  0.00  0.00    -0.099 S 
ENDBRANCH  25  26
BRANCH  25  31
ATOM     31  C   UNL     1       8.149  -6.503  -1.667  0.00  0.00    +0.239 C 
ATOM     32  O   UNL     1       8.304  -6.496  -2.869  0.00  0.00    -0.273 OA
ATOM     33  N   UNL     1       9.093  -7.038  -0.868  0.00  0.00    -0.311 N 
ATOM     34  H   UNL     1       8.968  -7.044   0.094  0.00  0.00    +0.149 HD
BRANCH  33  35
ATOM     35  C   UNL     1      10.308  -7.611  -1.452  0.00  0.00    +0.073 C 
ATOM     36  C   UNL     1      10.042  -9.061  -1.863  0.00  0.00    +0.022 C 
ATOM     37  C   UNL     1      11.311  -9.659  -2.473  0.00  0.00    +0.002 C 
ATOM     38  C   UNL     1      12.441  -9.620  -1.442  0.00  0.00    +0.000 C 
ATOM     39  C   UNL     1      12.707  -8.170  -1.032  0.00  0.00    +0.002 C 
ATOM     40  C   UNL     1      11.438  -7.572  -0.421  0.00  0.00    +0.022 C 
ENDBRANCH  33  35
ENDBRANCH  25  31
ENDBRANCH   3  25
TORSDOF 10
