REMARK  Name = ZINC37264133
REMARK  11 active torsions:
REMARK  status: ('A' for Active; 'I' for Inactive)
REMARK    1  A    between atoms: C_1  and  C_2
REMARK    2  A    between atoms: C_2  and  C_3
REMARK    3  A    between atoms: C_3  and  N_4
REMARK    4  A    between atoms: C_5  and  C_7
REMARK    5  A    between atoms: C_7  and  N_8
REMARK    6  A    between atoms: C_11  and  C_21
REMARK    7  A    between atoms: N_13  and  C_14
REMARK    8  A    between atoms: C_21  and  C_22
REMARK    9  A    between atoms: C_21  and  C_23
REMARK   10  A    between atoms: C_21  and  C_24
REMARK   11  A    between atoms: C_25  and  C_31
REMARK                            x       y       z     vdW  Elec       q    Type
REMARK                         _______ _______ _______ _____ _____    ______ ____
ROOT
ATOM      1  N   UNL     1       3.427 -10.584  -5.907  0.00  0.00    -0.246 N 
ATOM      2  C   UNL     1       2.792  -9.349  -6.102  0.00  0.00    +0.136 A 
ATOM      3  C   UNL     1       1.953  -9.087  -7.131  0.00  0.00    +0.034 A 
ATOM      4  C   UNL     1       1.520  -7.766  -7.006  0.00  0.00    +0.075 A 
ATOM      5  N   UNL     1       2.077  -7.251  -5.936  0.00  0.00    -0.169 NA
ATOM      6  N   UNL     1       2.886  -8.232  -5.342  0.00  0.00    -0.218 N 
ATOM      7  C   UNL     1       1.571 -10.075  -8.203  0.00  0.00    +0.115 C 
ATOM      8  S   UNL     1       2.997 -10.297  -9.326  0.00  0.00    -0.138 S 
ATOM      9  C   UNL     1       4.396 -10.335  -8.155  0.00  0.00    +0.166 C 
ATOM     10  C   UNL     1       4.056 -11.147  -6.944  0.00  0.00    +0.231 C 
ATOM     11  O   UNL     1       4.351 -12.323  -6.905  0.00  0.00    -0.274 OA
ENDROOT
BRANCH   6  12
ATOM     12  C   UNL     1       3.651  -8.084  -4.177  0.00  0.00    +0.069 A 
ATOM     13  C   UNL     1       4.942  -8.592  -4.123  0.00  0.00    +0.028 A 
ATOM     14  C   UNL     1       5.694  -8.444  -2.974  0.00  0.00    +0.003 A 
ATOM     15  C   UNL     1       5.163  -7.790  -1.877  0.00  0.00    +0.020 A 
ATOM     16  C   UNL     1       3.877  -7.282  -1.927  0.00  0.00    +0.043 A 
ATOM     17  C   UNL     1       3.122  -7.423  -3.077  0.00  0.00    +0.047 A 
ATOM     18 CL   UNL     1       3.214  -6.463  -0.548  0.00  0.00    -0.083 Cl
ENDBRANCH   6  12
BRANCH   7  19
ATOM     19  C   UNL     1       0.389  -9.551  -8.977  0.00  0.00    +0.005 A 
ATOM     20  C   UNL     1       0.590  -8.784 -10.110  0.00  0.00    +0.008 A 
ATOM     21  C   UNL     1      -0.494  -8.303 -10.820  0.00  0.00    +0.000 A 
ATOM     22  C   UNL     1      -1.780  -8.588 -10.399  0.00  0.00    +0.003 A 
ATOM     23  C   UNL     1      -1.982  -9.354  -9.267  0.00  0.00    +0.038 A 
ATOM     24  C   UNL     1      -0.898  -9.841  -8.558  0.00  0.00    +0.128 A 
ATOM     25  F   UNL     1      -1.095 -10.595  -7.454  0.00  0.00    -0.205 F 
ENDBRANCH   7  19
BRANCH   4  26
ATOM     26  C   UNL     1       0.576  -7.054  -7.940  0.00  0.00    +0.007 C 
ATOM     27  C   UNL     1      -0.754  -7.809  -7.994  0.00  0.00    +0.017 C 
ATOM     28  C   UNL     1       0.334  -5.631  -7.433  0.00  0.00    +0.017 C 
ATOM     29  C   UNL     1       1.189  -6.999  -9.340  0.00  0.00    +0.017 C 
ENDBRANCH   4  26
BRANCH   1  30
ATOM     30  C   UNL     1       3.408 -11.239  -4.597  0.00  0.00    +0.210 C 
BRANCH  30  32
ATOM     31  N   UNL     1       1.861 -12.662  -3.293  0.00  0.00    -0.314 N 
ATOM     32  C   UNL     1       2.146 -12.051  -4.460  0.00  0.00    +0.231 C 
ATOM     33  O   UNL     1       1.386 -12.154  -5.400  0.00  0.00    -0.274 OA
ATOM     34  H   UNL     1       2.429 -12.520  -2.520  0.00  0.00    +0.149 HD
BRANCH  31  35
ATOM     35  C   UNL     1       0.693 -13.540  -3.192  0.00  0.00    +0.104 C 
BRANCH  35  37
ATOM     36  C   UNL     1      -0.552 -15.116  -1.706  0.00  0.00    +0.005 C 
ATOM     37  C   UNL     1       0.668 -14.199  -1.811  0.00  0.00    +0.015 C 
ENDBRANCH  35  37
ENDBRANCH  31  35
ENDBRANCH  30  32
ENDBRANCH   1  30
TORSDOF 7
