REMARK  Name = ZINC12150326
REMARK  7 active torsions:
REMARK  status: ('A' for Active; 'I' for Inactive)
REMARK    1  A    between atoms: C_1  and  C_2
REMARK    2  A    between atoms: C_2  and  C_33
REMARK    3  A    between atoms: C_4  and  N_65
REMARK    4  A    between atoms: C_9  and  N_65
REMARK    5  A    between atoms: N_12  and  C_15
REMARK    6  A    between atoms: C_18  and  N_21
REMARK    7  A    between atoms: C_22  and  C_24
REMARK                            x       y       z     vdW  Elec       q    Type
REMARK                         _______ _______ _______ _____ _____    ______ ____
ROOT
ATOM      1  C   UNL     1      -4.678  -0.400   0.291  0.00  0.00    +0.030 A 
ATOM      2  C   UNL     1      -4.755   0.984   0.203  0.00  0.00    +0.025 A 
ATOM      3  C   UNL     1      -3.601   1.735   0.113  0.00  0.00    +0.025 A 
ATOM      4  C   UNL     1      -2.362   1.107   0.110  0.00  0.00    +0.034 A 
ATOM      5  C   UNL     1      -2.285  -0.277   0.192  0.00  0.00    +0.025 A 
ATOM      6  C   UNL     1      -3.440  -1.028   0.287  0.00  0.00    +0.025 A 
ENDROOT
BRANCH   1  10
ATOM      7  C   UNL     1      -7.807  -3.119  -0.438  0.00  0.00    -0.069 C 
ATOM      8  C   UNL     1      -6.827  -3.383   0.709  0.00  0.00    +0.003 C 
ATOM      9  C   UNL     1      -5.539  -2.594   0.464  0.00  0.00    +0.103 C 
ATOM     10  N   UNL     1      -5.848  -1.161   0.382  0.00  0.00    -0.330 N 
ATOM     11  C   UNL     1      -6.750  -0.877  -0.741  0.00  0.00    +0.103 C 
ATOM     12  C   UNL     1      -8.075  -1.614  -0.533  0.00  0.00    +0.003 C 
BRANCH   7  13
ATOM     13  N   UNL     1      -9.071  -3.829  -0.170  0.00  0.00    +0.383 N 
ATOM     14  H   UNL     1      -8.867  -4.717   0.304  0.00  0.00    -0.085 HD
ATOM     15  H   UNL     1      -9.665  -3.248   0.433  0.00  0.00    -0.085 HD
BRANCH  13  19
ATOM     16  C   UNL     1     -11.839  -3.492  -3.458  0.00  0.00    +0.041 C 
ATOM     17  C   UNL     1     -12.004  -4.626  -2.444  0.00  0.00    +0.063 C 
ATOM     18  C   UNL     1     -11.279  -4.259  -1.147  0.00  0.00    +0.019 C 
ATOM     19  C   UNL     1      -9.782  -4.105  -1.433  0.00  0.00    -0.067 C 
ATOM     20  C   UNL     1      -9.254  -5.405  -2.046  0.00  0.00    +0.012 C 
ATOM     21  C   UNL     1     -10.057  -5.728  -3.309  0.00  0.00    +0.159 C 
ATOM     22  O   UNL     1     -11.444  -5.827  -2.978  0.00  0.00    -0.374 OA
ATOM     23  C   UNL     1     -13.491  -4.840  -2.155  0.00  0.00    +0.041 C 
ENDBRANCH  13  19
ENDBRANCH   7  13
ENDBRANCH   1  10
BRANCH   4  24
ATOM     24  N   UNL     1      -1.191   1.870   0.018  0.00  0.00    -0.281 N 
ATOM     25  C   UNL     1      -1.125   3.079   0.610  0.00  0.00    +0.248 C 
ATOM     26  O   UNL     1      -2.110   3.545   1.151  0.00  0.00    -0.270 OA
ATOM     27  H   UNL     1      -0.426   1.527  -0.471  0.00  0.00    +0.155 HD
BRANCH  25  28
ATOM     28  C   UNL     1       0.142   3.835   0.606  0.00  0.00    +0.041 A 
ATOM     29  C   UNL     1       1.276   3.299  -0.011  0.00  0.00    +0.017 A 
ATOM     30  C   UNL     1       2.457   4.008  -0.018  0.00  0.00    +0.050 A 
ATOM     31  C   UNL     1       2.528   5.252   0.596  0.00  0.00    +0.166 A 
ATOM     32  C   UNL     1       1.401   5.790   1.218  0.00  0.00    +0.167 A 
ATOM     33  C   UNL     1       0.213   5.086   1.224  0.00  0.00    +0.062 A 
ATOM     34  O   UNL     1       1.732   7.008   1.739  0.00  0.00    -0.453 OA
ATOM     35  C   UNL     1       3.171   7.027   1.787  0.00  0.00    +0.466 C 
ATOM     36  O   UNL     1       3.561   6.133   0.728  0.00  0.00    -0.453 OA
ENDBRANCH  25  28
ENDBRANCH   4  24
TORSDOF 5
