REMARK  Name = ZINC18408542
REMARK  13 active torsions:
REMARK  status: ('A' for Active; 'I' for Inactive)
REMARK    1  A    between atoms: C_1  and  C_2
REMARK    2  A    between atoms: C_5  and  S_8
REMARK    3  A    between atoms: S_8  and  N_11
REMARK    4  A    between atoms: N_11  and  C_12
REMARK    5  A    between atoms: C_12  and  C_14
REMARK    6  A    between atoms: C_12  and  C_17
REMARK    7  A    between atoms: C_14  and  C_15
REMARK    8  A    between atoms: C_14  and  C_16
REMARK    9  A    between atoms: C_17  and  O_19
REMARK   10  A    between atoms: O_19  and  C_20
REMARK   11  A    between atoms: C_20  and  C_21
REMARK   12  A    between atoms: N_23  and  C_24
REMARK   13  A    between atoms: C_25  and  C_33
REMARK                            x       y       z     vdW  Elec       q    Type
REMARK                         _______ _______ _______ _____ _____    ______ ____
ROOT
ATOM      1  C   UNL     1      -3.628   9.688  -5.318  0.00  0.00    +0.327 C 
ATOM      2  O   UNL     1      -3.831  10.626  -4.583  0.00  0.00    -0.249 OA
ENDROOT
BRANCH   1   3
ATOM      3  C   UNL     1      -3.955   9.796  -6.785  0.00  0.00    +0.187 C 
BRANCH   3   4
ATOM      4  C   UNL     1      -2.683   9.583  -7.608  0.00  0.00    +0.012 C 
ATOM      5  C   UNL     1      -1.612  10.580  -7.159  0.00  0.00    +0.009 C 
ATOM      6  C   UNL     1      -2.172   8.156  -7.397  0.00  0.00    +0.009 C 
ENDBRANCH   3   4
BRANCH   3   7
ATOM      7  N   UNL     1      -4.502  11.126  -7.067  0.00  0.00    -0.176 NA
ATOM      8  H   UNL     1      -4.166  11.900  -6.588  0.00  0.00    +0.149 HD
BRANCH   7   9
ATOM      9  S   UNL     1      -5.693  11.307  -8.203  0.00  0.00    +0.059 S 
ATOM     10  O   UNL     1      -6.045  12.684  -8.206  0.00  0.00    -0.153 OA
ATOM     11  O   UNL     1      -5.247  10.632  -9.371  0.00  0.00    -0.153 OA
BRANCH   9  16
ATOM     12  C   UNL     1     -10.529   8.296  -6.214  0.00  0.00    +0.044 C 
ATOM     13  C   UNL     1      -9.321   9.048  -6.711  0.00  0.00    -0.050 A 
ATOM     14  C   UNL     1      -9.151  10.379  -6.378  0.00  0.00    +0.005 A 
ATOM     15  C   UNL     1      -8.043  11.069  -6.834  0.00  0.00    +0.029 A 
ATOM     16  C   UNL     1      -7.105  10.428  -7.622  0.00  0.00    +0.105 A 
ATOM     17  C   UNL     1      -7.278   9.098  -7.959  0.00  0.00    +0.029 A 
ATOM     18  C   UNL     1      -8.384   8.407  -7.499  0.00  0.00    +0.005 A 
ENDBRANCH   9  16
ENDBRANCH   7   9
ENDBRANCH   3   7
ENDBRANCH   1   3
BRANCH   1  19
ATOM     19  O   UNL     1      -3.111   8.551  -4.827  0.00  0.00    -0.454 OA
BRANCH  19  20
ATOM     20  C   UNL     1      -2.821   8.518  -3.405  0.00  0.00    +0.328 C 
BRANCH  20  21
ATOM     21  C   UNL     1      -2.252   7.172  -3.039  0.00  0.00    +0.255 C 
ATOM     22  O   UNL     1      -2.105   6.323  -3.893  0.00  0.00    -0.272 OA
ATOM     23  N   UNL     1      -1.905   6.910  -1.763  0.00  0.00    -0.276 N 
ATOM     24  H   UNL     1      -2.023   7.589  -1.080  0.00  0.00    +0.155 HD
BRANCH  23  25
ATOM     25  C   UNL     1      -1.381   5.670  -1.426  0.00  0.00    +0.090 A 
ATOM     26  C   UNL     1      -0.970   5.218  -0.181  0.00  0.00    +0.084 A 
ATOM     27  C   UNL     1      -0.453   3.863  -0.096  0.00  0.00    -0.018 A 
ATOM     28  C   UNL     1      -0.428   3.182  -1.263  0.00  0.00    -0.004 A 
ATOM     29  S   UNL     1      -1.081   4.312  -2.459  0.00  0.00    -0.077 S 
ATOM     30  C   UNL     1       0.049   1.779  -1.479  0.00  0.00    +0.043 C 
ATOM     31  C   UNL     1       0.859   1.348  -0.248  0.00  0.00    +0.005 C 
ATOM     32  C   UNL     1       0.070   1.705   1.015  0.00  0.00    +0.005 C 
ATOM     33  C   UNL     1       0.036   3.223   1.197  0.00  0.00    +0.037 C 
BRANCH  26  34
ATOM     34  C   UNL     1      -1.054   6.055   0.977  0.00  0.00    +0.102 C 
ATOM     35  N   UNL     1      -1.120   6.720   1.896  0.00  0.00    -0.191 NA
ENDBRANCH  26  34
ENDBRANCH  23  25
ENDBRANCH  20  21
ENDBRANCH  19  20
ENDBRANCH   1  19
TORSDOF 10
