REMARK  Name = ZINC15369088
REMARK  3 active torsions:
REMARK  status: ('A' for Active; 'I' for Inactive)
REMARK    1  A    between atoms: C_3  and  C_22
REMARK    2  A    between atoms: C_6  and  C_7
REMARK    3  A    between atoms: C_7  and  N_8
REMARK                            x       y       z     vdW  Elec       q    Type
REMARK                         _______ _______ _______ _____ _____    ______ ____
ROOT
ATOM      1  N   UNL     1      -2.901  -1.058   3.294  0.00  0.00    -0.220 N 
ATOM      2  C   UNL     1      -1.905  -0.646   2.481  0.00  0.00    +0.247 C 
ATOM      3  O   UNL     1      -0.713  -0.718   2.685  0.00  0.00    -0.273 OA
ATOM      4  C   UNL     1      -2.593  -0.075   1.263  0.00  0.00    +0.113 C 
ATOM      5  C   UNL     1      -2.241   1.402   1.097  0.00  0.00    +0.035 C 
ATOM      6  C   UNL     1      -0.729   1.579   1.267  0.00  0.00    +0.003 C 
ATOM      7  C   UNL     1      -0.013   1.086   0.008  0.00  0.00    +0.000 C 
ATOM      8  C   UNL     1      -0.753   1.593  -1.232  0.00  0.00    +0.000 C 
ATOM      9  C   UNL     1      -1.371   0.407  -1.978  0.00  0.00    +0.000 C 
ATOM     10  C   UNL     1      -2.618  -0.070  -1.233  0.00  0.00    +0.003 C 
ATOM     11  C   UNL     1      -2.195  -0.854   0.011  0.00  0.00    +0.035 C 
ATOM     12  N   UNL     1      -4.022  -0.240   1.545  0.00  0.00    -0.285 N 
ATOM     13  C   UNL     1      -4.105  -0.825   2.756  0.00  0.00    +0.310 C 
ATOM     14  O   UNL     1      -5.154  -1.108   3.300  0.00  0.00    -0.252 OA
ATOM     15  H   UNL     1      -4.762   0.021   0.974  0.00  0.00    +0.151 HD
ENDROOT
BRANCH   1  16
ATOM     16  C   UNL     1      -2.691  -1.683   4.602  0.00  0.00    +0.153 C 
BRANCH  16  22
ATOM     17  C   UNL     1      -3.730  -3.958   4.508  0.00  0.00    +0.006 A 
ATOM     18  C   UNL     1      -3.640  -5.328   4.350  0.00  0.00    +0.013 A 
ATOM     19  C   UNL     1      -2.410  -5.919   4.127  0.00  0.00    +0.055 A 
ATOM     20  C   UNL     1      -1.271  -5.139   4.058  0.00  0.00    +0.013 A 
ATOM     21  C   UNL     1      -1.362  -3.768   4.212  0.00  0.00    +0.006 A 
ATOM     22  C   UNL     1      -2.592  -3.177   4.434  0.00  0.00    -0.030 A 
BRANCH  19  23
ATOM     23  C   UNL     1      -2.312  -7.413   3.959  0.00  0.00    +0.417 C 
ATOM     24  F   UNL     1      -2.110  -8.011   5.207  0.00  0.00    -0.166 F 
ATOM     25  F   UNL     1      -3.497  -7.898   3.396  0.00  0.00    -0.166 F 
ATOM     26  F   UNL     1      -1.236  -7.717   3.117  0.00  0.00    -0.166 F 
ENDBRANCH  19  23
ENDBRANCH  16  22
ENDBRANCH   1  16
TORSDOF 3
