REMARK  Name = ZINC36502069
REMARK  17 active torsions:
REMARK  status: ('A' for Active; 'I' for Inactive)
REMARK    1  A    between atoms: C_1  and  C_2
REMARK    2  A    between atoms: C_2  and  C_4
REMARK    3  A    between atoms: C_2  and  C_10
REMARK    4  A    between atoms: C_10  and  C_12
REMARK    5  A    between atoms: C_10  and  N_23
REMARK    6  A    between atoms: N_14  and  C_15
REMARK    7  A    between atoms: C_15  and  C_16
REMARK    8  A    between atoms: C_15  and  C_17
REMARK    9  A    between atoms: C_15  and  C_18
REMARK   10  A    between atoms: C_18  and  C_19
REMARK   11  A    between atoms: C_19  and  C_20
REMARK   12  A    between atoms: C_19  and  C_21
REMARK   13  A    between atoms: C_19  and  C_22
REMARK   14  A    between atoms: N_23  and  C_24
REMARK   15  A    between atoms: C_24  and  C_25
REMARK   16  A    between atoms: C_30  and  C_32
REMARK   17  A    between atoms: C_32  and  C_33
REMARK                            x       y       z     vdW  Elec       q    Type
REMARK                         _______ _______ _______ _____ _____    ______ ____
ROOT
ATOM      1  C   UNL     1       2.418  -1.826  -0.931  0.00  0.00    +0.169 C 
ENDROOT
BRANCH   1   2
ATOM      2  C   UNL     1       1.332  -2.705  -0.367  0.00  0.00    +0.235 C 
ATOM      3  O   UNL     1       0.343  -2.946  -1.026  0.00  0.00    -0.274 OA
ATOM      4  N   UNL     1       1.459  -3.224   0.870  0.00  0.00    -0.309 N 
ATOM      5  H   UNL     1       2.283  -3.099   1.366  0.00  0.00    +0.149 HD
BRANCH   4   6
ATOM      6  C   UNL     1       0.353  -3.978   1.466  0.00  0.00    +0.030 C 
ATOM      7  C   UNL     1      -0.635  -3.006   2.114  0.00  0.00    +0.031 C 
ATOM      8  C   UNL     1      -0.361  -4.782   0.378  0.00  0.00    +0.031 C 
BRANCH   6   9
ATOM      9  C   UNL     1       0.901  -4.933   2.529  0.00  0.00    +0.031 C 
BRANCH   9  10
ATOM     10  C   UNL     1       2.361  -5.263   2.215  0.00  0.00    -0.036 C 
ATOM     11  C   UNL     1       3.256  -4.111   2.678  0.00  0.00    +0.010 C 
ATOM     12  C   UNL     1       2.763  -6.546   2.945  0.00  0.00    +0.010 C 
ATOM     13  C   UNL     1       2.526  -5.461   0.707  0.00  0.00    +0.010 C 
ENDBRANCH   9  10
ENDBRANCH   6   9
ENDBRANCH   4   6
ENDBRANCH   1   2
BRANCH   1  14
ATOM     14  N   UNL     1       2.175  -1.604  -2.358  0.00  0.00    -0.282 N 
ATOM     15  C   UNL     1       3.092  -1.992  -3.266  0.00  0.00    +0.221 C 
ATOM     16  O   UNL     1       4.119  -2.524  -2.902  0.00  0.00    -0.275 OA
BRANCH  14  17
ATOM     17  C   UNL     1       0.934  -0.961  -2.799  0.00  0.00    +0.182 C 
BRANCH  17  18
ATOM     18  C   UNL     1       1.136   0.531  -2.859  0.00  0.00    +0.122 A 
ATOM     19  C   UNL     1       1.560   1.225  -3.930  0.00  0.00    +0.046 A 
ATOM     20  C   UNL     1       1.605   2.585  -3.546  0.00  0.00    +0.041 A 
ATOM     21  C   UNL     1       1.206   2.641  -2.263  0.00  0.00    +0.195 A 
ATOM     22  O   UNL     1       0.917   1.395  -1.854  0.00  0.00    -0.466 OA
ENDBRANCH  17  18
ENDBRANCH  14  17
BRANCH  15  23
ATOM     23  C   UNL     1       2.842  -1.763  -4.735  0.00  0.00    +0.131 C 
BRANCH  23  24
ATOM     24  C   UNL     1       4.011  -2.283  -5.530  0.00  0.00    -0.035 A 
ATOM     25  C   UNL     1       5.078  -1.450  -5.813  0.00  0.00    +0.008 A 
ATOM     26  C   UNL     1       6.153  -1.923  -6.542  0.00  0.00    +0.050 A 
ATOM     27  C   UNL     1       6.164  -3.233  -6.992  0.00  0.00    +0.166 A 
ATOM     28  C   UNL     1       5.089  -4.072  -6.707  0.00  0.00    +0.166 A 
ATOM     29  C   UNL     1       4.018  -3.594  -5.971  0.00  0.00    +0.053 A 
ATOM     30  O   UNL     1       5.336  -5.298  -7.254  0.00  0.00    -0.453 OA
ATOM     31  C   UNL     1       6.381  -5.085  -8.221  0.00  0.00    +0.466 C 
ATOM     32  O   UNL     1       7.084  -3.934  -7.717  0.00  0.00    -0.453 OA
ENDBRANCH  23  24
ENDBRANCH  15  23
ENDBRANCH   1  14
BRANCH   1  34
ATOM     33  C   UNL     1       3.441   0.452  -0.847  0.00  0.00    +0.015 C 
ATOM     34  C   UNL     1       2.418  -0.482  -0.199  0.00  0.00    +0.045 C 
BRANCH  34  35
ATOM     35  C   UNL     1       2.781  -0.699   1.248  0.00  0.00    -0.042 A 
ATOM     36  C   UNL     1       3.998  -1.267   1.577  0.00  0.00    +0.004 A 
ATOM     37  C   UNL     1       4.332  -1.465   2.904  0.00  0.00    +0.000 A 
ATOM     38  C   UNL     1       3.449  -1.095   3.901  0.00  0.00    +0.000 A 
ATOM     39  C   UNL     1       2.233  -0.526   3.572  0.00  0.00    +0.000 A 
ATOM     40  C   UNL     1       1.901  -0.324   2.245  0.00  0.00    +0.004 A 
ENDBRANCH  34  35
ENDBRANCH   1  34
TORSDOF 11
