REMARK  Name = ZINC41078079
REMARK  10 active torsions:
REMARK  status: ('A' for Active; 'I' for Inactive)
REMARK    1  A    between atoms: C_1  and  C_2
REMARK    2  A    between atoms: C_2  and  C_3
REMARK    3  A    between atoms: C_3  and  N_4
REMARK    4  A    between atoms: N_4  and  C_5
REMARK    5  A    between atoms: C_5  and  C_6
REMARK    6  A    between atoms: C_15  and  C_19
REMARK    7  A    between atoms: C_17  and  C_18
REMARK    8  A    between atoms: N_22  and  C_23
REMARK    9  A    between atoms: C_28  and  O_29
REMARK   10  A    between atoms: O_29  and  C_30
REMARK                            x       y       z     vdW  Elec       q    Type
REMARK                         _______ _______ _______ _____ _____    ______ ____
ROOT
ATOM      1  N   UNL     1       0.623  -2.288   1.347  0.00  0.00    -0.281 N 
ATOM      2  C   UNL     1      -0.406  -2.937   1.926  0.00  0.00    +0.307 C 
ATOM      3  O   UNL     1      -0.453  -4.152   1.895  0.00  0.00    -0.252 OA
ATOM      4  N   UNL     1      -1.383  -2.240   2.540  0.00  0.00    -0.266 N 
ATOM      5  H   UNL     1      -1.313  -1.276   2.620  0.00  0.00    +0.156 HD
ENDROOT
BRANCH   4   6
ATOM      6  C   UNL     1      -2.499  -2.908   3.062  0.00  0.00    +0.077 A 
ATOM      7  C   UNL     1      -2.365  -4.192   3.572  0.00  0.00    +0.027 A 
ATOM      8  C   UNL     1      -3.467  -4.848   4.086  0.00  0.00    +0.002 A 
ATOM      9  C   UNL     1      -4.704  -4.230   4.095  0.00  0.00    +0.004 A 
ATOM     10  C   UNL     1      -4.844  -2.951   3.588  0.00  0.00    +0.047 A 
ATOM     11  C   UNL     1      -3.743  -2.283   3.076  0.00  0.00    +0.141 A 
BRANCH  11  12
ATOM     12  O   UNL     1      -3.879  -1.023   2.583  0.00  0.00    -0.493 OA
ATOM     13  C   UNL     1      -5.185  -0.445   2.631  0.00  0.00    +0.277 C 
ENDBRANCH  11  12
ENDBRANCH   4   6
BRANCH   1  14
ATOM     14  C   UNL     1       0.681  -0.825   1.385  0.00  0.00    +0.109 C 
BRANCH  14  16
ATOM     15  C   UNL     1       0.097   1.272   0.157  0.00  0.00    +0.005 C 
ATOM     16  C   UNL     1       0.037  -0.257   0.118  0.00  0.00    +0.016 C 
ENDBRANCH  14  16
ENDBRANCH   1  14
BRANCH   1  17
ATOM     17  C   UNL     1       1.685  -3.046   0.680  0.00  0.00    +0.145 C 
BRANCH  17  18
ATOM     18  C   UNL     1       2.725  -3.452   1.692  0.00  0.00    -0.016 A 
ATOM     19  C   UNL     1       2.660  -4.659   2.306  0.00  0.00    +0.076 A 
ATOM     20  C   UNL     1       3.639  -5.029   3.253  0.00  0.00    +0.249 A 
ATOM     21  O   UNL     1       3.563  -6.119   3.793  0.00  0.00    -0.268 OA
ATOM     22  N   UNL     1       4.655  -4.208   3.574  0.00  0.00    -0.322 N 
ATOM     23  H   UNL     1       5.311  -4.494   4.229  0.00  0.00    +0.169 HD
ATOM     24  C   UNL     1       4.778  -2.968   2.986  0.00  0.00    +0.052 A 
ATOM     25  C   UNL     1       3.830  -2.554   2.031  0.00  0.00    +0.004 A 
ATOM     26  C   UNL     1       3.954  -1.298   1.427  0.00  0.00    +0.013 A 
ATOM     27  C   UNL     1       4.997  -0.483   1.764  0.00  0.00    -0.050 A 
ATOM     28  C   UNL     1       5.936  -0.891   2.702  0.00  0.00    +0.008 A 
ATOM     29  C   UNL     1       5.829  -2.119   3.318  0.00  0.00    -0.026 A 
ATOM     30  C   UNL     1       6.856  -2.548   4.334  0.00  0.00    +0.046 C 
ATOM     31  C   UNL     1       5.130   0.869   1.113  0.00  0.00    +0.044 C 
ENDBRANCH  17  18
ENDBRANCH   1  17
TORSDOF 6
