REMARK  Name = ZINC08978292
REMARK  14 active torsions:
REMARK  status: ('A' for Active; 'I' for Inactive)
REMARK    1  A    between atoms: C_1  and  C_2
REMARK    2  A    between atoms: C_2  and  C_3
REMARK    3  A    between atoms: C_3  and  C_4
REMARK    4  A    between atoms: C_4  and  C_5
REMARK    5  A    between atoms: C_8  and  S_11
REMARK    6  A    between atoms: N_9  and  N_10
REMARK    7  A    between atoms: S_11  and  C_12
REMARK    8  A    between atoms: C_12  and  C_13
REMARK    9  A    between atoms: N_15  and  C_16
REMARK   10  A    between atoms: C_17  and  C_27
REMARK   11  A    between atoms: C_22  and  C_26
REMARK   12  A    between atoms: C_27  and  O_29
REMARK   13  A    between atoms: O_29  and  C_30
REMARK   14  A    between atoms: C_30  and  C_31
REMARK                            x       y       z     vdW  Elec       q    Type
REMARK                         _______ _______ _______ _____ _____    ______ ____
ROOT
ATOM      1  C   UNL     1      -3.571  -6.203   0.396  0.00  0.00    +0.228 C 
ATOM      2  O   UNL     1      -4.299  -5.323  -0.012  0.00  0.00    -0.275 OA
ATOM      3  N   UNL     1      -2.307  -5.916   0.763  0.00  0.00    -0.279 N 
ATOM      4  H   UNL     1      -1.725  -6.620   1.090  0.00  0.00    +0.155 HD
ENDROOT
BRANCH   3   5
ATOM      5  C   UNL     1      -1.837  -4.615   0.672  0.00  0.00    +0.086 A 
ATOM      6  C   UNL     1      -0.579  -4.127   0.999  0.00  0.00    +0.091 A 
ATOM      7  C   UNL     1      -0.341  -2.706   0.809  0.00  0.00    -0.021 A 
ATOM      8  C   UNL     1      -1.390  -2.006   0.327  0.00  0.00    -0.004 A 
ATOM      9  S   UNL     1      -2.678  -3.203   0.124  0.00  0.00    -0.077 S 
ATOM     10  C   UNL     1      -1.437  -0.538   0.031  0.00  0.00    +0.046 C 
ATOM     11  C   UNL     1       0.002  -0.004   0.002  0.00  0.00    -0.009 C 
ATOM     12  C   UNL     1       0.742  -0.514   1.242  0.00  0.00    +0.008 C 
ATOM     13  C   UNL     1       0.984  -2.020   1.121  0.00  0.00    +0.037 C 
ATOM     14  C   UNL     1      -0.019   1.526   0.010  0.00  0.00    +0.008 C 
BRANCH   6  15
ATOM     15  C   UNL     1       0.468  -5.011   1.515  0.00  0.00    +0.342 C 
ATOM     16  O   UNL     1       0.576  -5.191   2.713  0.00  0.00    -0.245 OA
BRANCH  15  17
ATOM     17  O   UNL     1       1.314  -5.624   0.662  0.00  0.00    -0.461 OA
BRANCH  17  18
ATOM     18  C   UNL     1       2.327  -6.486   1.244  0.00  0.00    +0.229 C 
ATOM     19  C   UNL     1       3.185  -7.089   0.130  0.00  0.00    +0.048 C 
ENDBRANCH  17  18
ENDBRANCH  15  17
ENDBRANCH   6  15
ENDBRANCH   3   5
BRANCH   1  20
ATOM     20  C   UNL     1      -4.082  -7.618   0.495  0.00  0.00    +0.173 C 
BRANCH  20  21
ATOM     21  S   UNL     1      -5.801  -7.679  -0.066  0.00  0.00    -0.075 S 
BRANCH  21  25
ATOM     22  C   UNL     1      -7.095 -11.350   0.198  0.00  0.00    +0.151 A 
ATOM     23  N   UNL     1      -5.869 -11.452   0.625  0.00  0.00    -0.132 NA
ATOM     24  N   UNL     1      -5.293 -10.303   0.594  0.00  0.00    -0.121 NA
ATOM     25  C   UNL     1      -6.132  -9.397   0.149  0.00  0.00    +0.209 A 
ATOM     26  N   UNL     1      -7.308 -10.037  -0.121  0.00  0.00    -0.228 N 
BRANCH  26  27
ATOM     27  N   UNL     1      -8.457  -9.482  -0.607  0.00  0.00    -0.295 N 
ATOM     28  H   UNL     1      -8.468  -9.501  -1.616  0.00  0.00    +0.163 HD
ATOM     29  H   UNL     1      -9.270  -9.942  -0.227  0.00  0.00    +0.163 HD
ENDBRANCH  26  27
BRANCH  22  30
ATOM     30  C   UNL     1      -8.095 -12.471   0.077  0.00  0.00    +0.078 C 
BRANCH  30  31
ATOM     31  C   UNL     1      -7.986 -13.105  -1.311  0.00  0.00    +0.007 C 
BRANCH  31  33
ATOM     32  C   UNL     1      -8.892 -14.877  -2.822  0.00  0.00    +0.004 C 
ATOM     33  C   UNL     1      -9.001 -14.243  -1.434  0.00  0.00    -0.003 C 
ENDBRANCH  31  33
ENDBRANCH  30  31
ENDBRANCH  22  30
ENDBRANCH  21  25
ENDBRANCH  20  21
ENDBRANCH   1  20
TORSDOF 11
