REMARK  Name = ZINC59497689
REMARK  1 active torsions:
REMARK  status: ('A' for Active; 'I' for Inactive)
REMARK    1  A    between atoms: C_15  and  C_17
REMARK                            x       y       z     vdW  Elec       q    Type
REMARK                         _______ _______ _______ _____ _____    ______ ____
ROOT
ATOM      1  C   UNL     1      -0.017   1.380   0.010  0.00  0.00    +0.000 A 
ATOM      2  C   UNL     1       1.168   2.095   0.002  0.00  0.00    +0.001 A 
ATOM      3  C   UNL     1       2.379   1.432  -0.019  0.00  0.00    +0.010 A 
ATOM      4  C   UNL     1       2.402   0.041  -0.041  0.00  0.00    -0.001 A 
ATOM      5  C   UNL     1       1.206  -0.675  -0.017  0.00  0.00    -0.038 A 
ATOM      6  C   UNL     1       0.002  -0.004   0.002  0.00  0.00    +0.004 A 
ATOM      7  C   UNL     1       1.250  -2.180   0.008  0.00  0.00    +0.040 C 
ATOM      8  C   UNL     1       2.429  -2.675  -0.827  0.00  0.00    +0.039 C 
ATOM      9  C   UNL     1       3.706  -1.981  -0.417  0.00  0.00    -0.023 C 
ATOM     10  C   UNL     1       3.686  -0.699  -0.064  0.00  0.00    +0.043 C 
ATOM     11  N   UNL     1       4.862  -0.032   0.288  0.00  0.00    -0.269 N 
ATOM     12  C   UNL     1       6.041  -0.672   0.294  0.00  0.00    +0.305 C 
ATOM     13  O   UNL     1       7.047  -0.063   0.602  0.00  0.00    -0.252 OA
ATOM     14  N   UNL     1       6.132  -1.968  -0.031  0.00  0.00    -0.289 N 
ATOM     15  C   UNL     1       4.986  -2.772  -0.421  0.00  0.00    +0.133 C 
ATOM     16  H   UNL     1       4.825   0.907   0.531  0.00  0.00    +0.156 HD
ATOM     17  H   UNL     1       7.005  -2.390  -0.006  0.00  0.00    +0.151 HD
ENDROOT
BRANCH  15  18
ATOM     18  C   UNL     1       4.851  -3.926   0.539  0.00  0.00    -0.022 A 
ATOM     19  C   UNL     1       5.009  -3.718   1.897  0.00  0.00    +0.006 A 
ATOM     20  C   UNL     1       4.885  -4.776   2.777  0.00  0.00    +0.002 A 
ATOM     21  C   UNL     1       4.603  -6.043   2.301  0.00  0.00    +0.020 A 
ATOM     22  C   UNL     1       4.444  -6.251   0.943  0.00  0.00    +0.041 A 
ATOM     23  C   UNL     1       4.563  -5.190   0.062  0.00  0.00    +0.025 A 
ATOM     24 CL   UNL     1       4.090  -7.841   0.344  0.00  0.00    -0.084 Cl
ENDBRANCH  15  18
TORSDOF 1
