REMARK  Name = ZINC64121078
REMARK  5 active torsions:
REMARK  status: ('A' for Active; 'I' for Inactive)
REMARK    1  A    between atoms: C_7  and  C_10
REMARK    2  A    between atoms: C_10  and  C_12
REMARK    3  A    between atoms: C_10  and  C_24
REMARK    4  A    between atoms: C_12  and  N_13
REMARK    5  A    between atoms: C_19  and  C_22
REMARK                            x       y       z     vdW  Elec       q    Type
REMARK                         _______ _______ _______ _____ _____    ______ ____
ROOT
ATOM      1  C   UNL     1       0.546  -2.918   0.207  0.00  0.00    +0.048 C 
ENDROOT
BRANCH   1   8
ATOM      2  C   UNL     1      -1.362   1.255   0.199  0.00  0.00    +0.001 A 
ATOM      3  C   UNL     1      -0.428   2.300   0.203  0.00  0.00    +0.002 A 
ATOM      4  C   UNL     1       0.905   2.087   0.210  0.00  0.00    +0.026 A 
ATOM      5  C   UNL     1       1.421   0.762   0.212  0.00  0.00    +0.043 A 
ATOM      6  N   UNL     1       2.649   0.303   0.218  0.00  0.00    -0.380 N 
ATOM      7  C   UNL     1       2.600  -1.163   0.217  0.00  0.00    +0.145 C 
ATOM      8  C   UNL     1       1.133  -1.530   0.211  0.00  0.00    -0.036 C 
ATOM      9  C   UNL     1       0.455  -0.360   0.208  0.00  0.00    -0.001 A 
ATOM     10  C   UNL     1      -0.978  -0.042   0.201  0.00  0.00    +0.010 A 
ATOM     11  H   UNL     1       3.455   0.843   0.221  0.00  0.00    +0.160 HD
ENDBRANCH   1   8
BRANCH   1  12
ATOM     12  C   UNL     1       1.006  -3.669   1.458  0.00  0.00    +0.063 C 
ATOM     13  C   UNL     1       0.327  -5.060   1.568  0.00  0.00    +0.042 C 
ATOM     14  C   UNL     1      -0.020  -5.369   2.989  0.00  0.00    -0.019 C 
ATOM     15  C   UNL     1      -0.078  -4.396   3.877  0.00  0.00    +0.036 C 
ATOM     16  S   UNL     1       0.335  -2.901   2.992  0.00  0.00    -0.129 S 
ENDBRANCH   1  12
BRANCH   1  17
ATOM     17  C   UNL     1       1.018  -3.667  -1.041  0.00  0.00    +0.114 C 
BRANCH  17  18
ATOM     18  N   UNL     1       0.545  -2.968  -2.238  0.00  0.00    -0.299 N 
ATOM     19  C   UNL     1       0.756  -3.502  -3.458  0.00  0.00    +0.302 C 
ATOM     20  O   UNL     1       1.417  -4.517  -3.571  0.00  0.00    -0.253 OA
ATOM     21  N   UNL     1       0.235  -2.911  -4.551  0.00  0.00    -0.286 N 
ATOM     22  C   UNL     1       0.361  -3.540  -5.873  0.00  0.00    +0.110 C 
ATOM     23  C   UNL     1       0.979  -2.528  -6.844  0.00  0.00    +0.037 C 
ATOM     24  C   UNL     1       0.146  -1.245  -6.835  0.00  0.00    +0.094 C 
ATOM     25  C   UNL     1       0.158  -0.636  -5.431  0.00  0.00    +0.037 C 
ATOM     26  C   UNL     1      -0.474  -1.629  -4.443  0.00  0.00    +0.110 C 
ATOM     27  H   UNL     1       0.081  -2.121  -2.154  0.00  0.00    +0.150 HD
BRANCH  24  28
ATOM     28  C   UNL     1       0.718  -0.282  -7.791  0.00  0.00    +0.066 C 
ATOM     29  N   UNL     1       1.159   0.460  -8.529  0.00  0.00    -0.196 NA
ENDBRANCH  24  28
ENDBRANCH  17  18
ENDBRANCH   1  17
TORSDOF 5
