REMARK  Name = ZINC14971488
REMARK  9 active torsions:
REMARK  status: ('A' for Active; 'I' for Inactive)
REMARK    1  A    between atoms: C_4  and  C_7
REMARK    2  A    between atoms: C_7  and  N_8
REMARK    3  A    between atoms: C_9  and  C_11
REMARK    4  A    between atoms: C_11  and  C_12
REMARK    5  A    between atoms: C_15  and  N_18
REMARK    6  A    between atoms: C_21  and  N_70
REMARK    7  A    between atoms: C_24  and  C_25
REMARK    8  A    between atoms: C_24  and  N_70
REMARK    9  A    between atoms: C_25  and  C_26
REMARK                            x       y       z     vdW  Elec       q    Type
REMARK                         _______ _______ _______ _____ _____    ______ ____
ROOT
ATOM      1  N   UNL     1       1.816  -0.160   8.265  0.00  0.00    -0.330 N 
ATOM      2  C   UNL     1       3.263  -0.220   8.025  0.00  0.00    +0.103 C 
ATOM      3  C   UNL     1       3.982  -0.590   9.325  0.00  0.00    +0.003 C 
ATOM      4  C   UNL     1       3.471  -1.947   9.817  0.00  0.00    -0.069 C 
ATOM      5  C   UNL     1       1.954  -1.872  10.012  0.00  0.00    +0.003 C 
ATOM      6  C   UNL     1       1.294  -1.465   8.693  0.00  0.00    +0.103 C 
ENDROOT
BRANCH   1  10
ATOM      7  C   UNL     1      -0.198   1.219   4.892  0.00  0.00    -0.039 A 
ATOM      8  C   UNL     1      -0.547   0.005   5.455  0.00  0.00    +0.006 A 
ATOM      9  C   UNL     1       0.122  -0.458   6.571  0.00  0.00    +0.023 A 
ATOM     10  C   UNL     1       1.140   0.303   7.134  0.00  0.00    +0.030 A 
ATOM     11  C   UNL     1       1.484   1.524   6.569  0.00  0.00    +0.023 A 
ATOM     12  C   UNL     1       0.814   1.978   5.450  0.00  0.00    +0.006 A 
BRANCH   7  13
ATOM     13  C   UNL     1      -0.927   1.718   3.671  0.00  0.00    +0.130 C 
BRANCH  13  15
ATOM     14  N   UNL     1      -0.698   1.558   1.213  0.00  0.00    -0.311 N 
ATOM     15  C   UNL     1      -0.222   1.232   2.431  0.00  0.00    +0.218 C 
ATOM     16  O   UNL     1       0.774   0.548   2.529  0.00  0.00    -0.275 OA
ATOM     17  H   UNL     1      -1.495   2.106   1.135  0.00  0.00    +0.149 HD
BRANCH  14  18
ATOM     18  C   UNL     1      -0.013   1.086   0.008  0.00  0.00    +0.139 C 
BRANCH  18  22
ATOM     19  C   UNL     1      -2.079   2.501  -3.453  0.00  0.00    +0.000 A 
ATOM     20  C   UNL     1      -1.066   3.259  -2.894  0.00  0.00    +0.000 A 
ATOM     21  C   UNL     1      -0.398   2.801  -1.774  0.00  0.00    +0.005 A 
ATOM     22  C   UNL     1      -0.742   1.585  -1.213  0.00  0.00    -0.030 A 
ATOM     23  C   UNL     1      -1.750   0.825  -1.775  0.00  0.00    +0.005 A 
ATOM     24  C   UNL     1      -2.422   1.285  -2.892  0.00  0.00    +0.000 A 
ENDBRANCH  18  22
ENDBRANCH  14  18
ENDBRANCH  13  15
ENDBRANCH   7  13
ENDBRANCH   1  10
BRANCH   4  25
ATOM     25  N   UNL     1       4.110  -2.280  11.104  0.00  0.00    +0.381 N 
ATOM     26  H   UNL     1       3.501  -2.918  11.630  0.00  0.00    -0.086 HD
ATOM     27  H   UNL     1       4.251  -1.418  11.645  0.00  0.00    -0.086 HD
BRANCH  25  28
ATOM     28  C   UNL     1       5.414  -2.930  10.875  0.00  0.00    -0.079 C 
BRANCH  28  29
ATOM     29  C   UNL     1       6.052  -3.263  12.225  0.00  0.00    +0.029 C 
BRANCH  29  30
ATOM     30  C   UNL     1       7.406  -3.938  11.997  0.00  0.00    +0.209 C 
ATOM     31  C   UNL     1       8.008  -4.360  13.344  0.00  0.00    +0.273 C 
ATOM     32  O   UNL     1       9.276  -4.975  13.095  0.00  0.00    -0.485 OA
ATOM     33  C   UNL     1      10.109  -4.331  12.233  0.00  0.00    +0.162 A 
ATOM     34  C   UNL     1      11.457  -4.656  12.218  0.00  0.00    +0.049 A 
ATOM     35  C   UNL     1      12.315  -4.014  11.345  0.00  0.00    +0.004 A 
ATOM     36  C   UNL     1      11.832  -3.044  10.486  0.00  0.00    +0.004 A 
ATOM     37  C   UNL     1      10.490  -2.714  10.497  0.00  0.00    +0.049 A 
ATOM     38  C   UNL     1       9.624  -3.355  11.371  0.00  0.00    +0.162 A 
ATOM     39  O   UNL     1       8.306  -3.017  11.372  0.00  0.00    -0.482 OA
ENDBRANCH  29  30
ENDBRANCH  28  29
ENDBRANCH  25  28
ENDBRANCH   4  25
TORSDOF 9
