REMARK  Name = ZINC64701211
REMARK  10 active torsions:
REMARK  status: ('A' for Active; 'I' for Inactive)
REMARK    1  A    between atoms: C_1  and  C_2
REMARK    2  A    between atoms: C_6  and  C_34
REMARK    3  A    between atoms: C_7  and  N_8
REMARK    4  A    between atoms: C_9  and  C_11
REMARK    5  A    between atoms: C_11  and  S_12
REMARK    6  A    between atoms: S_12  and  C_13
REMARK    7  A    between atoms: C_23  and  C_25
REMARK    8  A    between atoms: C_28  and  C_31
REMARK    9  A    between atoms: C_31  and  C_32
REMARK   10  A    between atoms: C_31  and  C_33
REMARK                            x       y       z     vdW  Elec       q    Type
REMARK                         _______ _______ _______ _____ _____    ______ ____
ROOT
ATOM      1  C   UNL     1      -0.333   0.115   7.700  0.00  0.00    +0.272 C 
ATOM      2  N   UNL     1      -1.467   1.049   7.580  0.00  0.00    -0.163 NA
ATOM      3  N   UNL     1      -1.438   2.211   7.993  0.00  0.00    -0.081 NA
ATOM      4  C   UNL     1      -0.373   2.754   8.637  0.00  0.00    +0.276 C 
ATOM      5  O   UNL     1      -0.335   3.925   8.931  0.00  0.00    -0.270 OA
ATOM      6  C   UNL     1       0.751   1.819   8.966  0.00  0.00    +0.193 C 
ATOM      7  N   UNL     1       0.870   0.915   7.776  0.00  0.00    -0.178 NA
ATOM      8  N   UNL     1       2.094   0.379   7.988  0.00  0.00    -0.274 N 
ATOM      9  C   UNL     1       2.904   1.472   8.379  0.00  0.00    +0.047 C 
ATOM     10  C   UNL     1       2.132   2.415   9.002  0.00  0.00    +0.027 C 
ATOM     11  H   UNL     1       2.358  -0.550   7.893  0.00  0.00    +0.167 HD
ENDROOT
BRANCH   9  12
ATOM     12  C   UNL     1       4.366   1.575   8.161  0.00  0.00    -0.003 A 
ATOM     13  C   UNL     1       5.061   2.702   8.597  0.00  0.00    +0.010 A 
ATOM     14  C   UNL     1       6.422   2.792   8.392  0.00  0.00    +0.004 A 
ATOM     15  C   UNL     1       7.098   1.767   7.753  0.00  0.00    -0.045 A 
ATOM     16  C   UNL     1       6.413   0.646   7.318  0.00  0.00    +0.004 A 
ATOM     17  C   UNL     1       5.053   0.542   7.524  0.00  0.00    +0.010 A 
BRANCH  15  18
ATOM     18  C   UNL     1       8.584   1.873   7.531  0.00  0.00    +0.013 C 
ATOM     19  C   UNL     1       9.289   0.711   8.235  0.00  0.00    +0.012 C 
ATOM     20  C   UNL     1       8.881   1.815   6.031  0.00  0.00    +0.012 C 
ENDBRANCH  15  18
ENDBRANCH   9  12
BRANCH   1  21
ATOM     21  S   UNL     1      -0.266  -0.967   6.246  0.00  0.00    -0.107 S 
BRANCH  21  22
ATOM     22  C   UNL     1      -0.092   0.181   4.852  0.00  0.00    +0.168 C 
BRANCH  22  24
ATOM     23  N   UNL     1       0.107   0.050   2.390  0.00  0.00    -0.284 N 
ATOM     24  C   UNL     1      -0.024  -0.598   3.564  0.00  0.00    +0.227 C 
ATOM     25  O   UNL     1      -0.086  -1.810   3.585  0.00  0.00    -0.275 OA
ATOM     26  H   UNL     1       0.223   1.013   2.378  0.00  0.00    +0.155 HD
BRANCH  23  33
ATOM     27  C   UNL     1       2.558  -0.356   1.002  0.00  0.00    +0.045 C 
ATOM     28  C   UNL     1       1.248  -0.887   0.479  0.00  0.00    -0.029 A 
ATOM     29  C   UNL     1       1.214  -1.599  -0.704  0.00  0.00    +0.005 A 
ATOM     30  C   UNL     1       0.013  -2.087  -1.185  0.00  0.00    +0.001 A 
ATOM     31  C   UNL     1      -1.158  -1.863  -0.484  0.00  0.00    +0.005 A 
ATOM     32  C   UNL     1      -1.131  -1.152   0.700  0.00  0.00    -0.029 A 
ATOM     33  C   UNL     1       0.075  -0.666   1.188  0.00  0.00    +0.039 A 
ATOM     34  C   UNL     1      -2.407  -0.908   1.463  0.00  0.00    +0.045 C 
ENDBRANCH  23  33
ENDBRANCH  22  24
ENDBRANCH  21  22
ENDBRANCH   1  21
TORSDOF 6
