REMARK  Name = ZINC09860264
REMARK  9 active torsions:
REMARK  status: ('A' for Active; 'I' for Inactive)
REMARK    1  A    between atoms: C_1  and  C_2
REMARK    2  A    between atoms: C_8  and  C_9
REMARK    3  A    between atoms: C_8  and  N_69
REMARK    4  A    between atoms: C_9  and  N_10
REMARK    5  A    between atoms: C_11  and  C_13
REMARK    6  A    between atoms: C_13  and  C_14
REMARK    7  A    between atoms: C_14  and  C_15
REMARK    8  A    between atoms: C_15  and  C_16
REMARK    9  A    between atoms: C_30  and  C_32
REMARK                            x       y       z     vdW  Elec       q    Type
REMARK                         _______ _______ _______ _____ _____    ______ ____
ROOT
ATOM      1  C   UNL     1       2.723  12.403   0.420  0.00  0.00    +0.139 A 
ATOM      2  N   UNL     1       3.515  12.692  -0.576  0.00  0.00    -0.132 NA
ATOM      3  N   UNL     1       4.567  13.290  -0.145  0.00  0.00    -0.108 NA
ATOM      4  C   UNL     1       4.508  13.409   1.164  0.00  0.00    +0.259 A 
ATOM      5  N   UNL     1       3.330  12.847   1.558  0.00  0.00    -0.263 N 
ATOM      6  C   UNL     1       2.963  12.811   2.899  0.00  0.00    +0.062 A 
ATOM      7  C   UNL     1       1.765  12.240   3.300  0.00  0.00    +0.027 A 
ATOM      8  C   UNL     1       1.426  12.219   4.639  0.00  0.00    +0.002 A 
ATOM      9  C   UNL     1       2.274  12.765   5.589  0.00  0.00    +0.001 A 
ATOM     10  C   UNL     1       3.470  13.338   5.208  0.00  0.00    +0.013 A 
ATOM     11  C   UNL     1       3.822  13.365   3.861  0.00  0.00    +0.043 A 
ATOM     12  C   UNL     1       5.090  13.968   3.412  0.00  0.00    +0.169 A 
ATOM     13  N   UNL     1       5.383  13.966   2.080  0.00  0.00    -0.177 N 
ATOM     14  N   UNL     1       6.630  14.595   1.950  0.00  0.00    -0.142 NA
ATOM     15  C   UNL     1       7.016  14.934   3.163  0.00  0.00    +0.182 A 
ATOM     16  N   UNL     1       6.085  14.554   4.044  0.00  0.00    -0.206 NA
ENDROOT
BRANCH  15  17
ATOM     17  C   UNL     1       8.284  15.628   3.498  0.00  0.00    +0.021 A 
ATOM     18  C   UNL     1       8.581  15.941   4.823  0.00  0.00    +0.011 A 
ATOM     19  C   UNL     1       9.765  16.581   5.130  0.00  0.00    +0.001 A 
ATOM     20  C   UNL     1      10.650  16.923   4.123  0.00  0.00    +0.000 A 
ATOM     21  C   UNL     1      10.358  16.620   2.806  0.00  0.00    +0.001 A 
ATOM     22  C   UNL     1       9.180  15.975   2.488  0.00  0.00    +0.011 A 
ENDBRANCH  15  17
BRANCH   1  23
ATOM     23  C   UNL     1       1.391  11.706   0.331  0.00  0.00    +0.077 C 
BRANCH  23  24
ATOM     24  C   UNL     1       1.576  10.214   0.618  0.00  0.00    +0.017 C 
BRANCH  24  25
ATOM     25  C   UNL     1       0.223   9.505   0.527  0.00  0.00    +0.096 C 
BRANCH  25  27
ATOM     26  N   UNL     1      -0.658   7.208   0.784  0.00  0.00    -0.317 N 
ATOM     27  C   UNL     1       0.405   8.036   0.809  0.00  0.00    +0.213 C 
ATOM     28  O   UNL     1       1.509   7.599   1.058  0.00  0.00    -0.276 OA
ATOM     29  H   UNL     1      -1.540   7.558   0.585  0.00  0.00    +0.149 HD
BRANCH  26  30
ATOM     30  C   UNL     1      -0.480   5.780   1.059  0.00  0.00    +0.085 C 
BRANCH  30  31
ATOM     31  C   UNL     1      -1.833   5.071   0.968  0.00  0.00    -0.059 C 
BRANCH  31  38
ATOM     32  C   UNL     1      -1.902   4.148   3.625  0.00  0.00    -0.013 C 
ATOM     33  C   UNL     1      -1.061   3.428   2.569  0.00  0.00    -0.072 C 
ATOM     34  C   UNL     1      -1.024   1.930   2.882  0.00  0.00    -0.016 C 
ATOM     35  C   UNL     1      -0.199   1.211   1.810  0.00  0.00    -0.003 C 
ATOM     36  C   UNL     1      -0.811   1.487   0.434  0.00  0.00    -0.019 C 
ATOM     37  C   UNL     1      -0.853   2.998   0.194  0.00  0.00    -0.078 C 
ATOM     38  N   UNL     1      -1.683   3.627   1.243  0.00  0.00    +0.382 N 
ATOM     39  H   UNL     1      -2.611   3.189   1.241  0.00  0.00    -0.081 HD
ENDBRANCH  31  38
ENDBRANCH  30  31
ENDBRANCH  26  30
ENDBRANCH  25  27
ENDBRANCH  24  25
ENDBRANCH  23  24
ENDBRANCH   1  23
TORSDOF 8
