REMARK  Name = ZINC39965882
REMARK  8 active torsions:
REMARK  status: ('A' for Active; 'I' for Inactive)
REMARK    1  A    between atoms: C_6  and  C_7
REMARK    2  A    between atoms: C_10  and  S_19
REMARK    3  A    between atoms: N_11  and  C_12
REMARK    4  A    between atoms: C_12  and  C_13
REMARK    5  A    between atoms: S_19  and  C_20
REMARK    6  A    between atoms: C_20  and  C_21
REMARK    7  A    between atoms: N_23  and  C_24
REMARK    8  A    between atoms: C_25  and  C_33
REMARK                            x       y       z     vdW  Elec       q    Type
REMARK                         _______ _______ _______ _____ _____    ______ ____
ROOT
ATOM      1  C   UNL     1      -1.264  -0.770  -0.042  0.00  0.00    +0.165 A 
ATOM      2  N   UNL     1      -1.400  -2.060   0.163  0.00  0.00    -0.128 NA
ATOM      3  N   UNL     1      -2.646  -2.374   0.171  0.00  0.00    -0.122 NA
ATOM      4  C   UNL     1      -3.382  -1.304  -0.029  0.00  0.00    +0.192 A 
ATOM      5  N   UNL     1      -2.530  -0.245  -0.166  0.00  0.00    -0.300 N 
ENDROOT
BRANCH   1  11
ATOM      6  C   UNL     1       1.176  -0.570   0.415  0.00  0.00    +0.015 A 
ATOM      7  C   UNL     1       2.363   0.129   0.341  0.00  0.00    +0.050 A 
ATOM      8  C   UNL     1       2.402   1.376  -0.264  0.00  0.00    +0.166 A 
ATOM      9  C   UNL     1       1.239   1.929  -0.801  0.00  0.00    +0.167 A 
ATOM     10  C   UNL     1       0.047   1.233  -0.729  0.00  0.00    +0.061 A 
ATOM     11  C   UNL     1       0.009  -0.023  -0.120  0.00  0.00    +0.023 A 
ATOM     12  O   UNL     1       1.542   3.149  -1.334  0.00  0.00    -0.453 OA
ATOM     13  C   UNL     1       2.809   3.516  -0.756  0.00  0.00    +0.466 C 
ATOM     14  O   UNL     1       3.431   2.251  -0.462  0.00  0.00    -0.453 OA
ENDBRANCH   1  11
BRANCH   5  15
ATOM     15  C   UNL     1      -2.888   1.156  -0.399  0.00  0.00    +0.157 C 
BRANCH  15  16
ATOM     16  C   UNL     1      -3.021   1.405  -1.902  0.00  0.00    +0.138 C 
ATOM     17  C   UNL     1      -3.279   2.904  -2.164  0.00  0.00    +0.035 C 
ATOM     18  C   UNL     1      -4.316   2.863  -3.320  0.00  0.00    +0.031 C 
ATOM     19  C   UNL     1      -5.114   1.587  -2.954  0.00  0.00    +0.160 C 
ATOM     20  O   UNL     1      -4.139   0.674  -2.419  0.00  0.00    -0.375 OA
ENDBRANCH  15  16
ENDBRANCH   5  15
BRANCH   4  21
ATOM     21  S   UNL     1      -5.142  -1.245  -0.100  0.00  0.00    -0.077 S 
BRANCH  21  22
ATOM     22  C   UNL     1      -5.650  -2.966   0.164  0.00  0.00    +0.173 C 
BRANCH  22  23
ATOM     23  C   UNL     1      -7.154  -3.057   0.127  0.00  0.00    +0.228 C 
ATOM     24  O   UNL     1      -7.817  -2.059  -0.059  0.00  0.00    -0.275 OA
ATOM     25  N   UNL     1      -7.761  -4.248   0.300  0.00  0.00    -0.278 N 
ATOM     26  H   UNL     1      -7.231  -5.046   0.449  0.00  0.00    +0.155 HD
BRANCH  25  27
ATOM     27  C   UNL     1      -9.146  -4.332   0.266  0.00  0.00    +0.090 A 
ATOM     28  C   UNL     1      -9.935  -5.458   0.428  0.00  0.00    +0.084 A 
ATOM     29  C   UNL     1     -11.374  -5.280   0.348  0.00  0.00    -0.018 A 
ATOM     30  C   UNL     1     -11.760  -4.005   0.120  0.00  0.00    -0.004 A 
ATOM     31  S   UNL     1     -10.250  -3.089   0.025  0.00  0.00    -0.077 S 
ATOM     32  C   UNL     1     -13.164  -3.501  -0.015  0.00  0.00    +0.043 C 
ATOM     33  C   UNL     1     -14.090  -4.707  -0.232  0.00  0.00    +0.005 C 
ATOM     34  C   UNL     1     -13.759  -5.780   0.809  0.00  0.00    +0.005 C 
ATOM     35  C   UNL     1     -12.393  -6.399   0.503  0.00  0.00    +0.037 C 
BRANCH  28  36
ATOM     36  C   UNL     1      -9.356  -6.747   0.665  0.00  0.00    +0.102 C 
ATOM     37  N   UNL     1      -8.897  -7.768   0.852  0.00  0.00    -0.191 NA
ENDBRANCH  28  36
ENDBRANCH  25  27
ENDBRANCH  22  23
ENDBRANCH  21  22
ENDBRANCH   4  21
TORSDOF 8
