REMARK  Name = ZINC08629148
REMARK  10 active torsions:
REMARK  status: ('A' for Active; 'I' for Inactive)
REMARK    1  A    between atoms: C_1  and  C_2
REMARK    2  A    between atoms: C_2  and  C_3
REMARK    3  A    between atoms: C_2  and  C_4
REMARK    4  A    between atoms: C_2  and  N_5
REMARK    5  A    between atoms: C_6  and  C_8
REMARK    6  A    between atoms: C_8  and  O_9
REMARK    7  A    between atoms: O_9  and  C_10
REMARK    8  A    between atoms: C_10  and  C_12
REMARK    9  A    between atoms: C_25  and  C_26
REMARK   10  A    between atoms: C_29  and  O_32
REMARK                            x       y       z     vdW  Elec       q    Type
REMARK                         _______ _______ _______ _____ _____    ______ ____
ROOT
ATOM      1  C   UNL     1       1.378   1.798   0.017  0.00  0.00    +0.073 A 
ATOM      2  C   UNL     1       2.026   2.216   1.261  0.00  0.00    +0.015 A 
ATOM      3  C   UNL     1       1.511   1.861   2.511  0.00  0.00    +0.011 A 
ATOM      4  C   UNL     1       2.147   2.274   3.644  0.00  0.00    +0.001 A 
ATOM      5  C   UNL     1       3.305   3.046   3.571  0.00  0.00    +0.002 A 
ATOM      6  C   UNL     1       3.841   3.397   2.370  0.00  0.00    +0.028 A 
ATOM      7  C   UNL     1       3.207   2.995   1.178  0.00  0.00    +0.072 A 
ATOM      8  N   UNL     1       3.696   3.341  -0.011  0.00  0.00    -0.247 NA
ATOM      9  C   UNL     1       3.128   2.982  -1.158  0.00  0.00    +0.072 A 
ATOM     10  C   UNL     1       1.959   2.203  -1.176  0.00  0.00    -0.007 A 
ATOM     11  C   UNL     1       1.539   1.947  -2.603  0.00  0.00    +0.043 C 
ATOM     12  C   UNL     1       2.574   2.651  -3.489  0.00  0.00    +0.042 C 
ATOM     13  C   UNL     1       3.555   3.289  -2.537  0.00  0.00    -0.021 C 
ATOM     14  C   UNL     1       4.634   4.012  -2.884  0.00  0.00    +0.013 C 
ENDROOT
BRANCH  14  15
ATOM     15  C   UNL     1       5.018   4.128  -4.301  0.00  0.00    -0.024 A 
ATOM     16  C   UNL     1       6.227   4.736  -4.653  0.00  0.00    +0.011 A 
ATOM     17  C   UNL     1       6.584   4.837  -5.980  0.00  0.00    +0.046 A 
ATOM     18  C   UNL     1       5.740   4.345  -6.968  0.00  0.00    +0.117 A 
ATOM     19  C   UNL     1       4.535   3.744  -6.623  0.00  0.00    +0.046 A 
ATOM     20  C   UNL     1       4.172   3.634  -5.299  0.00  0.00    +0.011 A 
BRANCH  18  21
ATOM     21  O   UNL     1       6.094   4.451  -8.275  0.00  0.00    -0.507 OA
ATOM     22  H   UNL     1       5.793   5.266  -8.698  0.00  0.00    +0.292 HD
ENDBRANCH  18  21
ENDBRANCH  14  15
BRANCH   1  23
ATOM     23  C   UNL     1       0.148   0.979   0.031  0.00  0.00    +0.341 C 
ATOM     24  O   UNL     1       0.225  -0.233   0.023  0.00  0.00    -0.245 OA
BRANCH  23  25
ATOM     25  O   UNL     1      -1.059   1.577   0.048  0.00  0.00    -0.452 OA
BRANCH  25  26
ATOM     26  C   UNL     1      -2.224   0.711   0.055  0.00  0.00    +0.328 C 
BRANCH  26  28
ATOM     27  N   UNL     1      -4.685   0.958   0.083  0.00  0.00    -0.308 N 
ATOM     28  C   UNL     1      -3.475   1.551   0.073  0.00  0.00    +0.251 C 
ATOM     29  O   UNL     1      -3.393   2.761   0.080  0.00  0.00    -0.272 OA
ATOM     30  H   UNL     1      -4.751  -0.010   0.078  0.00  0.00    +0.149 HD
BRANCH  27  32
ATOM     31  C   UNL     1      -5.936   2.665  -1.143  0.00  0.00    +0.031 C 
ATOM     32  C   UNL     1      -5.901   1.774   0.101  0.00  0.00    +0.026 C 
ATOM     33  C   UNL     1      -7.129   0.861   0.108  0.00  0.00    +0.031 C 
ATOM     34  C   UNL     1      -5.909   2.650   1.355  0.00  0.00    +0.031 C 
ENDBRANCH  27  32
ENDBRANCH  26  28
ENDBRANCH  25  26
ENDBRANCH  23  25
ENDBRANCH   1  23
TORSDOF 7
