REMARK  Name = ZINC22914695
REMARK  10 active torsions:
REMARK  status: ('A' for Active; 'I' for Inactive)
REMARK    1  A    between atoms: C_9  and  C_12
REMARK    2  A    between atoms: C_12  and  O_13
REMARK    3  A    between atoms: O_13  and  C_14
REMARK    4  A    between atoms: C_14  and  C_15
REMARK    5  A    between atoms: C_15  and  C_17
REMARK    6  A    between atoms: C_15  and  O_41
REMARK    7  A    between atoms: C_17  and  N_18
REMARK    8  A    between atoms: N_21  and  C_24
REMARK    9  A    between atoms: C_24  and  C_25
REMARK   10  A    between atoms: C_25  and  N_26
REMARK                            x       y       z     vdW  Elec       q    Type
REMARK                         _______ _______ _______ _____ _____    ______ ____
ROOT
ATOM      1  N   UNL     1       7.128   9.110  -2.261  0.00  0.00    -0.303 NA
ATOM      2  C   UNL     1       7.381   7.808  -2.894  0.00  0.00    +0.066 C 
ATOM      3  C   UNL     1       6.067   7.032  -3.001  0.00  0.00    -0.063 C 
ATOM      4  N   UNL     1       5.492   6.859  -1.660  0.00  0.00    +0.382 N 
ATOM      5  C   UNL     1       5.239   8.161  -1.027  0.00  0.00    -0.063 C 
ATOM      6  C   UNL     1       6.554   8.937  -0.919  0.00  0.00    +0.066 C 
ATOM      7  H   UNL     1       6.225   6.318  -1.043  0.00  0.00    -0.082 HD
ENDROOT
BRANCH   1   8
ATOM      8  C   UNL     1       8.355   9.917  -2.208  0.00  0.00    +0.117 C 
BRANCH   8   9
ATOM      9  C   UNL     1       9.264   9.391  -1.096  0.00  0.00    +0.154 C 
BRANCH   9  10
ATOM     10  O   UNL     1       9.716   8.078  -1.431  0.00  0.00    -0.388 OA
ATOM     11  H   UNL     1       8.988   7.268  -1.584  0.00  0.00    +0.210 HD
ENDBRANCH   9  10
BRANCH   9  12
ATOM     12  C   UNL     1      10.469  10.321  -0.940  0.00  0.00    +0.192 C 
BRANCH  12  13
ATOM     13  O   UNL     1      11.257   9.897   0.175  0.00  0.00    -0.373 OA
BRANCH  13  14
ATOM     14  C   UNL     1      12.413  10.703   0.409  0.00  0.00    +0.207 C 
BRANCH  14  23
ATOM     15  C   UNL     1      16.541   7.312   3.877  0.00  0.00    +0.004 A 
ATOM     16  C   UNL     1      15.850   6.476   3.019  0.00  0.00    +0.004 A 
ATOM     17  C   UNL     1      14.893   6.996   2.167  0.00  0.00    +0.049 A 
ATOM     18  C   UNL     1      14.625   8.356   2.170  0.00  0.00    +0.163 A 
ATOM     19  C   UNL     1      15.318   9.195   3.034  0.00  0.00    +0.162 A 
ATOM     20  C   UNL     1      16.277   8.668   3.886  0.00  0.00    +0.049 A 
ATOM     21  O   UNL     1      15.065  10.533   3.059  0.00  0.00    -0.485 OA
ATOM     22  C   UNL     1      14.367  11.076   1.934  0.00  0.00    +0.276 C 
ATOM     23  C   UNL     1      13.177  10.160   1.619  0.00  0.00    +0.236 C 
ATOM     24  O   UNL     1      13.682   8.853   1.323  0.00  0.00    -0.479 OA
ENDBRANCH  14  23
ENDBRANCH  13  14
ENDBRANCH  12  13
ENDBRANCH   9  12
ENDBRANCH   8   9
ENDBRANCH   1   8
BRANCH   4  25
ATOM     25  C   UNL     1       4.266   6.052  -1.712  0.00  0.00    -0.059 C 
BRANCH  25  26
ATOM     26  C   UNL     1       3.836   5.685  -0.291  0.00  0.00    +0.098 C 
BRANCH  26  27
ATOM     27  N   UNL     1       2.612   4.880  -0.343  0.00  0.00    -0.236 N 
ATOM     28  C   UNL     1       2.721   3.540  -0.424  0.00  0.00    +0.254 C 
ATOM     29  O   UNL     1       3.821   3.023  -0.452  0.00  0.00    -0.270 OA
ATOM     30  C   UNL     1       1.516   2.699  -0.479  0.00  0.00    +0.046 A 
ATOM     31  C   UNL     1       1.582   1.316  -0.562  0.00  0.00    +0.014 A 
ATOM     32  C   UNL     1       0.414   0.564  -0.612  0.00  0.00    +0.001 A 
ATOM     33  C   UNL     1      -0.818   1.152  -0.585  0.00  0.00    +0.008 A 
ATOM     34  C   UNL     1      -0.928   2.550  -0.496  0.00  0.00    -0.016 A 
ATOM     35  C   UNL     1       0.249   3.325  -0.445  0.00  0.00    +0.006 A 
ATOM     36  C   UNL     1       0.172   4.734  -0.360  0.00  0.00    +0.046 A 
ATOM     37  C   UNL     1      -1.075   5.339  -0.328  0.00  0.00    +0.014 A 
ATOM     38  C   UNL     1      -2.229   4.565  -0.379  0.00  0.00    +0.001 A 
ATOM     39  C   UNL     1      -2.173   3.203  -0.461  0.00  0.00    +0.008 A 
ATOM     40  C   UNL     1       1.421   5.508  -0.309  0.00  0.00    +0.254 C 
ATOM     41  O   UNL     1       1.379   6.721  -0.235  0.00  0.00    -0.270 OA
ENDBRANCH  26  27
ENDBRANCH  25  26
ENDBRANCH   4  25
TORSDOF 10
