REMARK  Name = ZINC60509890
REMARK  7 active torsions:
REMARK  status: ('A' for Active; 'I' for Inactive)
REMARK    1  A    between atoms: C_1  and  C_2
REMARK    2  A    between atoms: C_2  and  C_3
REMARK    3  A    between atoms: C_2  and  N_9
REMARK    4  A    between atoms: C_3  and  C_4
REMARK    5  A    between atoms: N_9  and  S_10
REMARK    6  A    between atoms: S_10  and  C_13
REMARK    7  A    between atoms: C_16  and  N_19
REMARK                            x       y       z     vdW  Elec       q    Type
REMARK                         _______ _______ _______ _____ _____    ______ ____
ROOT
ATOM      1  S   UNL     1      -2.119  -0.907  -1.411  0.00  0.00    +0.059 S 
ATOM      2  O   UNL     1      -3.414  -1.386  -1.071  0.00  0.00    -0.153 OA
ATOM      3  O   UNL     1      -1.920   0.189  -2.293  0.00  0.00    -0.153 OA
ENDROOT
BRANCH   1   4
ATOM      4  C   UNL     1      -1.242  -2.272  -2.098  0.00  0.00    +0.105 A 
ATOM      5  C   UNL     1      -0.176  -2.051  -2.950  0.00  0.00    +0.031 A 
ATOM      6  C   UNL     1       0.512  -3.122  -3.489  0.00  0.00    +0.034 A 
ATOM      7  C   UNL     1       0.135  -4.414  -3.175  0.00  0.00    +0.126 A 
ATOM      8  C   UNL     1      -0.930  -4.636  -2.322  0.00  0.00    +0.034 A 
ATOM      9  C   UNL     1      -1.616  -3.565  -1.780  0.00  0.00    +0.031 A 
BRANCH   7  10
ATOM     10  N   UNL     1       0.872  -5.561  -3.752  0.00  0.00    +0.056 N 
ATOM     11  O   UNL     1       1.803  -5.367  -4.499  0.00  0.00    -0.126 OA
ATOM     12  O   UNL     1       0.542  -6.691  -3.478  0.00  0.00    -0.126 OA
ENDBRANCH   7  10
ENDBRANCH   1   4
BRANCH   1  13
ATOM     13  N   UNL     1      -1.372  -0.511   0.012  0.00  0.00    -0.187 NA
ATOM     14  H   UNL     1      -1.845  -0.615   0.853  0.00  0.00    +0.148 HD
BRANCH  13  16
ATOM     15  C   UNL     1      -0.019   1.526   0.010  0.00  0.00    +0.026 C 
ATOM     16  C   UNL     1       0.002  -0.004   0.002  0.00  0.00    +0.078 C 
BRANCH  16  17
ATOM     17  C   UNL     1       0.742  -0.511   1.242  0.00  0.00    +0.055 C 
BRANCH  17  18
ATOM     18  C   UNL     1       0.870  -2.011   1.172  0.00  0.00    -0.039 A 
ATOM     19  C   UNL     1      -0.111  -2.824   1.708  0.00  0.00    +0.011 A 
ATOM     20  C   UNL     1       0.035  -4.169   1.628  0.00  0.00    +0.045 A 
ATOM     21  S   UNL     1       1.596  -4.322   0.776  0.00  0.00    -0.105 S 
ATOM     22  C   UNL     1       1.946  -2.583   0.578  0.00  0.00    +0.048 A 
ENDBRANCH  17  18
ENDBRANCH  16  17
ENDBRANCH  13  16
ENDBRANCH   1  13
TORSDOF 6
