REMARK  Name = ZINC45085311
REMARK  4 active torsions:
REMARK  status: ('A' for Active; 'I' for Inactive)
REMARK    1  A    between atoms: C_1  and  C_2
REMARK    2  A    between atoms: C_2  and  N_9
REMARK    3  A    between atoms: C_10  and  C_12
REMARK    4  A    between atoms: C_12  and  N_13
REMARK                            x       y       z     vdW  Elec       q    Type
REMARK                         _______ _______ _______ _____ _____    ______ ____
ROOT
ATOM      1  N   UNL     1      -1.378  -0.491   0.059  0.00  0.00    -0.310 N 
ATOM      2  C   UNL     1      -2.254  -0.148  -0.907  0.00  0.00    +0.197 C 
ATOM      3  O   UNL     1      -1.899   0.564  -1.822  0.00  0.00    -0.278 OA
ATOM      4  H   UNL     1      -1.662  -1.060   0.791  0.00  0.00    +0.149 HD
ENDROOT
BRANCH   1   6
ATOM      5  C   UNL     1      -0.019   1.526   0.010  0.00  0.00    +0.033 C 
ATOM      6  C   UNL     1       0.002  -0.004   0.002  0.00  0.00    +0.052 C 
ATOM      7  C   UNL     1       0.632  -0.478  -1.307  0.00  0.00    +0.049 C 
ATOM      8  C   UNL     1       2.169  -0.637  -1.140  0.00  0.00    +0.168 C 
ATOM      9  S   UNL     1       2.220  -1.358   0.560  0.00  0.00    -0.029 S 
ATOM     10  O   UNL     1       1.951  -2.751   0.484  0.00  0.00    -0.174 OA
ATOM     11  O   UNL     1       3.390  -0.903   1.225  0.00  0.00    -0.174 OA
ATOM     12  C   UNL     1       0.751  -0.495   1.257  0.00  0.00    +0.191 C 
ENDBRANCH   1   6
BRANCH   2  13
ATOM     13  C   UNL     1      -3.674  -0.649  -0.849  0.00  0.00    +0.019 C 
BRANCH  13  14
ATOM     14  N   UNL     1      -4.421  -0.139  -2.006  0.00  0.00    +0.388 N 
ATOM     15  C   UNL     1      -4.484   1.322  -1.932  0.00  0.00    -0.055 C 
ATOM     16  C   UNL     1      -4.937   1.894  -3.279  0.00  0.00    +0.147 C 
ATOM     17  S   UNL     1      -6.620   1.295  -3.624  0.00  0.00    -0.034 S 
ATOM     18  O   UNL     1      -6.912   1.529  -4.994  0.00  0.00    -0.174 OA
ATOM     19  O   UNL     1      -7.495   1.808  -2.629  0.00  0.00    -0.174 OA
ATOM     20  C   UNL     1      -6.431  -0.496  -3.368  0.00  0.00    +0.147 C 
ATOM     21  C   UNL     1      -5.763  -0.725  -2.008  0.00  0.00    -0.055 C 
ATOM     22  H   UNL     1      -3.942  -0.407  -2.853  0.00  0.00    -0.081 HD
ENDBRANCH  13  14
ENDBRANCH   2  13
TORSDOF 3
