REMARK  Name = ZINC02438388
REMARK  5 active torsions:
REMARK  status: ('A' for Active; 'I' for Inactive)
REMARK    1  A    between atoms: C_4  and  N_7
REMARK    2  A    between atoms: C_8  and  N_29
REMARK    3  A    between atoms: C_9  and  C_20
REMARK    4  A    between atoms: N_22  and  C_23
REMARK    5  A    between atoms: C_23  and  C_24
REMARK                            x       y       z     vdW  Elec       q    Type
REMARK                         _______ _______ _______ _____ _____    ______ ____
ROOT
ATOM      1  N   UNL     1      -1.239   2.070   0.019  0.00  0.00    -0.280 N 
ATOM      2  C   UNL     1      -2.142   2.030   1.040  0.00  0.00    +0.117 A 
ATOM      3  C   UNL     1      -3.248   2.817   0.740  0.00  0.00    +0.104 A 
ATOM      4  C   UNL     1      -3.002   3.395  -0.592  0.00  0.00    +0.123 A 
ATOM      5  C   UNL     1      -1.691   2.883  -1.002  0.00  0.00    +0.166 A 
ATOM      6  N   UNL     1      -1.200   3.227  -2.173  0.00  0.00    -0.225 NA
ATOM      7  C   UNL     1      -1.893   4.048  -2.972  0.00  0.00    +0.092 A 
ATOM      8  C   UNL     1      -1.372   4.427  -4.223  0.00  0.00    +0.030 A 
ATOM      9  C   UNL     1      -2.083   5.262  -5.029  0.00  0.00    +0.002 A 
ATOM     10  C   UNL     1      -3.326   5.752  -4.634  0.00  0.00    +0.002 A 
ATOM     11  C   UNL     1      -3.863   5.409  -3.432  0.00  0.00    +0.030 A 
ATOM     12  C   UNL     1      -3.157   4.547  -2.571  0.00  0.00    +0.090 A 
ATOM     13  N   UNL     1      -3.676   4.203  -1.386  0.00  0.00    -0.241 NA
ENDROOT
BRANCH   1  17
ATOM     14  C   UNL     1       2.396   0.031  -0.021  0.00  0.00    +0.000 A 
ATOM     15  C   UNL     1       1.208  -0.677  -0.013  0.00  0.00    +0.002 A 
ATOM     16  C   UNL     1       0.002  -0.004   0.002  0.00  0.00    +0.026 A 
ATOM     17  C   UNL     1      -0.017   1.384   0.010  0.00  0.00    +0.050 A 
ATOM     18  C   UNL     1       1.178   2.092   0.002  0.00  0.00    +0.026 A 
ATOM     19  C   UNL     1       2.381   1.413  -0.013  0.00  0.00    +0.002 A 
ENDBRANCH   1  17
BRANCH   3  20
ATOM     20  C   UNL     1      -4.424   3.029   1.581  0.00  0.00    +0.250 C 
ATOM     21  O   UNL     1      -4.444   3.949   2.378  0.00  0.00    -0.270 OA
ATOM     22  N   UNL     1      -5.486   2.206   1.473  0.00  0.00    -0.307 N 
ATOM     23  H   UNL     1      -5.470   1.474   0.838  0.00  0.00    +0.149 HD
BRANCH  22  24
ATOM     24  C   UNL     1      -6.665   2.419   2.317  0.00  0.00    +0.147 C 
BRANCH  24  25
ATOM     25  C   UNL     1      -7.702   1.371   2.003  0.00  0.00    +0.007 A 
ATOM     26  C   UNL     1      -7.873   0.146   2.558  0.00  0.00    +0.013 A 
ATOM     27  C   UNL     1      -8.907  -0.654   2.110  0.00  0.00    +0.008 A 
ATOM     28  C   UNL     1      -9.713  -0.195   1.122  0.00  0.00    +0.045 A 
ATOM     29  S   UNL     1      -9.020   1.418   0.799  0.00  0.00    -0.100 S 
ENDBRANCH  24  25
ENDBRANCH  22  24
ENDBRANCH   3  20
BRANCH   2  30
ATOM     30  N   UNL     1      -1.981   1.316   2.199  0.00  0.00    -0.343 N 
ATOM     31  H   UNL     1      -1.179   0.789   2.336  0.00  0.00    +0.144 HD
ATOM     32  H   UNL     1      -2.670   1.338   2.881  0.00  0.00    +0.144 HD
ENDBRANCH   2  30
TORSDOF 5
