REMARK  Name = ZINC60063285
REMARK  12 active torsions:
REMARK  status: ('A' for Active; 'I' for Inactive)
REMARK    1  A    between atoms: C_1  and  C_2
REMARK    2  A    between atoms: C_2  and  C_3
REMARK    3  A    between atoms: C_2  and  C_4
REMARK    4  A    between atoms: C_2  and  C_5
REMARK    5  A    between atoms: C_7  and  C_16
REMARK    6  A    between atoms: C_9  and  C_12
REMARK    7  A    between atoms: C_10  and  O_11
REMARK    8  A    between atoms: C_12  and  C_13
REMARK    9  A    between atoms: C_12  and  C_14
REMARK   10  A    between atoms: C_12  and  C_15
REMARK   11  A    between atoms: C_16  and  C_17
REMARK   12  A    between atoms: C_17  and  C_18
REMARK                            x       y       z     vdW  Elec       q    Type
REMARK                         _______ _______ _______ _____ _____    ______ ____
ROOT
ATOM      1  C   UNL     1       0.707  -0.490  -1.238  0.00  0.00    -0.000 A 
ATOM      2  C   UNL     1       1.217   0.419  -2.145  0.00  0.00    +0.011 A 
ATOM      3  C   UNL     1       1.864  -0.026  -3.283  0.00  0.00    -0.046 A 
ATOM      4  C   UNL     1       2.003  -1.382  -3.516  0.00  0.00    +0.011 A 
ATOM      5  C   UNL     1       1.496  -2.295  -2.612  0.00  0.00    -0.000 A 
ATOM      6  C   UNL     1       0.851  -1.851  -1.467  0.00  0.00    +0.124 A 
ENDROOT
BRANCH   1   8
ATOM      7  C   UNL     1      -0.019   1.526   0.010  0.00  0.00    +0.015 C 
ATOM      8  C   UNL     1       0.002  -0.004   0.002  0.00  0.00    -0.009 C 
ATOM      9  C   UNL     1       0.742  -0.511   1.242  0.00  0.00    +0.015 C 
ATOM     10  C   UNL     1      -1.433  -0.534   0.013  0.00  0.00    +0.015 C 
ENDBRANCH   1   8
BRANCH   5  11
ATOM     11  C   UNL     1       1.648  -3.773  -2.867  0.00  0.00    -0.009 C 
ATOM     12  C   UNL     1       2.396  -3.989  -4.184  0.00  0.00    +0.015 C 
ATOM     13  C   UNL     1       2.438  -4.409  -1.722  0.00  0.00    +0.015 C 
ATOM     14  C   UNL     1       0.264  -4.420  -2.953  0.00  0.00    +0.015 C 
ENDBRANCH   5  11
BRANCH   6  15
ATOM     15  O   UNL     1       0.356  -2.747  -0.573  0.00  0.00    -0.506 OA
ATOM     16  H   UNL     1      -0.556  -3.015  -0.749  0.00  0.00    +0.292 HD
ENDBRANCH   6  15
BRANCH   3  17
ATOM     17  C   UNL     1       2.418   0.968  -4.270  0.00  0.00    +0.044 C 
BRANCH  17  18
ATOM     18  C   UNL     1       3.861   1.311  -3.894  0.00  0.00    +0.101 C 
BRANCH  18  19
ATOM     19  C   UNL     1       4.415   2.305  -4.881  0.00  0.00    +0.219 C 
ATOM     20  O   UNL     1       3.724   2.700  -5.797  0.00  0.00    -0.275 OA
ATOM     21  N   UNL     1       5.678   2.756  -4.748  0.00  0.00    -0.269 N 
ATOM     22  C   UNL     1       6.193   3.680  -5.667  0.00  0.00    +0.147 A 
ATOM     23  C   UNL     1       5.506   4.223  -6.764  0.00  0.00    +0.064 A 
ATOM     24  C   UNL     1       6.345   5.071  -7.401  0.00  0.00    +0.107 A 
ATOM     25  N   UNL     1       7.520   5.069  -6.736  0.00  0.00    -0.283 N 
ATOM     26  H   UNL     1       8.307   5.586  -6.968  0.00  0.00    +0.188 HD
ATOM     27  N   UNL     1       7.401   4.194  -5.648  0.00  0.00    -0.159 NA
ATOM     28  H   UNL     1       6.231   2.440  -4.016  0.00  0.00    +0.156 HD
ENDBRANCH  18  19
ENDBRANCH  17  18
ENDBRANCH   3  17
TORSDOF 6
