REMARK  Name = ZINC64657057
REMARK  11 active torsions:
REMARK  status: ('A' for Active; 'I' for Inactive)
REMARK    1  A    between atoms: C_1  and  C_2
REMARK    2  A    between atoms: C_4  and  O_28
REMARK    3  A    between atoms: C_5  and  S_9
REMARK    4  A    between atoms: S_9  and  N_12
REMARK    5  A    between atoms: N_12  and  C_13
REMARK    6  A    between atoms: C_13  and  C_14
REMARK    7  A    between atoms: C_14  and  C_15
REMARK    8  A    between atoms: C_18  and  O_26
REMARK    9  A    between atoms: C_23  and  C_25
REMARK   10  A    between atoms: O_26  and  C_27
REMARK   11  A    between atoms: O_28  and  C_29
REMARK                            x       y       z     vdW  Elec       q    Type
REMARK                         _______ _______ _______ _____ _____    ______ ____
ROOT
ATOM      1  N   UNL     1      -1.600  -4.949  -0.389  0.00  0.00    -0.190 NA
ATOM      2  H   UNL     1      -1.179  -5.771  -0.091  0.00  0.00    +0.148 HD
ENDROOT
BRANCH   1   3
ATOM      3  S   UNL     1      -2.266  -3.912   0.717  0.00  0.00    +0.062 S 
ATOM      4  O   UNL     1      -1.789  -2.613   0.393  0.00  0.00    -0.153 OA
ATOM      5  O   UNL     1      -2.068  -4.500   1.995  0.00  0.00    -0.153 OA
BRANCH   3  10
ATOM      6  C   UNL     1      -8.225  -3.856  -0.252  0.00  0.00    +0.045 C 
ATOM      7  C   UNL     1      -6.737  -3.869  -0.012  0.00  0.00    -0.033 A 
ATOM      8  C   UNL     1      -5.885  -3.289  -0.933  0.00  0.00    +0.052 A 
ATOM      9  C   UNL     1      -4.516  -3.301  -0.712  0.00  0.00    +0.147 A 
ATOM     10  C   UNL     1      -4.005  -3.895   0.433  0.00  0.00    +0.148 A 
ATOM     11  C   UNL     1      -4.860  -4.473   1.351  0.00  0.00    +0.047 A 
ATOM     12  C   UNL     1      -6.226  -4.455   1.131  0.00  0.00    +0.023 A 
ATOM     13 BR   UNL     1      -7.395  -5.241   2.393  0.00  0.00    -0.050 Br
BRANCH   9  14
ATOM     14  O   UNL     1      -3.676  -2.732  -1.616  0.00  0.00    -0.493 OA
ATOM     15  C   UNL     1      -4.266  -2.195  -2.802  0.00  0.00    +0.277 C 
ENDBRANCH   9  14
ENDBRANCH   3  10
ENDBRANCH   1   3
BRANCH   1  16
ATOM     16  C   UNL     1      -1.646  -4.626  -1.817  0.00  0.00    +0.110 C 
BRANCH  16  17
ATOM     17  C   UNL     1      -2.848  -5.322  -2.459  0.00  0.00    +0.050 C 
BRANCH  17  18
ATOM     18  C   UNL     1      -2.886  -5.002  -3.932  0.00  0.00    -0.037 C 
ATOM     19  C   UNL     1      -2.013  -4.233  -4.619  0.00  0.00    +0.003 A 
ATOM     20  C   UNL     1      -0.812  -3.491  -4.221  0.00  0.00    +0.055 A 
ATOM     21  C   UNL     1      -0.120  -2.791  -5.152  0.00  0.00    +0.121 A 
ATOM     22  C   UNL     1      -0.512  -2.746  -6.501  0.00  0.00    +0.047 A 
ATOM     23  C   UNL     1      -1.602  -3.395  -6.963  0.00  0.00    +0.029 A 
ATOM     24  C   UNL     1      -2.425  -4.185  -6.041  0.00  0.00    +0.043 A 
ATOM     25  N   UNL     1      -3.509  -4.896  -6.225  0.00  0.00    -0.378 N 
ATOM     26  C   UNL     1      -3.906  -5.482  -4.940  0.00  0.00    +0.103 C 
ATOM     27  C   UNL     1      -3.885  -7.010  -5.024  0.00  0.00    +0.035 C 
ATOM     28  H   UNL     1      -3.970  -5.017  -7.069  0.00  0.00    +0.160 HD
BRANCH  21  29
ATOM     29  O   UNL     1       0.990  -2.108  -4.768  0.00  0.00    -0.495 OA
ATOM     30  C   UNL     1       1.689  -1.383  -5.782  0.00  0.00    +0.277 C 
ENDBRANCH  21  29
ENDBRANCH  17  18
ENDBRANCH  16  17
ENDBRANCH   1  16
TORSDOF 7
