REMARK  Name = ZINC10001293
REMARK  13 active torsions:
REMARK  status: ('A' for Active; 'I' for Inactive)
REMARK    1  A    between atoms: C_1  and  C_2
REMARK    2  A    between atoms: C_2  and  O_3
REMARK    3  A    between atoms: O_3  and  C_4
REMARK    4  A    between atoms: C_5  and  O_33
REMARK    5  A    between atoms: C_7  and  C_11
REMARK    6  A    between atoms: N_12  and  N_13
REMARK    7  A    between atoms: C_14  and  C_16
REMARK    8  A    between atoms: C_16  and  C_18
REMARK    9  A    between atoms: C_16  and  N_21
REMARK   10  A    between atoms: C_18  and  C_19
REMARK   11  A    between atoms: C_18  and  C_20
REMARK   12  A    between atoms: C_22  and  C_24
REMARK   13  A    between atoms: O_33  and  C_34
REMARK                            x       y       z     vdW  Elec       q    Type
REMARK                         _______ _______ _______ _____ _____    ______ ____
ROOT
ATOM      1  N   UNL     1       1.128  -1.172   8.381  0.00  0.00    -0.205 N 
ATOM      2  C   UNL     1       1.270  -2.498   8.577  0.00  0.00    +0.253 C 
ATOM      3  O   UNL     1       0.838  -3.282   7.758  0.00  0.00    -0.272 OA
ATOM      4  H   UNL     1       1.413  -0.547   9.066  0.00  0.00    +0.177 HD
ENDROOT
BRANCH   1   6
ATOM      5  C   UNL     1       0.433   0.581   6.998  0.00  0.00    +0.138 C 
ATOM      6  N   UNL     1       0.570  -0.696   7.187  0.00  0.00    -0.188 NA
BRANCH   5  10
ATOM      7  C   UNL     1      -1.263   2.018   3.377  0.00  0.00    +0.176 A 
ATOM      8  C   UNL     1      -0.855   2.920   4.358  0.00  0.00    +0.163 A 
ATOM      9  C   UNL     1      -0.303   2.455   5.537  0.00  0.00    +0.059 A 
ATOM     10  C   UNL     1      -0.155   1.081   5.742  0.00  0.00    -0.001 A 
ATOM     11  C   UNL     1      -0.566   0.183   4.755  0.00  0.00    +0.028 A 
ATOM     12  C   UNL     1      -1.121   0.653   3.582  0.00  0.00    +0.064 A 
ATOM     13 BR   UNL     1      -1.684  -0.565   2.250  0.00  0.00    -0.046 Br
BRANCH   8  14
ATOM     14  O   UNL     1      -1.000   4.257   4.155  0.00  0.00    -0.491 OA
ATOM     15  C   UNL     1      -0.560   5.123   5.203  0.00  0.00    +0.277 C 
ENDBRANCH   8  14
BRANCH   7  16
ATOM     16  O   UNL     1      -1.806   2.477   2.218  0.00  0.00    -0.487 OA
BRANCH  16  18
ATOM     17  C   UNL     1      -1.696   3.247  -0.070  0.00  0.00    +0.048 C 
ATOM     18  C   UNL     1      -0.907   2.743   1.140  0.00  0.00    +0.226 C 
ENDBRANCH  16  18
ENDBRANCH   7  16
ENDBRANCH   5  10
ENDBRANCH   1   6
BRANCH   2  19
ATOM     19  C   UNL     1       1.966  -3.006   9.813  0.00  0.00    +0.163 C 
BRANCH  19  20
ATOM     20  N   UNL     1       1.451  -4.335  10.152  0.00  0.00    -0.300 N 
ATOM     21  C   UNL     1       1.515  -4.779  11.423  0.00  0.00    +0.245 C 
ATOM     22  O   UNL     1       2.001  -4.077  12.288  0.00  0.00    -0.270 OA
ATOM     23  H   UNL     1       1.064  -4.896   9.461  0.00  0.00    +0.150 HD
BRANCH  21  24
ATOM     24  C   UNL     1       0.996  -6.118  11.764  0.00  0.00    +0.040 A 
ATOM     25  C   UNL     1       0.433  -6.925  10.772  0.00  0.00    +0.017 A 
ATOM     26  C   UNL     1      -0.046  -8.176  11.091  0.00  0.00    +0.050 A 
ATOM     27  C   UNL     1       0.018  -8.636  12.400  0.00  0.00    +0.166 A 
ATOM     28  C   UNL     1       0.575  -7.833  13.396  0.00  0.00    +0.167 A 
ATOM     29  C   UNL     1       1.062  -6.580  13.081  0.00  0.00    +0.062 A 
ATOM     30  O   UNL     1       0.519  -8.509  14.581  0.00  0.00    -0.453 OA
ATOM     31  C   UNL     1      -0.444  -9.560  14.379  0.00  0.00    +0.466 C 
ATOM     32  O   UNL     1      -0.384  -9.811  12.962  0.00  0.00    -0.453 OA
ENDBRANCH  21  24
ENDBRANCH  19  20
BRANCH  19  33
ATOM     33  C   UNL     1       3.471  -3.094   9.552  0.00  0.00    +0.012 C 
ATOM     34  C   UNL     1       4.018  -1.698   9.248  0.00  0.00    +0.009 C 
ATOM     35  C   UNL     1       4.172  -3.658  10.789  0.00  0.00    +0.009 C 
ENDBRANCH  19  33
ENDBRANCH   2  19
TORSDOF 9
