REMARK  Name = ZINC06444036
REMARK  10 active torsions:
REMARK  status: ('A' for Active; 'I' for Inactive)
REMARK    1  A    between atoms: C_1  and  C_2
REMARK    2  A    between atoms: C_12  and  C_14
REMARK    3  A    between atoms: C_14  and  C_16
REMARK    4  A    between atoms: C_14  and  N_68
REMARK    5  A    between atoms: N_20  and  C_21
REMARK    6  A    between atoms: C_21  and  C_22
REMARK    7  A    between atoms: C_28  and  C_29
REMARK    8  A    between atoms: C_28  and  N_68
REMARK    9  A    between atoms: C_36  and  C_37
REMARK   10  A    between atoms: C_36  and  N_68
REMARK                            x       y       z     vdW  Elec       q    Type
REMARK                         _______ _______ _______ _____ _____    ______ ____
ROOT
ATOM      1  C   UNL     1       7.163  -0.052  -0.047  0.00  0.00    +0.040 C 
ENDROOT
BRANCH   1  13
ATOM      2  C   UNL     1       0.939  -0.597  -2.089  0.00  0.00    +0.046 C 
ATOM      3  C   UNL     1       2.060  -1.602  -2.036  0.00  0.00    -0.026 A 
ATOM      4  C   UNL     1       1.853  -2.894  -2.469  0.00  0.00    +0.005 A 
ATOM      5  C   UNL     1       2.878  -3.829  -2.425  0.00  0.00    +0.001 A 
ATOM      6  C   UNL     1       4.113  -3.486  -1.952  0.00  0.00    +0.010 A 
ATOM      7  C   UNL     1       4.346  -2.180  -1.508  0.00  0.00    -0.001 A 
ATOM      8  C   UNL     1       3.309  -1.229  -1.550  0.00  0.00    +0.052 A 
ATOM      9  N   UNL     1       3.545   0.056  -1.111  0.00  0.00    -0.322 N 
ATOM     10  H   UNL     1       2.829   0.710  -1.141  0.00  0.00    +0.169 HD
ATOM     11  C   UNL     1       4.753   0.416  -0.642  0.00  0.00    +0.251 A 
ATOM     12  O   UNL     1       4.925   1.562  -0.263  0.00  0.00    -0.268 OA
ATOM     13  C   UNL     1       5.825  -0.499  -0.579  0.00  0.00    +0.011 A 
ATOM     14  C   UNL     1       5.657  -1.778  -0.995  0.00  0.00    +0.017 A 
ENDBRANCH   1  13
BRANCH   1  15
ATOM     15  C   UNL     1       7.029   0.309   1.410  0.00  0.00    +0.143 A 
ATOM     16  N   UNL     1       6.952   1.517   1.913  0.00  0.00    -0.115 NA
ATOM     17  N   UNL     1       6.846   1.409   3.192  0.00  0.00    -0.023 NA
ATOM     18  N   UNL     1       6.854   0.164   3.518  0.00  0.00    -0.044 NA
ATOM     19  N   UNL     1       6.960  -0.546   2.446  0.00  0.00    -0.228 N 
BRANCH  19  20
ATOM     20  C   UNL     1       7.001  -2.009   2.372  0.00  0.00    +0.178 C 
BRANCH  20  21
ATOM     21  C   UNL     1       8.454  -2.483   2.451  0.00  0.00    +0.140 C 
ATOM     22  C   UNL     1       8.503  -4.026   2.428  0.00  0.00    +0.035 C 
ATOM     23  C   UNL     1       9.631  -4.335   3.450  0.00  0.00    +0.031 C 
ATOM     24  C   UNL     1       9.425  -3.187   4.471  0.00  0.00    +0.160 C 
ATOM     25  O   UNL     1       9.040  -2.049   3.683  0.00  0.00    -0.375 OA
ENDBRANCH  20  21
ENDBRANCH  19  20
ENDBRANCH   1  15
BRANCH   1  26
ATOM     26  N   UNL     1       7.609   1.145  -0.792  0.00  0.00    +0.397 N 
ATOM     27  H   UNL     1       7.116   1.968  -0.427  0.00  0.00    -0.079 HD
BRANCH  26  28
ATOM     28  C   UNL     1       9.063   1.338  -0.613  0.00  0.00    -0.041 C 
BRANCH  28  29
ATOM     29  C   UNL     1       9.298   2.032   0.704  0.00  0.00    -0.064 A 
ATOM     30  C   UNL     1       9.137   3.401   0.801  0.00  0.00    +0.004 A 
ATOM     31  C   UNL     1       9.348   4.038   2.010  0.00  0.00    +0.038 A 
ATOM     32  C   UNL     1       9.731   3.305   3.120  0.00  0.00    +0.123 A 
ATOM     33  C   UNL     1       9.897   1.935   3.020  0.00  0.00    +0.038 A 
ATOM     34  C   UNL     1       9.681   1.299   1.812  0.00  0.00    +0.004 A 
ATOM     35  F   UNL     1       9.941   3.927   4.301  0.00  0.00    -0.205 F 
ENDBRANCH  28  29
ENDBRANCH  26  28
BRANCH  26  36
ATOM     36  C   UNL     1       7.292   0.993  -2.228  0.00  0.00    -0.001 C 
BRANCH  36  37
ATOM     37  C   UNL     1       7.498   2.320  -2.913  0.00  0.00    +0.089 A 
ATOM     38  C   UNL     1       8.605   2.699  -3.576  0.00  0.00    +0.042 A 
ATOM     39  C   UNL     1       8.366   4.007  -4.057  0.00  0.00    +0.041 A 
ATOM     40  C   UNL     1       7.131   4.351  -3.652  0.00  0.00    +0.195 A 
ATOM     41  O   UNL     1       6.610   3.325  -2.960  0.00  0.00    -0.470 OA
ENDBRANCH  36  37
ENDBRANCH  26  36
ENDBRANCH   1  26
TORSDOF 9
