REMARK  Name = ZINC10244610
REMARK  10 active torsions:
REMARK  status: ('A' for Active; 'I' for Inactive)
REMARK    1  A    between atoms: C_1  and  C_2
REMARK    2  A    between atoms: C_2  and  N_3
REMARK    3  A    between atoms: N_3  and  C_4
REMARK    4  A    between atoms: C_4  and  C_5
REMARK    5  A    between atoms: C_6  and  C_8
REMARK    6  A    between atoms: C_8  and  S_9
REMARK    7  A    between atoms: S_9  and  C_10
REMARK    8  A    between atoms: N_24  and  C_25
REMARK    9  A    between atoms: C_29  and  C_32
REMARK   10  A    between atoms: C_30  and  C_31
REMARK                            x       y       z     vdW  Elec       q    Type
REMARK                         _______ _______ _______ _____ _____    ______ ____
ROOT
ATOM      1  C   UNL     1       1.335   5.813   0.024  0.00  0.00    +0.177 A 
ATOM      2  N   UNL     1       0.771   4.627   0.022  0.00  0.00    -0.221 NA
ATOM      3  C   UNL     1       1.511   3.507   0.008  0.00  0.00    +0.104 A 
ATOM      4  C   UNL     1       1.184   2.074   0.002  0.00  0.00    +0.026 A 
ATOM      5  C   UNL     1      -0.017   1.362   0.009  0.00  0.00    +0.012 A 
ATOM      6  C   UNL     1       0.002  -0.004   0.002  0.00  0.00    +0.001 A 
ATOM      7  C   UNL     1       1.208  -0.691  -0.014  0.00  0.00    +0.002 A 
ATOM      8  C   UNL     1       2.404  -0.009  -0.021  0.00  0.00    +0.026 A 
ATOM      9  C   UNL     1       2.408   1.384  -0.013  0.00  0.00    +0.049 A 
ATOM     10  N   UNL     1       3.427   2.312  -0.018  0.00  0.00    -0.349 N 
ATOM     11  H   UNL     1       4.374   2.099  -0.028  0.00  0.00    +0.166 HD
ATOM     12  C   UNL     1       2.902   3.595  -0.005  0.00  0.00    +0.132 A 
ATOM     13  C   UNL     1       3.496   4.874  -0.003  0.00  0.00    +0.283 A 
ATOM     14  O   UNL     1       4.710   4.997  -0.014  0.00  0.00    -0.265 OA
ATOM     15  N   UNL     1       2.694   5.960   0.012  0.00  0.00    -0.254 N 
ENDROOT
BRANCH  15  16
ATOM     16  C   UNL     1       3.256   7.242   0.014  0.00  0.00    +0.055 A 
ATOM     17  C   UNL     1       3.548   7.872   1.218  0.00  0.00    +0.026 A 
ATOM     18  C   UNL     1       4.103   9.136   1.217  0.00  0.00    +0.002 A 
ATOM     19  C   UNL     1       4.369   9.776   0.020  0.00  0.00    +0.004 A 
ATOM     20  C   UNL     1       4.080   9.152  -1.180  0.00  0.00    -0.046 A 
ATOM     21  C   UNL     1       3.530   7.885  -1.186  0.00  0.00    -0.024 A 
ATOM     22  C   UNL     1       3.221   7.203  -2.494  0.00  0.00    +0.046 C 
ATOM     23  C   UNL     1       4.371   9.852  -2.482  0.00  0.00    +0.044 C 
ENDBRANCH  15  16
BRANCH   1  24
ATOM     24  S   UNL     1       0.316   7.251   0.042  0.00  0.00    -0.078 S 
BRANCH  24  25
ATOM     25  C   UNL     1      -1.320   6.476   0.052  0.00  0.00    +0.173 C 
BRANCH  25  27
ATOM     26  N   UNL     1      -3.685   7.200   0.079  0.00  0.00    -0.301 N 
ATOM     27  C   UNL     1      -2.382   7.545   0.069  0.00  0.00    +0.226 C 
ATOM     28  O   UNL     1      -2.064   8.715   0.073  0.00  0.00    -0.275 OA
BRANCH  26  30
ATOM     29  C   UNL     1      -4.189   5.285   1.514  0.00  0.00    +0.024 C 
ATOM     30  C   UNL     1      -4.068   5.786   0.074  0.00  0.00    +0.104 C 
ENDBRANCH  26  30
BRANCH  26  31
ATOM     31  C   UNL     1      -4.717   8.239   0.095  0.00  0.00    +0.104 C 
ATOM     32  C   UNL     1      -5.090   8.610  -1.342  0.00  0.00    +0.024 C 
ENDBRANCH  26  31
ENDBRANCH  25  27
ENDBRANCH  24  25
ENDBRANCH   1  24
TORSDOF 6
