REMARK  Name = ZINC36337322
REMARK  9 active torsions:
REMARK  status: ('A' for Active; 'I' for Inactive)
REMARK    1  A    between atoms: C_1  and  C_2
REMARK    2  A    between atoms: C_2  and  C_3
REMARK    3  A    between atoms: C_2  and  C_4
REMARK    4  A    between atoms: C_4  and  C_5
REMARK    5  A    between atoms: C_5  and  C_7
REMARK    6  A    between atoms: C_5  and  N_24
REMARK    7  A    between atoms: C_7  and  N_8
REMARK    8  A    between atoms: N_8  and  S_9
REMARK    9  A    between atoms: S_9  and  C_12
REMARK                            x       y       z     vdW  Elec       q    Type
REMARK                         _______ _______ _______ _____ _____    ______ ____
ROOT
ATOM      1  S   UNL     1      -4.305  -4.822   0.033  0.00  0.00    +0.058 S 
ATOM      2  O   UNL     1      -3.995  -6.208   0.088  0.00  0.00    -0.153 OA
ATOM      3  O   UNL     1      -5.027  -4.161   1.064  0.00  0.00    -0.153 OA
ENDROOT
BRANCH   1   4
ATOM      4  C   UNL     1      -5.210  -4.568  -1.457  0.00  0.00    +0.107 A 
ATOM      5  C   UNL     1      -6.057  -3.479  -1.572  0.00  0.00    +0.030 A 
ATOM      6  C   UNL     1      -6.771  -3.271  -2.736  0.00  0.00    +0.030 A 
ATOM      7  C   UNL     1      -6.638  -4.157  -3.795  0.00  0.00    +0.067 A 
ATOM      8  C   UNL     1      -5.784  -5.256  -3.679  0.00  0.00    +0.069 A 
ATOM      9  C   UNL     1      -5.067  -5.453  -2.508  0.00  0.00    +0.056 A 
ATOM     10  N   UNL     1      -5.858  -5.952  -4.883  0.00  0.00    -0.306 N 
ATOM     11  H   UNL     1      -5.373  -6.764  -5.100  0.00  0.00    +0.170 HD
ATOM     12  C   UNL     1      -6.718  -5.307  -5.694  0.00  0.00    +0.325 A 
ATOM     13  O   UNL     1      -7.011  -5.654  -6.822  0.00  0.00    -0.247 OA
ATOM     14  N   UNL     1      -7.205  -4.220  -5.065  0.00  0.00    -0.306 N 
ATOM     15  H   UNL     1      -7.842  -3.589  -5.435  0.00  0.00    +0.170 HD
ENDBRANCH   1   4
BRANCH   1  16
ATOM     16  N   UNL     1      -2.865  -4.020  -0.126  0.00  0.00    -0.192 NA
ATOM     17  H   UNL     1      -2.033  -4.518  -0.146  0.00  0.00    +0.148 HD
BRANCH  16  18
ATOM     18  C   UNL     1      -2.848  -2.560  -0.236  0.00  0.00    +0.090 C 
BRANCH  18  19
ATOM     19  C   UNL     1      -1.427  -2.046   0.003  0.00  0.00    -0.059 C 
BRANCH  19  20
ATOM     20  N   UNL     1      -0.939  -2.542   1.297  0.00  0.00    +0.381 N 
ATOM     21  H   UNL     1      -1.494  -2.144   2.040  0.00  0.00    -0.090 HD
ATOM     22  H   UNL     1      -1.014  -3.547   1.322  0.00  0.00    -0.090 HD
ATOM     23  H   UNL     1       0.026  -2.273   1.418  0.00  0.00    -0.090 HD
ENDBRANCH  19  20
BRANCH  19  24
ATOM     24  C   UNL     1      -1.432  -0.516   0.011  0.00  0.00    -0.012 C 
BRANCH  24  26
ATOM     25  C   UNL     1       0.790  -0.384  -1.123  0.00  0.00    +0.007 C 
ATOM     26  C   UNL     1       0.004  -0.003   0.133  0.00  0.00    -0.019 C 
ATOM     27  C   UNL     1      -0.010   1.520   0.282  0.00  0.00    +0.007 C 
ENDBRANCH  24  26
ENDBRANCH  19  24
ENDBRANCH  18  19
ENDBRANCH  16  18
ENDBRANCH   1  16
TORSDOF 7
