REMARK  Name = ZINC32972026
REMARK  19 active torsions:
REMARK  status: ('A' for Active; 'I' for Inactive)
REMARK    1  A    between atoms: C_1  and  C_2
REMARK    2  A    between atoms: C_2  and  C_3
REMARK    3  A    between atoms: C_2  and  C_4
REMARK    4  A    between atoms: C_4  and  N_5
REMARK    5  A    between atoms: C_6  and  N_38
REMARK    6  A    between atoms: C_7  and  N_14
REMARK    7  A    between atoms: N_14  and  C_15
REMARK    8  A    between atoms: C_15  and  C_16
REMARK    9  A    between atoms: C_16  and  C_17
REMARK   10  A    between atoms: C_16  and  C_18
REMARK   11  A    between atoms: C_19  and  C_21
REMARK   12  A    between atoms: C_21  and  N_22
REMARK   13  A    between atoms: N_22  and  C_23
REMARK   14  A    between atoms: C_24  and  C_26
REMARK   15  A    between atoms: C_27  and  C_28
REMARK   16  A    between atoms: C_32  and  O_36
REMARK   17  A    between atoms: C_33  and  O_34
REMARK   18  A    between atoms: O_34  and  C_35
REMARK   19  A    between atoms: O_36  and  C_37
REMARK                            x       y       z     vdW  Elec       q    Type
REMARK                         _______ _______ _______ _____ _____    ______ ____
ROOT
ATOM      1  N   UNL     1       2.935  -1.662   1.516  0.00  0.00    -0.263 N 
ATOM      2  C   UNL     1       1.768  -1.049   1.226  0.00  0.00    +0.237 C 
ATOM      3  O   UNL     1       0.995  -0.765   2.117  0.00  0.00    -0.274 OA
ENDROOT
BRANCH   1   6
ATOM      4  N   UNL     1       4.543  -1.950   4.807  0.00  0.00    -0.280 N 
ATOM      5  C   UNL     1       4.298  -1.542   3.516  0.00  0.00    +0.127 A 
ATOM      6  C   UNL     1       3.213  -2.061   2.840  0.00  0.00    +0.140 A 
ATOM      7  C   UNL     1       2.384  -2.989   3.497  0.00  0.00    +0.277 A 
ATOM      8  O   UNL     1       1.415  -3.459   2.925  0.00  0.00    -0.266 OA
ATOM      9  N   UNL     1       2.671  -3.360   4.760  0.00  0.00    -0.273 N 
ATOM     10  H   UNL     1       2.034  -4.092   5.277  0.00  0.00    +0.173 HD
ATOM     11  C   UNL     1       3.734  -2.844   5.403  0.00  0.00    +0.331 A 
ATOM     12  O   UNL     1       3.968  -3.193   6.545  0.00  0.00    -0.246 OA
BRANCH   5  13
ATOM     13  N   UNL     1       5.126  -0.630   2.907  0.00  0.00    -0.343 N 
ATOM     14  H   UNL     1       4.924  -0.308   1.875  0.00  0.00    +0.144 HD
ATOM     15  H   UNL     1       5.990  -0.221   3.451  0.00  0.00    +0.144 HD
ENDBRANCH   5  13
BRANCH   4  16
ATOM     16  C   UNL     1       5.692  -1.408   5.536  0.00  0.00    +0.131 C 
BRANCH  16  18
ATOM     17  C   UNL     1       6.433   0.353   7.146  0.00  0.00    +0.009 C 
ATOM     18  C   UNL     1       5.269  -0.144   6.287  0.00  0.00    +0.003 C 
ATOM     19  C   UNL     1       4.881   0.941   5.280  0.00  0.00    +0.009 C 
ENDBRANCH  16  18
ENDBRANCH   4  16
ENDBRANCH   1   6
BRANCH   1  20
ATOM     20  C   UNL     1       3.913  -1.914   0.455  0.00  0.00    +0.117 C 
BRANCH  20  21
ATOM     21  C   UNL     1       3.678  -3.305  -0.137  0.00  0.00    +0.001 C 
ATOM     22  C   UNL     1       4.591  -3.506  -1.348  0.00  0.00    +0.009 C 
ATOM     23  C   UNL     1       3.991  -4.367   0.919  0.00  0.00    +0.009 C 
ENDBRANCH  20  21
ENDBRANCH   1  20
BRANCH   2  24
ATOM     24  C   UNL     1       1.426  -0.718  -0.203  0.00  0.00    +0.204 C 
BRANCH  24  25
ATOM     25  N   UNL     1       0.068  -0.172  -0.266  0.00  0.00    -0.292 N 
ATOM     26  C   UNL     1      -1.074  -1.069  -0.458  0.00  0.00    +0.133 C 
ATOM     27  C   UNL     1      -0.131   1.156  -0.148  0.00  0.00    +0.240 C 
ATOM     28  O   UNL     1       0.817   1.901   0.012  0.00  0.00    -0.271 OA
BRANCH  27  29
ATOM     29  C   UNL     1      -1.486   1.701  -0.216  0.00  0.00    +0.068 C 
ATOM     30  C   UNL     1      -1.686   3.031  -0.097  0.00  0.00    +0.017 C 
BRANCH  30  31
ATOM     31  C   UNL     1      -3.048   3.579  -0.167  0.00  0.00    +0.020 A 
ATOM     32  C   UNL     1      -4.141   2.726  -0.361  0.00  0.00    +0.012 A 
ATOM     33  C   UNL     1      -5.416   3.244  -0.419  0.00  0.00    +0.004 A 
ATOM     34  C   UNL     1      -5.624   4.608  -0.297  0.00  0.00    +0.049 A 
ATOM     35  C   UNL     1      -4.553   5.466  -0.111  0.00  0.00    +0.162 A 
ATOM     36  C   UNL     1      -3.259   4.960  -0.043  0.00  0.00    +0.169 A 
BRANCH  36  37
ATOM     37  O   UNL     1      -2.207   5.798   0.141  0.00  0.00    -0.491 OA
ATOM     38  C   UNL     1      -1.587   6.329  -1.032  0.00  0.00    +0.277 C 
ENDBRANCH  36  37
BRANCH  35  39
ATOM     39  O   UNL     1      -4.766   6.804   0.008  0.00  0.00    -0.491 OA
ATOM     40  C   UNL     1      -6.120   7.255  -0.070  0.00  0.00    +0.277 C 
ENDBRANCH  35  39
ENDBRANCH  30  31
ENDBRANCH  27  29
ENDBRANCH  24  25
ENDBRANCH   2  24
TORSDOF 12
