REMARK  Name = ZINC02061130
REMARK  9 active torsions:
REMARK  status: ('A' for Active; 'I' for Inactive)
REMARK    1  A    between atoms: C_1  and  C_2
REMARK    2  A    between atoms: C_2  and  C_3
REMARK    3  A    between atoms: C_3  and  C_4
REMARK    4  A    between atoms: C_4  and  O_5
REMARK    5  A    between atoms: O_5  and  C_6
REMARK    6  A    between atoms: C_6  and  C_8
REMARK    7  A    between atoms: C_8  and  S_9
REMARK    8  A    between atoms: S_9  and  C_10
REMARK    9  A    between atoms: C_13  and  C_15
REMARK                            x       y       z     vdW  Elec       q    Type
REMARK                         _______ _______ _______ _____ _____    ______ ____
ROOT
ATOM      1  C   UNL     1      -4.064   1.847   0.031  0.00  0.00    +0.278 A 
ATOM      2  N   UNL     1      -4.009   3.158   0.038  0.00  0.00    -0.101 NA
ATOM      3  N   UNL     1      -5.203   3.637   0.046  0.00  0.00    -0.106 NA
ATOM      4  C   UNL     1      -6.068   2.652   0.045  0.00  0.00    +0.249 A 
ATOM      5  O   UNL     1      -5.365   1.497   0.030  0.00  0.00    -0.411 OA
ENDROOT
BRANCH   4   6
ATOM      6  C   UNL     1      -7.540   2.780   0.051  0.00  0.00    +0.039 A 
ATOM      7  C   UNL     1      -8.343   1.637   0.043  0.00  0.00    +0.014 A 
ATOM      8  C   UNL     1      -9.716   1.764   0.054  0.00  0.00    +0.016 A 
ATOM      9  C   UNL     1     -10.299   3.019   0.063  0.00  0.00    +0.018 A 
ATOM     10  C   UNL     1      -9.508   4.156   0.066  0.00  0.00    +0.016 A 
ATOM     11  C   UNL     1      -8.133   4.043   0.060  0.00  0.00    +0.014 A 
ATOM     12 BR   UNL     1     -12.183   3.183   0.072  0.00  0.00    -0.050 Br
ENDBRANCH   4   6
BRANCH   1  13
ATOM     13  S   UNL     1      -2.689   0.745   0.019  0.00  0.00    -0.054 S 
BRANCH  13  14
ATOM     14  C   UNL     1      -1.329   1.940   0.019  0.00  0.00    +0.199 C 
BRANCH  14  15
ATOM     15  C   UNL     1      -0.014   1.204   0.009  0.00  0.00    +0.318 C 
ATOM     16  O   UNL     1       0.002  -0.004   0.002  0.00  0.00    -0.250 OA
BRANCH  15  17
ATOM     17  O   UNL     1       1.139   1.891   0.001  0.00  0.00    -0.464 OA
BRANCH  17  18
ATOM     18  C   UNL     1       2.367   1.117  -0.015  0.00  0.00    +0.232 C 
BRANCH  18  19
ATOM     19  C   UNL     1       3.568   2.065  -0.021  0.00  0.00    +0.041 C 
BRANCH  19  21
ATOM     20  C   UNL     1       6.063   2.198  -0.044  0.00  0.00    +0.004 C 
ATOM     21  C   UNL     1       4.862   1.250  -0.038  0.00  0.00    -0.000 C 
ENDBRANCH  19  21
ENDBRANCH  18  19
ENDBRANCH  17  18
ENDBRANCH  15  17
ENDBRANCH  14  15
ENDBRANCH  13  14
ENDBRANCH   1  13
TORSDOF 8
