REMARK  Name = ZINC06019768
REMARK  4 active torsions:
REMARK  status: ('A' for Active; 'I' for Inactive)
REMARK    1  A    between atoms: C_1  and  S_2
REMARK    2  A    between atoms: S_2  and  C_3
REMARK    3  A    between atoms: C_3  and  C_4
REMARK    4  A    between atoms: N_7  and  N_11
REMARK                            x       y       z     vdW  Elec       q    Type
REMARK                         _______ _______ _______ _____ _____    ______ ____
ROOT
ATOM      1  C   UNL     1      -0.013   1.086   0.008  0.00  0.00    +0.207 C 
ATOM      2  C   UNL     1       1.423   1.646  -0.003  0.00  0.00    +0.175 C 
ATOM      3  N   UNL     1       1.513   2.404   1.254  0.00  0.00    -0.202 N 
ATOM      4  C   UNL     1       0.342   2.313   1.900  0.00  0.00    +0.417 C 
ATOM      5  O   UNL     1       0.132   2.846   2.972  0.00  0.00    -0.225 OA
ATOM      6  O   UNL     1      -0.576   1.582   1.257  0.00  0.00    -0.444 OA
ENDROOT
BRANCH   3   7
ATOM      7  N   UNL     1       2.610   3.089   1.692  0.00  0.00    -0.249 NA
ATOM      8  H   UNL     1       2.430   3.530   2.582  0.00  0.00    +0.141 HD
ATOM      9  H   UNL     1       3.417   2.485   1.744  0.00  0.00    +0.141 HD
ENDBRANCH   3   7
BRANCH   1  10
ATOM     10  C   UNL     1      -0.804   1.617  -1.189  0.00  0.00    +0.115 C 
BRANCH  10  12
ATOM     11  C   UNL     1      -3.298   1.698  -2.585  0.00  0.00    +0.084 C 
ATOM     12  S   UNL     1      -2.504   0.987  -1.117  0.00  0.00    -0.160 S 
ENDBRANCH  10  12
ENDBRANCH   1  10
TORSDOF 3
