REMARK  Name = ZINC22739796
REMARK  7 active torsions:
REMARK  status: ('A' for Active; 'I' for Inactive)
REMARK    1  A    between atoms: C_1  and  C_2
REMARK    2  A    between atoms: C_9  and  N_15
REMARK    3  A    between atoms: C_10  and  C_11
REMARK    4  A    between atoms: C_11  and  O_13
REMARK    5  A    between atoms: O_13  and  C_14
REMARK    6  A    between atoms: C_16  and  C_18
REMARK    7  A    between atoms: C_18  and  N_19
REMARK                            x       y       z     vdW  Elec       q    Type
REMARK                         _______ _______ _______ _____ _____    ______ ____
ROOT
ATOM      1  N   UNL     1       2.824   5.596  -1.661  0.00  0.00    -0.278 N 
ATOM      2  C   UNL     1       1.966   4.587  -1.413  0.00  0.00    +0.236 C 
ATOM      3  O   UNL     1       1.445   3.993  -2.333  0.00  0.00    -0.274 OA
ATOM      4  H   UNL     1       3.296   6.135  -0.827  0.00  0.00    +0.155 HD
ENDROOT
BRANCH   1  12
ATOM      5  C   UNL     1       4.249   7.247  -9.174  0.00  0.00    +0.008 C 
ATOM      6  C   UNL     1       4.455   7.026  -7.675  0.00  0.00    -0.009 C 
ATOM      7  C   UNL     1       4.521   8.379  -6.960  0.00  0.00    +0.008 C 
ATOM      8  C   UNL     1       4.973   8.182  -5.513  0.00  0.00    +0.037 C 
ATOM      9  C   UNL     1       4.085   7.130  -4.860  0.00  0.00    -0.021 A 
ATOM     10  C   UNL     1       3.349   6.280  -5.608  0.00  0.00    -0.004 A 
ATOM     11  S   UNL     1       2.498   5.264  -4.435  0.00  0.00    -0.077 S 
ATOM     12  C   UNL     1       3.111   5.955  -2.969  0.00  0.00    +0.086 A 
ATOM     13  C   UNL     1       3.955   6.960  -3.422  0.00  0.00    +0.091 A 
ATOM     14  C   UNL     1       3.278   6.222  -7.103  0.00  0.00    +0.046 C 
BRANCH  13  15
ATOM     15  C   UNL     1       4.689   7.815  -2.487  0.00  0.00    +0.342 C 
ATOM     16  O   UNL     1       5.799   7.490  -2.109  0.00  0.00    -0.245 OA
BRANCH  15  17
ATOM     17  O   UNL     1       4.135   8.963  -2.045  0.00  0.00    -0.464 OA
ATOM     18  C   UNL     1       4.920   9.760  -1.120  0.00  0.00    +0.280 C 
ENDBRANCH  15  17
ENDBRANCH  13  15
ENDBRANCH   1  12
BRANCH   2  19
ATOM     19  C   UNL     1       1.654   4.196   0.009  0.00  0.00    +0.214 C 
BRANCH  19  20
ATOM     20  N   UNL     1       0.703   3.082   0.012  0.00  0.00    -0.215 N 
ATOM     21  C   UNL     1      -0.640   3.230   0.026  0.00  0.00    +0.251 C 
ATOM     22  O   UNL     1      -1.266   4.268   0.038  0.00  0.00    -0.272 OA
ATOM     23  C   UNL     1      -1.193   1.829   0.017  0.00  0.00    +0.138 C 
ATOM     24  C   UNL     1      -2.074   1.584  -1.215  0.00  0.00    +0.045 C 
ATOM     25  C   UNL     1      -3.491   1.852  -0.659  0.00  0.00    +0.038 C 
ATOM     26  C   UNL     1      -3.394   1.580   0.828  0.00  0.00    -0.042 A 
ATOM     27  C   UNL     1      -2.064   1.571   1.216  0.00  0.00    -0.012 A 
ATOM     28  C   UNL     1      -1.739   1.345   2.543  0.00  0.00    +0.006 A 
ATOM     29  C   UNL     1      -2.733   1.128   3.478  0.00  0.00    +0.000 A 
ATOM     30  C   UNL     1      -4.059   1.136   3.088  0.00  0.00    +0.000 A 
ATOM     31  C   UNL     1      -4.387   1.361   1.766  0.00  0.00    +0.004 A 
ATOM     32  N   UNL     1      -0.011   0.966   0.007  0.00  0.00    -0.281 N 
ATOM     33  C   UNL     1       1.056   1.790   0.002  0.00  0.00    +0.310 C 
ATOM     34  O   UNL     1       2.208   1.405  -0.012  0.00  0.00    -0.252 OA
ATOM     35  H   UNL     1      -0.129  -0.128   0.006  0.00  0.00    +0.152 HD
ENDBRANCH  19  20
ENDBRANCH   2  19
TORSDOF 5
