REMARK  Name = ZINC40755891
REMARK  4 active torsions:
REMARK  status: ('A' for Active; 'I' for Inactive)
REMARK    1  A    between atoms: C_4  and  N_14
REMARK    2  A    between atoms: C_5  and  O_7
REMARK    3  A    between atoms: O_7  and  C_8
REMARK    4  A    between atoms: N_15  and  C_16
REMARK                            x       y       z     vdW  Elec       q    Type
REMARK                         _______ _______ _______ _____ _____    ______ ____
ROOT
ATOM      1  C   UNL     1      -0.016   1.313   0.009  0.00  0.00    +0.227 A 
ATOM      2  N   UNL     1       1.092   2.027   0.003  0.00  0.00    -0.219 NA
ATOM      3  C   UNL     1       2.284   1.437  -0.012  0.00  0.00    +0.147 A 
ATOM      4  C   UNL     1       2.348   0.041  -0.020  0.00  0.00    +0.127 A 
ATOM      5  C   UNL     1       1.151  -0.672  -0.013  0.00  0.00    +0.241 A 
ATOM      6  N   UNL     1       0.002  -0.004   0.002  0.00  0.00    -0.200 NA
ATOM      7  N   UNL     1       3.447   2.197  -0.019  0.00  0.00    -0.322 N 
ATOM      8  H   UNL     1       4.313   1.759  -0.030  0.00  0.00    +0.148 HD
ENDROOT
BRANCH   7   9
ATOM      9  C   UNL     1       3.367   3.660  -0.011  0.00  0.00    +0.034 C 
ATOM     10  C   UNL     1       2.631   4.123   1.247  0.00  0.00    +0.029 C 
ATOM     11  C   UNL     1       2.547   5.651   1.256  0.00  0.00    -0.008 C 
ATOM     12  C   UNL     1       3.959   6.239   1.245  0.00  0.00    +0.007 C 
ATOM     13  C   UNL     1       4.695   5.776  -0.014  0.00  0.00    -0.008 C 
ATOM     14  C   UNL     1       4.779   4.248  -0.022  0.00  0.00    +0.029 C 
ATOM     15  C   UNL     1       3.935   6.252  -1.253  0.00  0.00    +0.007 C 
ATOM     16  C   UNL     1       2.523   5.663  -1.242  0.00  0.00    -0.008 C 
ATOM     17  C   UNL     1       1.787   6.127   0.016  0.00  0.00    +0.007 C 
ATOM     18  C   UNL     1       2.607   4.136  -1.251  0.00  0.00    +0.029 C 
ENDBRANCH   7   9
BRANCH   4  19
ATOM     19  N   UNL     1       3.584  -0.624  -0.036  0.00  0.00    -0.351 N 
ATOM     20  H   UNL     1       4.410  -0.114  -0.042  0.00  0.00    +0.143 HD
ATOM     21  H   UNL     1       3.613  -1.593  -0.042  0.00  0.00    +0.143 HD
ENDBRANCH   4  19
BRANCH   5  22
ATOM     22  O   UNL     1       1.159  -2.029  -0.020  0.00  0.00    -0.472 OA
BRANCH  22  23
ATOM     23  C   UNL     1      -0.111  -2.685  -0.012  0.00  0.00    +0.175 C 
ATOM     24  C   UNL     1      -0.550  -2.927   1.434  0.00  0.00    +0.044 C 
ATOM     25  C   UNL     1      -1.909  -3.629   1.443  0.00  0.00    +0.004 C 
ATOM     26  C   UNL     1      -1.796  -4.969   0.713  0.00  0.00    +0.000 C 
ATOM     27  C   UNL     1      -1.357  -4.727  -0.733  0.00  0.00    +0.004 C 
ATOM     28  C   UNL     1       0.002  -4.025  -0.742  0.00  0.00    +0.044 C 
ENDBRANCH  22  23
ENDBRANCH   5  22
TORSDOF 4
