REMARK  Name = ZINC19930528
REMARK  9 active torsions:
REMARK  status: ('A' for Active; 'I' for Inactive)
REMARK    1  A    between atoms: C_1  and  C_2
REMARK    2  A    between atoms: C_2  and  C_4
REMARK    3  A    between atoms: C_2  and  O_27
REMARK    4  A    between atoms: C_4  and  N_5
REMARK    5  A    between atoms: C_13  and  C_14
REMARK    6  A    between atoms: C_14  and  C_16
REMARK    7  A    between atoms: C_14  and  N_26
REMARK    8  A    between atoms: C_21  and  O_22
REMARK    9  A    between atoms: O_22  and  C_23
REMARK                            x       y       z     vdW  Elec       q    Type
REMARK                         _______ _______ _______ _____ _____    ______ ____
ROOT
ATOM      1  N   UNL     1       0.617   1.396  -0.783  0.00  0.00    -0.324 N 
ATOM      2  C   UNL     1       0.806   0.201  -1.447  0.00  0.00    +0.069 A 
ATOM      3  C   UNL     1       0.008  -0.911  -1.684  0.00  0.00    +0.028 A 
ATOM      4  C   UNL     1       0.512  -1.972  -2.406  0.00  0.00    +0.002 A 
ATOM      5  C   UNL     1       1.809  -1.935  -2.897  0.00  0.00    +0.002 A 
ATOM      6  C   UNL     1       2.608  -0.850  -2.675  0.00  0.00    +0.030 A 
ATOM      7  C   UNL     1       2.119   0.237  -1.945  0.00  0.00    +0.089 A 
ATOM      8  N   UNL     1       2.653   1.427  -1.567  0.00  0.00    -0.230 NA
ATOM      9  C   UNL     1       1.774   2.104  -0.888  0.00  0.00    +0.132 A 
ENDROOT
BRANCH   1  10
ATOM     10  C   UNL     1      -0.605   1.825  -0.098  0.00  0.00    +0.154 C 
BRANCH  10  12
ATOM     11  C   UNL     1      -1.935   1.615   2.007  0.00  0.00    +0.039 C 
ATOM     12  C   UNL     1      -0.594   1.301   1.340  0.00  0.00    +0.131 C 
BRANCH  12  13
ATOM     13  O   UNL     1       0.460   1.932   2.069  0.00  0.00    -0.390 OA
ATOM     14  H   UNL     1       1.503   1.819   1.737  0.00  0.00    +0.210 HD
ENDBRANCH  12  13
ENDBRANCH  10  12
ENDBRANCH   1  10
BRANCH   9  15
ATOM     15  C   UNL     1       2.003   3.474  -0.302  0.00  0.00    +0.153 C 
BRANCH  15  16
ATOM     16  C   UNL     1       3.208   4.103  -0.954  0.00  0.00    +0.038 A 
ATOM     17  C   UNL     1       3.142   4.521  -2.271  0.00  0.00    +0.050 A 
ATOM     18  C   UNL     1       4.248   5.099  -2.870  0.00  0.00    +0.022 A 
ATOM     19  C   UNL     1       5.420   5.259  -2.154  0.00  0.00    +0.025 A 
ATOM     20  C   UNL     1       5.490   4.843  -0.838  0.00  0.00    +0.083 A 
ATOM     21  C   UNL     1       4.380   4.269  -0.233  0.00  0.00    +0.145 A 
ATOM     22 CL   UNL     1       6.962   5.046   0.060  0.00  0.00    -0.080 Cl
ATOM     23 CL   UNL     1       1.672   4.321  -3.173  0.00  0.00    -0.083 Cl
BRANCH  21  24
ATOM     24  O   UNL     1       4.445   3.864   1.063  0.00  0.00    -0.493 OA
ATOM     25  C   UNL     1       4.921   2.538   1.305  0.00  0.00    +0.277 C 
ENDBRANCH  21  24
ENDBRANCH  15  16
BRANCH  15  26
ATOM     26  N   UNL     1       0.822   4.313  -0.542  0.00  0.00    -0.317 NA
ATOM     27  H   UNL     1       0.990   5.313  -0.115  0.00  0.00    +0.119 HD
ATOM     28  H   UNL     1       0.649   4.401  -1.625  0.00  0.00    +0.119 HD
ENDBRANCH  15  26
ENDBRANCH   9  15
TORSDOF 7
