REMARK  Name = ZINC20288901
REMARK  12 active torsions:
REMARK  status: ('A' for Active; 'I' for Inactive)
REMARK    1  A    between atoms: C_1  and  C_2
REMARK    2  A    between atoms: C_3  and  C_8
REMARK    3  A    between atoms: C_8  and  S_9
REMARK    4  A    between atoms: S_9  and  C_10
REMARK    5  A    between atoms: C_10  and  C_11
REMARK    6  A    between atoms: C_11  and  N_12
REMARK    7  A    between atoms: N_12  and  C_13
REMARK    8  A    between atoms: C_13  and  C_35
REMARK    9  A    between atoms: C_15  and  C_27
REMARK   10  A    between atoms: N_17  and  C_20
REMARK   11  A    between atoms: C_30  and  O_33
REMARK   12  A    between atoms: O_33  and  C_34
REMARK                            x       y       z     vdW  Elec       q    Type
REMARK                         _______ _______ _______ _____ _____    ______ ____
ROOT
ATOM      1  C   UNL     1       3.786   1.274  -7.506  0.00  0.00    +0.015 C 
ATOM      2  C   UNL     1       3.816   1.678  -8.827  0.00  0.00    +0.083 C 
ATOM      3  C   UNL     1       5.008   2.021  -9.629  0.00  0.00    +0.103 C 
ATOM      4  N   UNL     1       4.587   2.349 -10.824  0.00  0.00    -0.171 NA
ATOM      5  N   UNL     1       3.196   2.253 -10.888  0.00  0.00    -0.156 N 
ATOM      6  C   UNL     1       2.706   1.845  -9.701  0.00  0.00    +0.274 C 
ATOM      7  O   UNL     1       1.533   1.658  -9.427  0.00  0.00    -0.268 OA
ATOM      8  C   UNL     1       5.074   1.066  -6.752  0.00  0.00    +0.061 C 
ENDROOT
BRANCH   5   9
ATOM      9  C   UNL     1       2.423   2.534 -12.022  0.00  0.00    +0.061 A 
ATOM     10  C   UNL     1       1.041   2.410 -11.970  0.00  0.00    +0.028 A 
ATOM     11  C   UNL     1       0.281   2.688 -13.089  0.00  0.00    +0.040 A 
ATOM     12  C   UNL     1       0.896   3.089 -14.263  0.00  0.00    +0.124 A 
ATOM     13  C   UNL     1       2.275   3.213 -14.317  0.00  0.00    +0.040 A 
ATOM     14  C   UNL     1       3.038   2.943 -13.198  0.00  0.00    +0.028 A 
ATOM     15  F   UNL     1       0.151   3.360 -15.356  0.00  0.00    -0.205 F 
ENDBRANCH   5   9
BRANCH   3  16
ATOM     16  C   UNL     1       6.415   1.998  -9.168  0.00  0.00    +0.003 A 
ATOM     17  C   UNL     1       7.012   0.790  -8.805  0.00  0.00    +0.013 A 
ATOM     18  C   UNL     1       8.322   0.772  -8.376  0.00  0.00    +0.046 A 
ATOM     19  C   UNL     1       9.048   1.954  -8.306  0.00  0.00    +0.120 A 
ATOM     20  C   UNL     1       8.457   3.158  -8.666  0.00  0.00    +0.046 A 
ATOM     21  C   UNL     1       7.149   3.183  -9.101  0.00  0.00    +0.013 A 
BRANCH  19  22
ATOM     22  O   UNL     1      10.339   1.933  -7.882  0.00  0.00    -0.495 OA
ATOM     23  C   UNL     1      11.026   3.185  -7.834  0.00  0.00    +0.277 C 
ENDBRANCH  19  22
ENDBRANCH   3  16
BRANCH   1  24
ATOM     24  N   UNL     1       2.603   1.066  -6.891  0.00  0.00    -0.346 N 
ATOM     25  H   UNL     1       1.774   1.200  -7.376  0.00  0.00    +0.146 HD
BRANCH  24  26
ATOM     26  C   UNL     1       2.571   0.638  -5.490  0.00  0.00    +0.112 C 
BRANCH  26  27
ATOM     27  C   UNL     1       1.118   0.476  -5.040  0.00  0.00    +0.088 C 
BRANCH  27  28
ATOM     28  S   UNL     1       1.078  -0.055  -3.306  0.00  0.00    -0.153 S 
BRANCH  28  29
ATOM     29  C   UNL     1      -0.691  -0.199  -2.931  0.00  0.00    +0.126 C 
BRANCH  29  32
ATOM     30  C   UNL     1      -0.948   1.678  -0.440  0.00  0.00    +0.065 C 
ATOM     31  C   UNL     1      -0.977   0.172  -0.431  0.00  0.00    +0.036 A 
ATOM     32  C   UNL     1      -0.867  -0.639  -1.501  0.00  0.00    +0.072 A 
ATOM     33  N   UNL     1      -0.942  -1.907  -1.069  0.00  0.00    -0.240 NA
ATOM     34  C   UNL     1      -1.094  -1.913   0.227  0.00  0.00    +0.197 A 
ATOM     35  N   UNL     1      -1.115  -0.636   0.665  0.00  0.00    -0.348 N 
ATOM     36  H   UNL     1      -1.213  -0.345   1.586  0.00  0.00    +0.166 HD
ENDBRANCH  29  32
ENDBRANCH  28  29
ENDBRANCH  27  28
ENDBRANCH  26  27
ENDBRANCH  24  26
ENDBRANCH   1  24
TORSDOF 9
