REMARK  Name = ZINC12343292
REMARK  5 active torsions:
REMARK  status: ('A' for Active; 'I' for Inactive)
REMARK    1  A    between atoms: C_1  and  C_2
REMARK    2  A    between atoms: C_2  and  C_24
REMARK    3  A    between atoms: N_3  and  N_4
REMARK    4  A    between atoms: C_7  and  C_18
REMARK    5  A    between atoms: C_9  and  C_11
REMARK                            x       y       z     vdW  Elec       q    Type
REMARK                         _______ _______ _______ _____ _____    ______ ____
ROOT
ATOM      1  N   UNL     1      -0.021   0.060  -2.335  0.00  0.00    -0.221 N 
ATOM      2  C   UNL     1      -0.023  -0.626  -3.539  0.00  0.00    +0.142 A 
ATOM      3  C   UNL     1      -0.044   0.068  -4.749  0.00  0.00    +0.073 A 
ATOM      4  C   UNL     1      -0.045  -0.665  -5.934  0.00  0.00    +0.077 A 
ATOM      5  N   UNL     1      -0.027  -1.996  -5.872  0.00  0.00    -0.227 NA
ATOM      6  C   UNL     1      -0.007  -2.620  -4.704  0.00  0.00    +0.162 A 
ATOM      7  N   UNL     1       0.000  -1.956  -3.557  0.00  0.00    -0.211 NA
ATOM      8  H   UNL     1      -0.034   1.030  -2.330  0.00  0.00    +0.176 HD
ENDROOT
BRANCH   6   9
ATOM      9  C   UNL     1       0.013  -4.103  -4.679  0.00  0.00    +0.019 A 
ATOM     10  C   UNL     1       0.005  -4.823  -5.872  0.00  0.00    +0.012 A 
ATOM     11  C   UNL     1       0.029  -6.202  -5.844  0.00  0.00    +0.016 A 
ATOM     12  C   UNL     1       0.050  -6.871  -4.632  0.00  0.00    +0.018 A 
ATOM     13  C   UNL     1       0.052  -6.161  -3.444  0.00  0.00    +0.016 A 
ATOM     14  C   UNL     1       0.034  -4.782  -3.462  0.00  0.00    +0.012 A 
ATOM     15 BR   UNL     1       0.074  -8.762  -4.600  0.00  0.00    -0.050 Br
ENDBRANCH   6   9
BRANCH   4  16
ATOM     16  C   UNL     1      -0.068   0.027  -7.246  0.00  0.00    +0.001 A 
ATOM     17  C   UNL     1      -0.093   1.419  -7.303  0.00  0.00    +0.010 A 
ATOM     18  C   UNL     1      -0.109   2.057  -8.526  0.00  0.00    +0.001 A 
ATOM     19  C   UNL     1      -0.110   1.317  -9.695  0.00  0.00    +0.000 A 
ATOM     20  C   UNL     1      -0.090  -0.065  -9.645  0.00  0.00    +0.001 A 
ATOM     21  C   UNL     1      -0.069  -0.714  -8.427  0.00  0.00    +0.010 A 
ENDBRANCH   4  16
BRANCH   1  24
ATOM     22  C   UNL     1      -0.018   1.503   0.010  0.00  0.00    +0.068 C 
ATOM     23  C   UNL     1       0.002  -0.004   0.002  0.00  0.00    +0.063 C 
ATOM     24  N   UNL     1       0.000  -0.647  -1.125  0.00  0.00    -0.186 NA
BRANCH  23  25
ATOM     25  C   UNL     1       0.024  -0.748   1.275  0.00  0.00    -0.002 A 
ATOM     26  C   UNL     1       0.032  -0.059   2.490  0.00  0.00    +0.012 A 
ATOM     27  C   UNL     1       0.047  -0.760   3.677  0.00  0.00    +0.039 A 
ATOM     28  C   UNL     1       0.066  -2.146   3.666  0.00  0.00    +0.123 A 
ATOM     29  C   UNL     1       0.064  -2.835   2.464  0.00  0.00    +0.039 A 
ATOM     30  C   UNL     1       0.043  -2.145   1.270  0.00  0.00    +0.012 A 
ATOM     31  F   UNL     1       0.086  -2.828   4.833  0.00  0.00    -0.205 F 
ENDBRANCH  23  25
ENDBRANCH   1  24
TORSDOF 4
