REMARK  Name = ZINC12487995
REMARK  12 active torsions:
REMARK  status: ('A' for Active; 'I' for Inactive)
REMARK    1  A    between atoms: C_1  and  C_2
REMARK    2  A    between atoms: C_5  and  C_8
REMARK    3  A    between atoms: C_8  and  C_10
REMARK    4  A    between atoms: C_8  and  N_19
REMARK    5  A    between atoms: N_12  and  C_13
REMARK    6  A    between atoms: C_13  and  C_14
REMARK    7  A    between atoms: N_19  and  C_20
REMARK    8  A    between atoms: C_22  and  C_27
REMARK    9  A    between atoms: C_25  and  C_26
REMARK   10  A    between atoms: C_28  and  C_30
REMARK   11  A    between atoms: C_30  and  N_31
REMARK   12  A    between atoms: C_32  and  C_34
REMARK                            x       y       z     vdW  Elec       q    Type
REMARK                         _______ _______ _______ _____ _____    ______ ____
ROOT
ATOM      1  N   UNL     1      -5.716   2.808   0.817  0.00  0.00    -0.254 N 
ATOM      2  C   UNL     1      -4.579   2.208   1.222  0.00  0.00    +0.238 C 
ATOM      3  O   UNL     1      -4.409   1.026   1.010  0.00  0.00    -0.274 OA
ENDROOT
BRANCH   1   4
ATOM      4  C   UNL     1      -5.913   4.172   1.062  0.00  0.00    +0.041 A 
ATOM      5  C   UNL     1      -5.407   5.118   0.180  0.00  0.00    +0.027 A 
ATOM      6  C   UNL     1      -5.607   6.462   0.422  0.00  0.00    -0.049 A 
ATOM      7  C   UNL     1      -6.301   6.868   1.548  0.00  0.00    +0.004 A 
ATOM      8  C   UNL     1      -6.801   5.929   2.431  0.00  0.00    +0.005 A 
ATOM      9  C   UNL     1      -6.609   4.582   2.192  0.00  0.00    -0.029 A 
ATOM     10  C   UNL     1      -7.153   3.559   3.155  0.00  0.00    +0.045 C 
ATOM     11  C   UNL     1      -5.064   7.489  -0.537  0.00  0.00    +0.044 C 
ENDBRANCH   1   4
BRANCH   1  12
ATOM     12  C   UNL     1      -6.745   2.034   0.119  0.00  0.00    +0.197 C 
BRANCH  12  17
ATOM     13  C   UNL     1     -11.403   5.347  -0.730  0.00  0.00    +0.044 C 
ATOM     14  C   UNL     1     -10.188   4.483  -0.509  0.00  0.00    -0.050 A 
ATOM     15  C   UNL     1     -10.284   3.340   0.263  0.00  0.00    +0.004 A 
ATOM     16  C   UNL     1      -9.170   2.547   0.467  0.00  0.00    +0.006 A 
ATOM     17  C   UNL     1      -7.960   2.897  -0.102  0.00  0.00    -0.018 A 
ATOM     18  C   UNL     1      -7.862   4.043  -0.871  0.00  0.00    +0.006 A 
ATOM     19  C   UNL     1      -8.978   4.832  -1.078  0.00  0.00    +0.004 A 
ENDBRANCH  12  17
BRANCH  12  20
ATOM     20  C   UNL     1      -6.209   1.569  -1.210  0.00  0.00    +0.239 C 
ATOM     21  O   UNL     1      -5.079   1.857  -1.542  0.00  0.00    -0.273 OA
ATOM     22  N   UNL     1      -6.986   0.834  -2.030  0.00  0.00    -0.306 N 
ATOM     23  H   UNL     1      -7.890   0.604  -1.764  0.00  0.00    +0.149 HD
BRANCH  22  24
ATOM     24  C   UNL     1      -6.465   0.382  -3.323  0.00  0.00    +0.178 C 
BRANCH  24  25
ATOM     25  C   UNL     1      -7.524  -0.415  -4.040  0.00  0.00    +0.122 A 
ATOM     26  C   UNL     1      -8.447   0.083  -4.883  0.00  0.00    +0.046 A 
ATOM     27  C   UNL     1      -9.231  -1.009  -5.323  0.00  0.00    +0.041 A 
ATOM     28  C   UNL     1      -8.740  -2.108  -4.722  0.00  0.00    +0.195 A 
ATOM     29  O   UNL     1      -7.703  -1.743  -3.951  0.00  0.00    -0.466 OA
ENDBRANCH  24  25
ENDBRANCH  22  24
ENDBRANCH  12  20
ENDBRANCH   1  12
BRANCH   2  30
ATOM     30  C   UNL     1      -3.521   3.005   1.940  0.00  0.00    +0.201 C 
BRANCH  30  31
ATOM     31  N   UNL     1      -2.393   2.131   2.272  0.00  0.00    -0.302 N 
ATOM     32  C   UNL     1      -1.322   2.629   2.921  0.00  0.00    +0.251 C 
ATOM     33  O   UNL     1      -1.292   3.806   3.231  0.00  0.00    -0.270 OA
ATOM     34  H   UNL     1      -2.417   1.193   2.026  0.00  0.00    +0.150 HD
BRANCH  32  35
ATOM     35  C   UNL     1      -0.194   1.755   3.254  0.00  0.00    +0.074 A 
ATOM     36  C   UNL     1       0.990   2.065   3.904  0.00  0.00    +0.021 A 
ATOM     37  C   UNL     1       1.891   1.045   4.084  0.00  0.00    +0.008 A 
ATOM     38  C   UNL     1       1.586  -0.197   3.626  0.00  0.00    +0.046 A 
ATOM     39  S   UNL     1       0.017   0.015   2.920  0.00  0.00    -0.092 S 
ENDBRANCH  32  35
ENDBRANCH  30  31
ENDBRANCH   2  30
TORSDOF 9
