REMARK  Name = ZINC01260309
REMARK  9 active torsions:
REMARK  status: ('A' for Active; 'I' for Inactive)
REMARK    1  A    between atoms: C_1  and  C_2
REMARK    2  A    between atoms: C_7  and  C_8
REMARK    3  A    between atoms: C_12  and  C_15
REMARK    4  A    between atoms: C_18  and  O_23
REMARK    5  A    between atoms: C_19  and  O_21
REMARK    6  A    between atoms: O_21  and  C_22
REMARK    7  A    between atoms: O_23  and  C_24
REMARK    8  A    between atoms: C_28  and  C_30
REMARK    9  A    between atoms: C_28  and  C_31
REMARK                            x       y       z     vdW  Elec       q    Type
REMARK                         _______ _______ _______ _____ _____    ______ ____
ROOT
ATOM      1  C   UNL     1      -2.537   4.025  -0.033  0.00  0.00    +0.044 C 
ATOM      2  C   UNL     1      -1.237   3.263  -0.028  0.00  0.00    -0.046 A 
ATOM      3  C   UNL     1      -0.036   3.951  -0.011  0.00  0.00    +0.028 A 
ATOM      4  C   UNL     1       1.155   3.244   0.001  0.00  0.00    +0.050 A 
ATOM      5  C   UNL     1       1.138   1.857  -0.044  0.00  0.00    +0.053 A 
ATOM      6  C   UNL     1      -0.062   1.170  -0.057  0.00  0.00    +0.028 A 
ATOM      7  C   UNL     1      -1.252   1.880  -0.046  0.00  0.00    -0.046 A 
ATOM      8  C   UNL     1      -2.566   1.143  -0.048  0.00  0.00    +0.044 C 
ATOM      9  N   UNL     1       2.366   1.211  -0.125  0.00  0.00    -0.316 N 
ATOM     10  C   UNL     1       3.320   1.231   0.841  0.00  0.00    +0.017 C 
ATOM     11  C   UNL     1       3.737   2.334   1.485  0.00  0.00    +0.036 C 
ATOM     12  C   UNL     1       3.220   3.736   1.267  0.00  0.00    +0.136 C 
ATOM     13  N   UNL     1       2.384   3.892   0.096  0.00  0.00    -0.331 N 
ATOM     14  C   UNL     1       4.740   2.242   2.479  0.00  0.00    +0.163 C 
ATOM     15  O   UNL     1       5.115   3.259   3.029  0.00  0.00    -0.292 OA
ATOM     16  C   UNL     1       5.356   0.935   2.878  0.00  0.00    +0.086 C 
ATOM     17  C   UNL     1       4.337  -0.182   2.629  0.00  0.00    -0.023 C 
ATOM     18  C   UNL     1       3.933  -0.124   1.157  0.00  0.00    +0.058 C 
ATOM     19  C   UNL     1       3.106   0.032   3.513  0.00  0.00    +0.011 C 
ATOM     20  C   UNL     1       4.969  -1.541   2.939  0.00  0.00    +0.011 C 
ATOM     21  H   UNL     1       2.556   0.708  -0.933  0.00  0.00    +0.152 HD
ATOM     22  H   UNL     1       2.684   4.456  -0.634  0.00  0.00    +0.147 HD
ENDROOT
BRANCH  12  23
ATOM     23  C   UNL     1       2.421   4.144   2.478  0.00  0.00    -0.019 A 
ATOM     24  C   UNL     1       1.267   3.456   2.807  0.00  0.00    +0.009 A 
ATOM     25  C   UNL     1       0.531   3.826   3.917  0.00  0.00    +0.050 A 
ATOM     26  C   UNL     1       0.949   4.889   4.703  0.00  0.00    +0.162 A 
ATOM     27  C   UNL     1       2.110   5.580   4.372  0.00  0.00    +0.162 A 
ATOM     28  C   UNL     1       2.846   5.201   3.261  0.00  0.00    +0.055 A 
BRANCH  27  29
ATOM     29  O   UNL     1       2.524   6.624   5.139  0.00  0.00    -0.491 OA
ATOM     30  C   UNL     1       3.724   7.287   4.740  0.00  0.00    +0.277 C 
ENDBRANCH  27  29
BRANCH  26  31
ATOM     31  O   UNL     1       0.225   5.255   5.795  0.00  0.00    -0.491 OA
ATOM     32  C   UNL     1      -0.956   4.500   6.073  0.00  0.00    +0.277 C 
ENDBRANCH  26  31
ENDBRANCH  12  23
TORSDOF 3
