REMARK  Name = ZINC45918774
REMARK  5 active torsions:
REMARK  status: ('A' for Active; 'I' for Inactive)
REMARK    1  A    between atoms: C_1  and  C_2
REMARK    2  A    between atoms: C_2  and  O_3
REMARK    3  A    between atoms: O_3  and  C_4
REMARK    4  A    between atoms: C_4  and  C_6
REMARK    5  A    between atoms: C_17  and  C_22
REMARK                            x       y       z     vdW  Elec       q    Type
REMARK                         _______ _______ _______ _____ _____    ______ ____
ROOT
ATOM      1  C   UNL     1       1.468  -2.353  -2.550  0.00  0.00    +0.186 C 
ATOM      2  C   UNL     1       2.934  -1.892  -2.578  0.00  0.00    +0.128 C 
ATOM      3  C   UNL     1       3.641  -2.487  -1.381  0.00  0.00    +0.017 A 
ATOM      4  C   UNL     1       4.778  -1.865  -0.897  0.00  0.00    +0.029 A 
ATOM      5  C   UNL     1       5.448  -2.391   0.192  0.00  0.00    +0.042 A 
ATOM      6  C   UNL     1       4.980  -3.544   0.798  0.00  0.00    +0.023 A 
ATOM      7  C   UNL     1       3.846  -4.166   0.318  0.00  0.00    +0.047 A 
ATOM      8  C   UNL     1       3.167  -3.637  -0.776  0.00  0.00    +0.129 A 
ATOM      9  O   UNL     1       2.045  -4.267  -1.209  0.00  0.00    -0.466 OA
ATOM     10  C   UNL     1       1.483  -3.887  -2.485  0.00  0.00    +0.208 C 
ATOM     11  N   UNL     1       2.267  -4.411  -3.600  0.00  0.00    -0.260 N 
ATOM     12  C   UNL     1       3.210  -3.679  -4.213  0.00  0.00    +0.303 C 
ATOM     13  O   UNL     1       3.776  -4.145  -5.182  0.00  0.00    -0.253 OA
ATOM     14  N   UNL     1       3.551  -2.447  -3.795  0.00  0.00    -0.291 N 
ATOM     15 CL   UNL     1       6.874  -1.607   0.797  0.00  0.00    -0.084 Cl
ATOM     16  H   UNL     1       2.100  -5.315  -3.908  0.00  0.00    +0.154 HD
ATOM     17  H   UNL     1       4.200  -1.925  -4.293  0.00  0.00    +0.151 HD
ENDROOT
BRANCH   1  18
ATOM     18  C   UNL     1       0.775  -1.794  -1.334  0.00  0.00    +0.318 C 
ATOM     19  O   UNL     1       0.314  -2.540  -0.504  0.00  0.00    -0.250 OA
BRANCH  18  20
ATOM     20  O   UNL     1       0.671  -0.465  -1.174  0.00  0.00    -0.465 OA
BRANCH  20  22
ATOM     21  C   UNL     1      -0.019   1.526   0.010  0.00  0.00    +0.048 C 
ATOM     22  C   UNL     1       0.002  -0.004   0.002  0.00  0.00    +0.229 C 
ENDBRANCH  20  22
ENDBRANCH  18  20
ENDBRANCH   1  18
BRANCH  10  23
ATOM     23  C   UNL     1       0.051  -4.415  -2.587  0.00  0.00    +0.178 C 
ATOM     24 CL   UNL     1       0.066  -6.216  -2.511  0.00  0.00    -0.119 Cl
ENDBRANCH  10  23
TORSDOF 4
