REMARK  Name = ZINC50305734
REMARK  11 active torsions:
REMARK  status: ('A' for Active; 'I' for Inactive)
REMARK    1  A    between atoms: C_1  and  C_2
REMARK    2  A    between atoms: C_3  and  N_19
REMARK    3  A    between atoms: C_4  and  C_8
REMARK    4  A    between atoms: N_10  and  C_11
REMARK    5  A    between atoms: N_10  and  C_15
REMARK    6  A    between atoms: C_11  and  C_12
REMARK    7  A    between atoms: C_12  and  C_13
REMARK    8  A    between atoms: C_12  and  C_14
REMARK    9  A    between atoms: C_15  and  C_16
REMARK   10  A    between atoms: C_16  and  C_17
REMARK   11  A    between atoms: C_16  and  C_18
REMARK                            x       y       z     vdW  Elec       q    Type
REMARK                         _______ _______ _______ _____ _____    ______ ____
ROOT
ATOM      1  C   UNL     1      -0.189  -3.420  -1.393  0.00  0.00    +0.269 C 
ATOM      2  O   UNL     1      -0.275  -3.379  -2.606  0.00  0.00    -0.268 OA
ATOM      3  N   UNL     1       0.164  -4.567  -0.781  0.00  0.00    -0.296 N 
ENDROOT
BRANCH   1   7
ATOM      4  C   UNL     1      -1.255   1.337   0.013  0.00  0.00    +0.067 C 
ATOM      5  C   UNL     1      -0.936  -0.136   0.004  0.00  0.00    +0.054 A 
ATOM      6  C   UNL     1      -0.739  -0.913  -1.095  0.00  0.00    +0.078 A 
ATOM      7  C   UNL     1      -0.470  -2.213  -0.594  0.00  0.00    +0.168 A 
ATOM      8  N   UNL     1      -0.519  -2.139   0.723  0.00  0.00    -0.167 NA
ATOM      9  N   UNL     1      -0.784  -0.937   1.091  0.00  0.00    -0.279 N 
ATOM     10  H   UNL     1      -0.866  -0.643   2.012  0.00  0.00    +0.189 HD
BRANCH   6  11
ATOM     11  N   UNL     1      -0.792  -0.514  -2.438  0.00  0.00    -0.355 N 
ATOM     12  H   UNL     1      -0.987   0.409  -2.663  0.00  0.00    +0.142 HD
ATOM     13  H   UNL     1      -0.634  -1.162  -3.143  0.00  0.00    +0.142 HD
ENDBRANCH   6  11
ENDBRANCH   1   7
BRANCH   3  14
ATOM     14  C   UNL     1       0.538  -5.738  -1.578  0.00  0.00    +0.111 C 
BRANCH  14  15
ATOM     15  C   UNL     1       2.045  -5.716  -1.841  0.00  0.00    +0.000 C 
ATOM     16  C   UNL     1       2.796  -5.870  -0.518  0.00  0.00    +0.009 C 
ATOM     17  C   UNL     1       2.416  -6.868  -2.776  0.00  0.00    +0.009 C 
ENDBRANCH  14  15
ENDBRANCH   3  14
BRANCH   3  18
ATOM     18  C   UNL     1       0.173  -4.643   0.682  0.00  0.00    +0.111 C 
BRANCH  18  19
ATOM     19  C   UNL     1      -1.241  -4.940   1.186  0.00  0.00    +0.000 C 
ATOM     20  C   UNL     1      -1.671  -6.329   0.711  0.00  0.00    +0.009 C 
ATOM     21  C   UNL     1      -1.257  -4.896   2.716  0.00  0.00    +0.009 C 
ENDBRANCH  18  19
ENDBRANCH   3  18
TORSDOF 6
