REMARK  Name = ZINC15016016
REMARK  5 active torsions:
REMARK  status: ('A' for Active; 'I' for Inactive)
REMARK    1  A    between atoms: C_10  and  S_13
REMARK    2  A    between atoms: S_13  and  C_14
REMARK    3  A    between atoms: C_14  and  C_15
REMARK    4  A    between atoms: C_23  and  C_26
REMARK    5  A    between atoms: C_29  and  O_32
REMARK                            x       y       z     vdW  Elec       q    Type
REMARK                         _______ _______ _______ _____ _____    ______ ____
ROOT
ATOM      1  C   UNL     1      10.150   7.313   0.393  0.00  0.00    +0.001 A 
ATOM      2  C   UNL     1      11.333   6.960  -0.233  0.00  0.00    +0.002 A 
ATOM      3  C   UNL     1      11.365   5.898  -1.119  0.00  0.00    +0.024 A 
ATOM      4  C   UNL     1      10.210   5.184  -1.381  0.00  0.00    +0.039 A 
ATOM      5  C   UNL     1       9.009   5.534  -0.737  0.00  0.00    +0.028 A 
ATOM      6  C   UNL     1       8.989   6.606   0.147  0.00  0.00    +0.012 A 
ATOM      7  C   UNL     1       7.794   4.741  -1.019  0.00  0.00    +0.156 A 
ATOM      8  C   UNL     1       7.445   4.451  -2.357  0.00  0.00    +0.248 A 
ATOM      9  N   UNL     1       6.361   3.732  -2.590  0.00  0.00    -0.184 NA
ATOM     10  C   UNL     1       5.630   3.307  -1.563  0.00  0.00    +0.213 A 
ATOM     11  N   UNL     1       5.969   3.599  -0.314  0.00  0.00    -0.122 NA
ATOM     12  N   UNL     1       7.021   4.290  -0.042  0.00  0.00    -0.141 NA
ATOM     13  O   UNL     1       8.216   4.915  -3.370  0.00  0.00    -0.449 OA
ATOM     14  C   UNL     1       9.485   4.301  -3.560  0.00  0.00    +0.294 C 
ATOM     15  N   UNL     1      10.199   4.129  -2.298  0.00  0.00    -0.305 N 
ATOM     16  H   UNL     1      10.656   3.297  -2.099  0.00  0.00    +0.150 HD
ENDROOT
BRANCH  14  17
ATOM     17  C   UNL     1      10.313   5.163  -4.478  0.00  0.00    +0.011 A 
ATOM     18  C   UNL     1       9.696   6.101  -5.286  0.00  0.00    +0.012 A 
ATOM     19  C   UNL     1      10.453   6.896  -6.124  0.00  0.00    +0.046 A 
ATOM     20  C   UNL     1      11.832   6.745  -6.164  0.00  0.00    +0.117 A 
ATOM     21  C   UNL     1      12.447   5.799  -5.357  0.00  0.00    +0.046 A 
ATOM     22  C   UNL     1      11.686   5.010  -4.516  0.00  0.00    +0.012 A 
BRANCH  20  23
ATOM     23  O   UNL     1      12.578   7.523  -6.992  0.00  0.00    -0.507 OA
ATOM     24  H   UNL     1      12.710   7.146  -7.873  0.00  0.00    +0.292 HD
ENDBRANCH  20  23
ENDBRANCH  14  17
BRANCH  10  25
ATOM     25  S   UNL     1       4.184   2.347  -1.867  0.00  0.00    -0.080 S 
BRANCH  25  26
ATOM     26  C   UNL     1       3.627   2.071  -0.167  0.00  0.00    +0.112 C 
BRANCH  26  27
ATOM     27  C   UNL     1       2.366   1.246  -0.179  0.00  0.00    -0.037 A 
ATOM     28  C   UNL     1       1.133   1.870  -0.235  0.00  0.00    +0.006 A 
ATOM     29  C   UNL     1      -0.024   1.114  -0.246  0.00  0.00    +0.020 A 
ATOM     30  C   UNL     1       0.051  -0.267  -0.200  0.00  0.00    +0.041 A 
ATOM     31  C   UNL     1       1.285  -0.890  -0.144  0.00  0.00    +0.020 A 
ATOM     32  C   UNL     1       2.442  -0.133  -0.133  0.00  0.00    +0.006 A 
ATOM     33 CL   UNL     1      -1.402  -1.216  -0.213  0.00  0.00    -0.084 Cl
ENDBRANCH  26  27
ENDBRANCH  25  26
ENDBRANCH  10  25
TORSDOF 5
