REMARK  Name = ZINC00882946
REMARK  6 active torsions:
REMARK  status: ('A' for Active; 'I' for Inactive)
REMARK    1  A    between atoms: C_1  and  C_2
REMARK    2  A    between atoms: C_8  and  C_10
REMARK    3  A    between atoms: C_10  and  S_11
REMARK    4  A    between atoms: S_11  and  C_12
REMARK    5  A    between atoms: C_17  and  C_25
REMARK    6  A    between atoms: C_17  and  C_26
REMARK                            x       y       z     vdW  Elec       q    Type
REMARK                         _______ _______ _______ _____ _____    ______ ____
ROOT
ATOM      1  C   UNL     1       0.122   0.990  -2.724  0.00  0.00    +0.193 A 
ATOM      2  N   UNL     1       1.204   0.254  -2.549  0.00  0.00    -0.122 NA
ATOM      3  N   UNL     1       1.702  -0.085  -3.691  0.00  0.00    -0.128 NA
ATOM      4  C   UNL     1       0.986   0.421  -4.646  0.00  0.00    +0.166 A 
ATOM      5  N   UNL     1      -0.060   1.114  -4.056  0.00  0.00    -0.296 N 
ATOM      6  C   UNL     1      -1.098   1.783  -4.833  0.00  0.00    +0.048 C 
ATOM      7  C   UNL     1      -0.521   2.303  -6.148  0.00  0.00    +0.064 C 
ATOM      8  C   UNL     1       0.334   1.283  -6.847  0.00  0.00    -0.034 A 
ATOM      9  C   UNL     1       1.120   0.385  -6.114  0.00  0.00    +0.023 A 
ATOM     10  C   UNL     1       1.947  -0.524  -6.760  0.00  0.00    +0.012 A 
ATOM     11  C   UNL     1       1.968  -0.562  -8.141  0.00  0.00    +0.001 A 
ATOM     12  C   UNL     1       1.170   0.303  -8.868  0.00  0.00    +0.000 A 
ATOM     13  C   UNL     1       0.358   1.222  -8.226  0.00  0.00    +0.004 A 
ATOM     14  C   UNL     1      -2.226   0.793  -5.131  0.00  0.00    +0.035 C 
ATOM     15  C   UNL     1      -1.655   2.959  -4.028  0.00  0.00    +0.035 C 
ENDROOT
BRANCH   1  16
ATOM     16  S   UNL     1      -0.888   1.685  -1.458  0.00  0.00    -0.077 S 
BRANCH  16  17
ATOM     17  C   UNL     1      -0.013   1.086   0.008  0.00  0.00    +0.173 C 
BRANCH  17  25
ATOM     18  C   UNL     1      -2.169   2.575   7.450  0.00  0.00    +0.053 C 
ATOM     19  C   UNL     1      -1.832   2.343   5.999  0.00  0.00    +0.008 A 
ATOM     20  C   UNL     1      -2.468   2.778   4.884  0.00  0.00    +0.124 A 
ATOM     21  N   UNL     1      -1.973   2.444   3.708  0.00  0.00    -0.233 NA
ATOM     22  C   UNL     1      -0.892   1.694   3.609  0.00  0.00    +0.165 A 
ATOM     23  S   UNL     1      -0.486   1.417   5.275  0.00  0.00    -0.057 S 
ATOM     24  N   UNL     1      -0.242   1.246   2.466  0.00  0.00    -0.264 N 
ATOM     25  C   UNL     1      -0.718   1.572   1.248  0.00  0.00    +0.229 C 
ATOM     26  O   UNL     1      -1.715   2.256   1.150  0.00  0.00    -0.275 OA
ATOM     27  H   UNL     1       0.555   0.699   2.544  0.00  0.00    +0.157 HD
ENDBRANCH  17  25
ENDBRANCH  16  17
ENDBRANCH   1  16
TORSDOF 3
