REMARK  Name = ZINC38491181
REMARK  12 active torsions:
REMARK  status: ('A' for Active; 'I' for Inactive)
REMARK    1  A    between atoms: C_1  and  C_2
REMARK    2  A    between atoms: C_5  and  N_8
REMARK    3  A    between atoms: C_9  and  C_27
REMARK    4  A    between atoms: C_10  and  C_13
REMARK    5  A    between atoms: N_15  and  C_16
REMARK    6  A    between atoms: C_19  and  C_26
REMARK    7  A    between atoms: C_22  and  C_24
REMARK    8  A    between atoms: C_22  and  C_25
REMARK    9  A    between atoms: C_27  and  S_28
REMARK   10  A    between atoms: S_28  and  C_29
REMARK   11  A    between atoms: C_31  and  C_36
REMARK   12  A    between atoms: C_33  and  C_35
REMARK                            x       y       z     vdW  Elec       q    Type
REMARK                         _______ _______ _______ _____ _____    ______ ____
ROOT
ATOM      1  N   UNL     1       0.059  -4.173  -0.021  0.00  0.00    -0.215 N 
ATOM      2  C   UNL     1       0.692  -4.975   0.863  0.00  0.00    +0.087 A 
ATOM      3  C   UNL     1       0.444  -6.261   0.476  0.00  0.00    +0.171 A 
ATOM      4  N   UNL     1      -0.327  -6.234  -0.624  0.00  0.00    -0.124 NA
ATOM      5  N   UNL     1      -0.580  -5.013  -0.944  0.00  0.00    -0.060 NA
ENDROOT
BRANCH   1  10
ATOM      6  C   UNL     1      -0.018   1.503   0.010  0.00  0.00    +0.044 C 
ATOM      7  C   UNL     1       0.002  -0.004   0.002  0.00  0.00    -0.050 A 
ATOM      8  C   UNL     1       0.006  -0.688  -1.200  0.00  0.00    +0.005 A 
ATOM      9  C   UNL     1       0.025  -2.068  -1.211  0.00  0.00    +0.028 A 
ATOM     10  C   UNL     1       0.041  -2.771  -0.013  0.00  0.00    +0.067 A 
ATOM     11  C   UNL     1       0.037  -2.082   1.192  0.00  0.00    +0.028 A 
ATOM     12  C   UNL     1       0.023  -0.700   1.196  0.00  0.00    +0.005 A 
ENDBRANCH   1  10
BRANCH   3  13
ATOM     13  C   UNL     1       0.939  -7.475   1.152  0.00  0.00    +0.266 C 
ATOM     14  O   UNL     1       1.634  -7.378   2.146  0.00  0.00    -0.268 OA
ATOM     15  N   UNL     1       0.622  -8.693   0.669  0.00  0.00    -0.307 N 
ATOM     16  H   UNL     1       0.068  -8.771  -0.124  0.00  0.00    +0.149 HD
BRANCH  15  17
ATOM     17  C   UNL     1       1.113  -9.898   1.340  0.00  0.00    +0.074 C 
ATOM     18  C   UNL     1       2.520 -10.226   0.835  0.00  0.00    +0.025 C 
ATOM     19  C   UNL     1       3.033 -11.485   1.536  0.00  0.00    -0.012 C 
ATOM     20  C   UNL     1       2.096 -12.656   1.232  0.00  0.00    +0.009 C 
ATOM     21  C   UNL     1       0.690 -12.329   1.737  0.00  0.00    -0.033 C 
ATOM     22  C   UNL     1       0.177 -11.069   1.036  0.00  0.00    +0.028 C 
ATOM     23  C   UNL     1      -0.247 -13.499   1.434  0.00  0.00    +0.011 C 
ATOM     24  C   UNL     1       0.734 -12.089   3.248  0.00  0.00    +0.011 C 
ATOM     25  C   UNL     1       4.440 -11.813   1.030  0.00  0.00    +0.007 C 
ENDBRANCH  15  17
ENDBRANCH   3  13
BRANCH   2  26
ATOM     26  C   UNL     1       1.514  -4.535   2.047  0.00  0.00    +0.135 C 
BRANCH  26  27
ATOM     27  S   UNL     1       0.444  -4.382   3.503  0.00  0.00    -0.080 S 
BRANCH  27  28
ATOM     28  C   UNL     1       1.538  -3.868   4.785  0.00  0.00    +0.189 A 
ATOM     29  N   UNL     1       2.822  -3.690   4.507  0.00  0.00    -0.227 NA
ATOM     30  C   UNL     1       3.670  -3.304   5.446  0.00  0.00    +0.043 A 
ATOM     31  C   UNL     1       3.201  -3.086   6.732  0.00  0.00    +0.046 A 
ATOM     32  C   UNL     1       1.853  -3.281   6.988  0.00  0.00    +0.043 A 
ATOM     33  N   UNL     1       1.057  -3.663   6.003  0.00  0.00    -0.227 NA
ATOM     34  C   UNL     1       1.299  -3.056   8.372  0.00  0.00    +0.066 C 
ATOM     35  C   UNL     1       5.128  -3.104   5.121  0.00  0.00    +0.066 C 
ENDBRANCH  27  28
ENDBRANCH  26  27
ENDBRANCH   2  26
TORSDOF 6
