REMARK  Name = ZINC17150189
REMARK  7 active torsions:
REMARK  status: ('A' for Active; 'I' for Inactive)
REMARK    1  A    between atoms: C_1  and  C_2
REMARK    2  A    between atoms: C_2  and  O_3
REMARK    3  A    between atoms: O_3  and  C_4
REMARK    4  A    between atoms: C_6  and  C_12
REMARK    5  A    between atoms: C_9  and  O_10
REMARK    6  A    between atoms: N_18  and  C_19
REMARK    7  A    between atoms: C_22  and  C_25
REMARK                            x       y       z     vdW  Elec       q    Type
REMARK                         _______ _______ _______ _____ _____    ______ ____
ROOT
ATOM      1  C   UNL     1       0.614  -4.949  -0.019  0.00  0.00    +0.028 C 
ATOM      2  C   UNL     1       0.452  -6.293   0.078  0.00  0.00    +0.078 C 
ATOM      3  C   UNL     1      -0.792  -7.087   0.095  0.00  0.00    +0.256 C 
ATOM      4  O   UNL     1      -1.885  -6.559   0.018  0.00  0.00    -0.269 OA
ATOM      5  N   UNL     1      -0.664  -8.399   0.199  0.00  0.00    -0.260 N 
ATOM      6  C   UNL     1       0.583  -8.979   0.286  0.00  0.00    +0.166 C 
ATOM      7  N   UNL     1       0.887 -10.253   0.393  0.00  0.00    -0.226 NA
ATOM      8  S   UNL     1       1.687  -7.577   0.210  0.00  0.00    -0.049 S 
ATOM      9  H   UNL     1      -1.456  -8.959   0.214  0.00  0.00    +0.157 HD
ENDROOT
BRANCH   1  12
ATOM     10  C   UNL     1      -1.738  -2.102  -0.678  0.00  0.00    +0.164 A 
ATOM     11  C   UNL     1      -0.638  -2.934  -0.761  0.00  0.00    +0.057 A 
ATOM     12  C   UNL     1      -0.553  -4.061   0.065  0.00  0.00    -0.019 A 
ATOM     13  C   UNL     1      -1.583  -4.339   0.972  0.00  0.00    +0.032 A 
ATOM     14  C   UNL     1      -2.677  -3.503   1.048  0.00  0.00    +0.087 A 
ATOM     15  C   UNL     1      -2.757  -2.382   0.231  0.00  0.00    +0.177 A 
ATOM     16 CL   UNL     1      -3.954  -3.849   2.171  0.00  0.00    -0.080 Cl
BRANCH  15  17
ATOM     17  O   UNL     1      -3.836  -1.559   0.314  0.00  0.00    -0.502 OA
ATOM     18  H   UNL     1      -4.563  -1.802  -0.276  0.00  0.00    +0.292 HD
ENDBRANCH  15  17
BRANCH  10  19
ATOM     19  O   UNL     1      -1.825  -1.007  -1.480  0.00  0.00    -0.489 OA
BRANCH  19  21
ATOM     20  C   UNL     1      -1.017   0.487  -3.199  0.00  0.00    +0.048 C 
ATOM     21  C   UNL     1      -0.744  -0.781  -2.388  0.00  0.00    +0.226 C 
ENDBRANCH  19  21
ENDBRANCH  10  19
ENDBRANCH   1  12
BRANCH   7  22
ATOM     22  C   UNL     1       2.197 -10.640   0.467  0.00  0.00    +0.067 A 
ATOM     23  C   UNL     1       3.143 -10.083  -0.396  0.00  0.00    +0.028 A 
ATOM     24  C   UNL     1       4.463 -10.478  -0.315  0.00  0.00    +0.005 A 
ATOM     25  C   UNL     1       4.849 -11.425   0.617  0.00  0.00    -0.050 A 
ATOM     26  C   UNL     1       3.916 -11.982   1.475  0.00  0.00    +0.005 A 
ATOM     27  C   UNL     1       2.595 -11.591   1.410  0.00  0.00    +0.028 A 
ATOM     28  C   UNL     1       6.292 -11.851   0.699  0.00  0.00    +0.044 C 
ENDBRANCH   7  22
TORSDOF 5
