REMARK  Name = ZINC20356335
REMARK  8 active torsions:
REMARK  status: ('A' for Active; 'I' for Inactive)
REMARK    1  A    between atoms: C_1  and  C_2
REMARK    2  A    between atoms: C_7  and  O_8
REMARK    3  A    between atoms: O_8  and  C_9
REMARK    4  A    between atoms: C_9  and  C_10
REMARK    5  A    between atoms: C_10  and  C_11
REMARK    6  A    between atoms: C_11  and  O_12
REMARK    7  A    between atoms: O_12  and  C_13
REMARK    8  A    between atoms: C_16  and  C_19
REMARK                            x       y       z     vdW  Elec       q    Type
REMARK                         _______ _______ _______ _____ _____    ______ ____
ROOT
ATOM      1  C   UNL     1       0.041  -0.333   8.635  0.00  0.00    +0.121 A 
ATOM      2  C   UNL     1      -0.184  -1.703   8.718  0.00  0.00    +0.046 A 
ATOM      3  C   UNL     1      -0.096  -2.341   9.922  0.00  0.00    +0.011 A 
ATOM      4  C   UNL     1       0.224  -1.612  11.077  0.00  0.00    -0.024 A 
ATOM      5  C   UNL     1       0.450  -0.231  10.987  0.00  0.00    +0.011 A 
ATOM      6  C   UNL     1       0.363   0.395   9.776  0.00  0.00    +0.046 A 
ENDROOT
BRANCH   4   7
ATOM      7  C   UNL     1       0.320  -2.290  12.372  0.00  0.00    +0.024 C 
ATOM      8  C   UNL     1       0.770  -3.590  12.436  0.00  0.00    +0.081 C 
ATOM      9  C   UNL     1       1.341  -4.283  11.247  0.00  0.00    +0.153 C 
ATOM     10  N   UNL     1       2.023  -3.669  10.317  0.00  0.00    -0.283 NA
ATOM     11  N   UNL     1       1.073  -5.667  11.224  0.00  0.00    -0.150 N 
ATOM     12  C   UNL     1       0.802  -6.283  12.425  0.00  0.00    +0.182 C 
ATOM     13  N   UNL     1       0.666  -5.718  13.599  0.00  0.00    -0.152 NA
ATOM     14  C   UNL     1       0.719  -4.374  13.695  0.00  0.00    +0.273 C 
ATOM     15  O   UNL     1       0.720  -3.818  14.782  0.00  0.00    -0.268 OA
ATOM     16  S   UNL     1       0.672  -7.987  11.952  0.00  0.00    -0.018 S 
ATOM     17  C   UNL     1       0.883  -7.759  10.191  0.00  0.00    +0.182 C 
ATOM     18  N   UNL     1       1.068  -6.466  10.100  0.00  0.00    -0.149 NA
ATOM     19  N   UNL     1       0.857  -8.708   9.182  0.00  0.00    -0.308 N 
ATOM     20  C   UNL     1       1.046  -8.440   7.749  0.00  0.00    +0.107 C 
ATOM     21  C   UNL     1       0.909  -9.787   7.009  0.00  0.00    +0.020 C 
ATOM     22  C   UNL     1       0.089 -10.649   8.005  0.00  0.00    +0.020 C 
ATOM     23  C   UNL     1       0.640 -10.155   9.368  0.00  0.00    +0.107 C 
ATOM     24  H   UNL     1       2.374  -4.168   9.563  0.00  0.00    +0.188 HD
ENDBRANCH   4   7
BRANCH   1  25
ATOM     25  O   UNL     1      -0.049   0.296   7.436  0.00  0.00    -0.492 OA
BRANCH  25  26
ATOM     26  C   UNL     1      -0.384  -0.510   6.305  0.00  0.00    +0.232 C 
BRANCH  26  27
ATOM     27  C   UNL     1      -0.438   0.366   5.052  0.00  0.00    +0.082 C 
BRANCH  27  28
ATOM     28  C   UNL     1      -0.796  -0.497   3.841  0.00  0.00    +0.232 C 
BRANCH  28  29
ATOM     29  O   UNL     1      -0.847   0.322   2.670  0.00  0.00    -0.492 OA
BRANCH  29  36
ATOM     30  C   UNL     1      -0.953   1.923   0.345  0.00  0.00    +0.047 C 
ATOM     31  C   UNL     1      -1.220   0.440   0.324  0.00  0.00    -0.009 A 
ATOM     32  C   UNL     1      -1.527  -0.190  -0.867  0.00  0.00    +0.007 A 
ATOM     33  C   UNL     1      -1.773  -1.550  -0.887  0.00  0.00    +0.000 A 
ATOM     34  C   UNL     1      -1.713  -2.284   0.284  0.00  0.00    +0.004 A 
ATOM     35  C   UNL     1      -1.407  -1.659   1.477  0.00  0.00    +0.046 A 
ATOM     36  C   UNL     1      -1.154  -0.295   1.499  0.00  0.00    +0.123 A 
ENDBRANCH  29  36
ENDBRANCH  28  29
ENDBRANCH  27  28
ENDBRANCH  26  27
ENDBRANCH  25  26
ENDBRANCH   1  25
TORSDOF 7
