REMARK  Name = ZINC14472816
REMARK  4 active torsions:
REMARK  status: ('A' for Active; 'I' for Inactive)
REMARK    1  A    between atoms: C_4  and  C_10
REMARK    2  A    between atoms: C_6  and  N_7
REMARK    3  A    between atoms: C_21  and  S_26
REMARK    4  A    between atoms: S_26  and  N_29
REMARK                            x       y       z     vdW  Elec       q    Type
REMARK                         _______ _______ _______ _____ _____    ______ ____
ROOT
ATOM      1  C   UNL     1       3.567   3.501  -0.497  0.00  0.00    +0.106 C 
ATOM      2  C   UNL     1       2.493   4.308   0.208  0.00  0.00    +0.029 C 
ATOM      3  C   UNL     1       2.640   4.207   1.745  0.00  0.00    +0.033 C 
ATOM      4  C   UNL     1       1.218   4.414   2.235  0.00  0.00    -0.030 C 
ATOM      5  C   UNL     1       0.361   4.136   1.284  0.00  0.00    -0.023 C 
ATOM      6  C   UNL     1       1.092   3.699   0.021  0.00  0.00    +0.049 C 
ATOM      7  C   UNL     1       1.118   2.194   0.013  0.00  0.00    -0.018 A 
ATOM      8  C   UNL     1      -0.097   1.521   0.025  0.00  0.00    +0.034 A 
ATOM      9  C   UNL     1      -0.132   0.141   0.027  0.00  0.00    +0.106 A 
ATOM     10  C   UNL     1       1.044  -0.587   0.014  0.00  0.00    +0.030 A 
ATOM     11  C   UNL     1       2.257   0.073  -0.001  0.00  0.00    +0.025 A 
ATOM     12  C   UNL     1       2.292   1.463  -0.002  0.00  0.00    +0.031 A 
ATOM     13  N   UNL     1       3.531   2.114  -0.021  0.00  0.00    -0.336 N 
ATOM     14  H   UNL     1       4.338   1.662   0.270  0.00  0.00    +0.147 HD
ENDROOT
BRANCH   1  18
ATOM     15  C   UNL     1       2.870   3.580  -4.711  0.00  0.00    +0.034 A 
ATOM     16  C   UNL     1       3.442   4.671  -4.086  0.00  0.00    +0.022 A 
ATOM     17  C   UNL     1       3.668   4.647  -2.721  0.00  0.00    +0.046 A 
ATOM     18  C   UNL     1       3.321   3.529  -1.983  0.00  0.00    -0.007 A 
ATOM     19  C   UNL     1       2.755   2.436  -2.610  0.00  0.00    +0.039 A 
ATOM     20  C   UNL     1       2.524   2.463  -3.973  0.00  0.00    +0.127 A 
ATOM     21 CL   UNL     1       4.388   6.017  -1.935  0.00  0.00    -0.083 Cl
BRANCH  20  22
ATOM     22  N   UNL     1       1.911   1.294  -4.644  0.00  0.00    +0.056 N 
ATOM     23  O   UNL     1       1.712   1.317  -5.845  0.00  0.00    -0.126 OA
ATOM     24  O   UNL     1       1.606   0.311  -3.994  0.00  0.00    -0.126 OA
ENDBRANCH  20  22
ENDBRANCH   1  18
BRANCH   9  25
ATOM     25  S   UNL     1      -1.682  -0.697   0.044  0.00  0.00    +0.061 S 
ATOM     26  O   UNL     1      -1.441  -1.985   0.593  0.00  0.00    -0.153 OA
ATOM     27  O   UNL     1      -2.625   0.206   0.604  0.00  0.00    -0.153 OA
BRANCH  25  28
ATOM     28  N   UNL     1      -2.129  -0.931  -1.533  0.00  0.00    -0.172 NA
ATOM     29  C   UNL     1      -2.939   0.069  -2.247  0.00  0.00    +0.137 C 
ATOM     30  C   UNL     1      -2.247   0.381  -3.584  0.00  0.00    +0.177 C 
ATOM     31  O   UNL     1      -1.994  -0.844  -4.277  0.00  0.00    -0.377 OA
ATOM     32  C   UNL     1      -1.105  -1.731  -3.595  0.00  0.00    +0.177 C 
ATOM     33  C   UNL     1      -1.734  -2.147  -2.260  0.00  0.00    +0.137 C 
ENDBRANCH  25  28
ENDBRANCH   9  25
TORSDOF 4
