REMARK  Name = ZINC23936362
REMARK  7 active torsions:
REMARK  status: ('A' for Active; 'I' for Inactive)
REMARK    1  A    between atoms: C_4  and  C_7
REMARK    2  A    between atoms: C_7  and  N_8
REMARK    3  A    between atoms: C_9  and  C_25
REMARK    4  A    between atoms: C_12  and  S_13
REMARK    5  A    between atoms: S_13  and  C_14
REMARK    6  A    between atoms: C_14  and  C_15
REMARK    7  A    between atoms: C_25  and  N_26
REMARK                            x       y       z     vdW  Elec       q    Type
REMARK                         _______ _______ _______ _____ _____    ______ ____
ROOT
ATOM      1  N   UNL     1       4.152  -0.952   1.338  0.00  0.00    -0.303 N 
ATOM      2  C   UNL     1       4.928  -0.137   2.114  0.00  0.00    +0.118 A 
ATOM      3  N   UNL     1       5.082  -0.728   3.265  0.00  0.00    -0.135 NA
ATOM      4  N   UNL     1       4.461  -1.854   3.269  0.00  0.00    -0.123 NA
ATOM      5  C   UNL     1       3.868  -2.040   2.113  0.00  0.00    +0.192 A 
ENDROOT
BRANCH   1   6
ATOM      6  C   UNL     1       3.711  -0.707  -0.038  0.00  0.00    +0.160 C 
BRANCH   6  10
ATOM      7  C   UNL     1      -0.017   1.378   0.010  0.00  0.00    +0.000 A 
ATOM      8  C   UNL     1       1.171   2.086   0.002  0.00  0.00    +0.000 A 
ATOM      9  C   UNL     1       2.377   1.411  -0.013  0.00  0.00    +0.005 A 
ATOM     10  C   UNL     1       2.396   0.029  -0.020  0.00  0.00    -0.028 A 
ATOM     11  C   UNL     1       1.208  -0.679  -0.012  0.00  0.00    +0.005 A 
ATOM     12  C   UNL     1       0.002  -0.004   0.002  0.00  0.00    +0.000 A 
ENDBRANCH   6  10
ENDBRANCH   1   6
BRANCH   5  13
ATOM     13  S   UNL     1       2.893  -3.432   1.648  0.00  0.00    -0.078 S 
BRANCH  13  14
ATOM     14  C   UNL     1       2.916  -4.494   3.118  0.00  0.00    +0.151 C 
BRANCH  14  15
ATOM     15  C   UNL     1       2.107  -5.738   2.852  0.00  0.00    +0.121 A 
ATOM     16  N   UNL     1       1.537  -5.895   1.688  0.00  0.00    -0.226 NA
ATOM     17  C   UNL     1       0.816  -6.980   1.419  0.00  0.00    +0.115 A 
ATOM     18  C   UNL     1       0.633  -8.005   2.365  0.00  0.00    +0.072 A 
ATOM     19  C   UNL     1      -0.180  -9.119   1.913  0.00  0.00    +0.023 A 
ATOM     20  C   UNL     1      -0.684  -9.100   0.669  0.00  0.00    +0.048 A 
ATOM     21  S   UNL     1      -0.091  -7.554   0.006  0.00  0.00    -0.077 S 
ATOM     22  C   UNL     1       1.272  -7.800   3.631  0.00  0.00    +0.260 A 
ATOM     23  O   UNL     1       1.171  -8.632   4.516  0.00  0.00    -0.267 OA
ATOM     24  N   UNL     1       1.989  -6.678   3.825  0.00  0.00    -0.310 N 
ATOM     25  H   UNL     1       2.427  -6.536   4.678  0.00  0.00    +0.170 HD
ENDBRANCH  14  15
ENDBRANCH  13  14
ENDBRANCH   5  13
BRANCH   2  26
ATOM     26  C   UNL     1       5.499   1.199   1.713  0.00  0.00    -0.001 C 
BRANCH  26  27
ATOM     27  N   UNL     1       4.547   2.263   2.058  0.00  0.00    +0.384 N 
ATOM     28  C   UNL     1       4.446   2.401   3.534  0.00  0.00    -0.078 C 
ATOM     29  C   UNL     1       3.904   3.840   3.719  0.00  0.00    -0.020 C 
ATOM     30  C   UNL     1       4.625   4.628   2.601  0.00  0.00    -0.020 C 
ATOM     31  C   UNL     1       5.038   3.567   1.564  0.00  0.00    -0.078 C 
ATOM     32  H   UNL     1       3.640   2.060   1.664  0.00  0.00    -0.081 HD
ENDBRANCH  26  27
ENDBRANCH   2  26
TORSDOF 7
