REMARK  Name = ZINC34834852
REMARK  13 active torsions:
REMARK  status: ('A' for Active; 'I' for Inactive)
REMARK    1  A    between atoms: C_1  and  C_2
REMARK    2  A    between atoms: C_3  and  C_20
REMARK    3  A    between atoms: C_4  and  N_13
REMARK    4  A    between atoms: N_5  and  C_7
REMARK    5  A    between atoms: N_16  and  C_19
REMARK    6  A    between atoms: C_20  and  N_21
REMARK    7  A    between atoms: N_21  and  C_22
REMARK    8  A    between atoms: N_21  and  S_26
REMARK    9  A    between atoms: C_22  and  C_23
REMARK   10  A    between atoms: C_23  and  C_24
REMARK   11  A    between atoms: C_23  and  C_25
REMARK   12  A    between atoms: S_26  and  C_29
REMARK   13  A    between atoms: C_30  and  C_31
REMARK                            x       y       z     vdW  Elec       q    Type
REMARK                         _______ _______ _______ _____ _____    ______ ____
ROOT
ATOM      1  C   UNL     1       0.392   0.954   0.102  0.00  0.00    +0.068 C 
ATOM      2  C   UNL     1       0.456  -0.428  -0.494  0.00  0.00    +0.067 A 
ATOM      3  C   UNL     1       0.354  -0.737  -1.854  0.00  0.00    +0.031 A 
ATOM      4  C   UNL     1       0.461  -2.088  -1.984  0.00  0.00    +0.129 A 
ATOM      5  N   UNL     1       0.625  -2.607  -0.737  0.00  0.00    -0.218 N 
ATOM      6  N   UNL     1       0.622  -1.542   0.173  0.00  0.00    -0.170 NA
ENDROOT
BRANCH   4   7
ATOM      7  N   UNL     1       0.411  -2.807  -3.175  0.00  0.00    -0.318 N 
ATOM      8  C   UNL     1       1.645  -3.249  -3.843  0.00  0.00    +0.088 C 
ATOM      9  C   UNL     1       1.519  -4.744  -4.156  0.00  0.00    -0.060 C 
ATOM     10  N   UNL     1       0.293  -4.980  -4.928  0.00  0.00    +0.380 N 
ATOM     11  C   UNL     1      -0.883  -4.646  -4.115  0.00  0.00    -0.060 C 
ATOM     12  C   UNL     1      -0.876  -3.151  -3.798  0.00  0.00    +0.088 C 
ATOM     13  C   UNL     1       0.229  -6.394  -5.321  0.00  0.00    -0.096 C 
ATOM     14  H   UNL     1       0.303  -4.404  -5.756  0.00  0.00    -0.082 HD
ENDBRANCH   4   7
BRANCH   5  15
ATOM     15  C   UNL     1       0.774  -3.964  -0.419  0.00  0.00    +0.067 A 
ATOM     16  C   UNL     1      -0.081  -4.906  -0.976  0.00  0.00    +0.028 A 
ATOM     17  C   UNL     1       0.069  -6.243  -0.661  0.00  0.00    +0.002 A 
ATOM     18  C   UNL     1       1.069  -6.643   0.206  0.00  0.00    +0.000 A 
ATOM     19  C   UNL     1       1.921  -5.707   0.762  0.00  0.00    +0.002 A 
ATOM     20  C   UNL     1       1.780  -4.369   0.447  0.00  0.00    +0.028 A 
ENDBRANCH   5  15
BRANCH   3  21
ATOM     21  C   UNL     1       0.161   0.250  -2.975  0.00  0.00    +0.149 C 
BRANCH  21  22
ATOM     22  N   UNL     1       1.466   0.746  -3.420  0.00  0.00    -0.172 NA
BRANCH  22  23
ATOM     23  S   UNL     1       2.085   2.140  -2.776  0.00  0.00    +0.054 S 
ATOM     24  O   UNL     1       2.854   2.755  -3.802  0.00  0.00    -0.153 OA
ATOM     25  O   UNL     1       1.007   2.804  -2.131  0.00  0.00    -0.153 OA
BRANCH  23  26
ATOM     26  C   UNL     1       3.218   1.672  -1.511  0.00  0.00    +0.153 C 
ATOM     27  C   UNL     1       4.510   1.938  -1.645  0.00  0.00    +0.028 C 
BRANCH  27  28
ATOM     28  C   UNL     1       5.460   1.545  -0.583  0.00  0.00    -0.024 A 
ATOM     29  C   UNL     1       5.001   0.889   0.559  0.00  0.00    +0.008 A 
ATOM     30  C   UNL     1       5.894   0.524   1.547  0.00  0.00    +0.001 A 
ATOM     31  C   UNL     1       7.240   0.809   1.406  0.00  0.00    +0.000 A 
ATOM     32  C   UNL     1       7.701   1.460   0.276  0.00  0.00    +0.001 A 
ATOM     33  C   UNL     1       6.820   1.824  -0.722  0.00  0.00    +0.008 A 
ENDBRANCH  27  28
ENDBRANCH  23  26
ENDBRANCH  22  23
BRANCH  22  34
ATOM     34  C   UNL     1       2.224   0.008  -4.434  0.00  0.00    +0.112 C 
BRANCH  34  35
ATOM     35  C   UNL     1       1.783   0.459  -5.828  0.00  0.00    -0.001 C 
ATOM     36  C   UNL     1       2.640  -0.241  -6.885  0.00  0.00    +0.008 C 
ATOM     37  C   UNL     1       0.313   0.095  -6.041  0.00  0.00    +0.008 C 
ENDBRANCH  34  35
ENDBRANCH  22  34
ENDBRANCH  21  22
ENDBRANCH   3  21
TORSDOF 9
