REMARK  Name = ZINC09387197
REMARK  15 active torsions:
REMARK  status: ('A' for Active; 'I' for Inactive)
REMARK    1  A    between atoms: C_1  and  C_2
REMARK    2  A    between atoms: C_5  and  S_8
REMARK    3  A    between atoms: S_8  and  C_11
REMARK    4  A    between atoms: C_11  and  C_12
REMARK    5  A    between atoms: C_12  and  C_13
REMARK    6  A    between atoms: N_15  and  C_16
REMARK    7  A    between atoms: C_16  and  C_17
REMARK    8  A    between atoms: C_17  and  C_18
REMARK    9  A    between atoms: C_18  and  N_65
REMARK   10  A    between atoms: C_19  and  N_65
REMARK   11  A    between atoms: C_20  and  N_65
REMARK   12  A    between atoms: C_24  and  O_32
REMARK   13  A    between atoms: C_27  and  O_30
REMARK   14  A    between atoms: O_30  and  C_31
REMARK   15  A    between atoms: O_32  and  C_33
REMARK                            x       y       z     vdW  Elec       q    Type
REMARK                         _______ _______ _______ _____ _____    ______ ____
ROOT
ATOM      1  C   UNL     1       4.076   5.834  -0.007  0.00  0.00    +0.223 C 
ATOM      2  O   UNL     1       2.912   6.174   0.006  0.00  0.00    -0.275 OA
ATOM      3  N   UNL     1       4.395   4.524  -0.016  0.00  0.00    -0.250 N 
ATOM      4  C   UNL     1       3.393   3.567  -0.011  0.00  0.00    +0.168 A 
ATOM      5  N   UNL     1       3.504   2.259  -0.020  0.00  0.00    -0.221 NA
ATOM      6  C   UNL     1       2.430   1.439  -0.013  0.00  0.00    +0.125 A 
ATOM      7  C   UNL     1       2.412   0.020  -0.021  0.00  0.00    +0.147 A 
ATOM      8  C   UNL     1       1.222  -0.667  -0.013  0.00  0.00    +0.051 A 
ATOM      9  C   UNL     1       0.002  -0.004   0.002  0.00  0.00    +0.050 A 
ATOM     10  C   UNL     1      -0.017   1.382   0.010  0.00  0.00    +0.136 A 
ATOM     11  C   UNL     1       1.172   2.078   0.002  0.00  0.00    +0.086 A 
ATOM     12  S   UNL     1       1.621   3.797   0.007  0.00  0.00    -0.048 S 
ENDROOT
BRANCH  10  13
ATOM     13  O   UNL     1      -1.202   2.050   0.019  0.00  0.00    -0.494 OA
ATOM     14  C   UNL     1      -2.392   1.260   0.020  0.00  0.00    +0.277 C 
ENDBRANCH  10  13
BRANCH   7  15
ATOM     15  O   UNL     1       3.585  -0.667  -0.036  0.00  0.00    -0.493 OA
ATOM     16  C   UNL     1       3.501  -2.094  -0.043  0.00  0.00    +0.277 C 
ENDBRANCH   7  15
BRANCH   1  17
ATOM     17  C   UNL     1       5.165   6.875  -0.013  0.00  0.00    +0.119 C 
BRANCH  17  18
ATOM     18  C   UNL     1       4.537   8.270   0.000  0.00  0.00    +0.181 C 
BRANCH  18  19
ATOM     19  S   UNL     1       5.848   9.524  -0.006  0.00  0.00    -0.003 S 
ATOM     20  O   UNL     1       6.563   9.491   1.221  0.00  0.00    -0.169 OA
ATOM     21  O   UNL     1       6.539   9.503  -1.248  0.00  0.00    -0.169 OA
BRANCH  19  26
ATOM     22  C   UNL     1       2.941  14.810   0.047  0.00  0.00    +0.044 C 
ATOM     23  C   UNL     1       3.667  13.490   0.033  0.00  0.00    -0.050 A 
ATOM     24  C   UNL     1       4.011  12.878   1.224  0.00  0.00    +0.005 A 
ATOM     25  C   UNL     1       4.677  11.667   1.212  0.00  0.00    +0.027 A 
ATOM     26  C   UNL     1       4.999  11.068   0.009  0.00  0.00    +0.088 A 
ATOM     27  C   UNL     1       4.659  11.681  -1.182  0.00  0.00    +0.027 A 
ATOM     28  C   UNL     1       3.989  12.890  -1.170  0.00  0.00    +0.005 A 
ENDBRANCH  19  26
ENDBRANCH  18  19
ENDBRANCH  17  18
ENDBRANCH   1  17
BRANCH   3  29
ATOM     29  C   UNL     1       5.801   4.114  -0.032  0.00  0.00    +0.114 C 
BRANCH  29  30
ATOM     30  C   UNL     1       6.277   3.977  -1.480  0.00  0.00    +0.001 C 
BRANCH  30  31
ATOM     31  C   UNL     1       7.745   3.548  -1.496  0.00  0.00    -0.078 C 
BRANCH  31  34
ATOM     32  C   UNL     1       9.659   3.240  -2.947  0.00  0.00    -0.097 C 
ATOM     33  C   UNL     1       7.508   2.316  -3.566  0.00  0.00    -0.097 C 
ATOM     34  N   UNL     1       8.195   3.442  -2.900  0.00  0.00    +0.376 N 
ATOM     35  H   UNL     1       7.963   4.313  -3.391  0.00  0.00    -0.083 HD
ENDBRANCH  31  34
ENDBRANCH  30  31
ENDBRANCH  29  30
ENDBRANCH   3  29
TORSDOF 10
