REMARK  Name = ZINC67452633
REMARK  8 active torsions:
REMARK  status: ('A' for Active; 'I' for Inactive)
REMARK    1  A    between atoms: C_3  and  O_21
REMARK    2  A    between atoms: C_6  and  C_7
REMARK    3  A    between atoms: C_7  and  N_8
REMARK    4  A    between atoms: N_8  and  C_9
REMARK    5  A    between atoms: C_9  and  C_11
REMARK    6  A    between atoms: C_9  and  C_18
REMARK    7  A    between atoms: O_21  and  C_22
REMARK    8  A    between atoms: C_25  and  N_28
REMARK                            x       y       z     vdW  Elec       q    Type
REMARK                         _______ _______ _______ _____ _____    ______ ____
ROOT
ATOM      1  C   UNL     1       0.138   1.316  -1.012  0.00  0.00    +0.008 A 
ATOM      2  C   UNL     1       1.272   2.044  -0.712  0.00  0.00    +0.046 A 
ATOM      3  C   UNL     1       2.430   1.390  -0.317  0.00  0.00    +0.128 A 
ATOM      4  C   UNL     1       2.445   0.005  -0.225  0.00  0.00    +0.046 A 
ATOM      5  C   UNL     1       1.307  -0.718  -0.526  0.00  0.00    +0.008 A 
ATOM      6  C   UNL     1       0.155  -0.063  -0.919  0.00  0.00    -0.033 A 
ENDROOT
BRANCH   6   7
ATOM      7  C   UNL     1      -1.085  -0.855  -1.248  0.00  0.00    +0.117 C 
BRANCH   7   8
ATOM      8  N   UNL     1      -1.084  -1.196  -2.677  0.00  0.00    -0.298 NA
ATOM      9  H   UNL     1      -1.006  -0.366  -3.246  0.00  0.00    +0.123 HD
BRANCH   8  10
ATOM     10  C   UNL     1      -2.281  -1.969  -3.034  0.00  0.00    +0.171 C 
BRANCH  10  11
ATOM     11  C   UNL     1      -2.580  -1.784  -4.500  0.00  0.00    -0.021 A 
ATOM     12  C   UNL     1      -1.546  -1.759  -5.418  0.00  0.00    +0.008 A 
ATOM     13  C   UNL     1      -1.819  -1.590  -6.762  0.00  0.00    +0.038 A 
ATOM     14  C   UNL     1      -3.128  -1.444  -7.189  0.00  0.00    +0.123 A 
ATOM     15  C   UNL     1      -4.162  -1.469  -6.268  0.00  0.00    +0.038 A 
ATOM     16  C   UNL     1      -3.887  -1.644  -4.925  0.00  0.00    +0.008 A 
ATOM     17  F   UNL     1      -3.396  -1.278  -8.502  0.00  0.00    -0.205 F 
ENDBRANCH  10  11
BRANCH  10  18
ATOM     18  C   UNL     1      -2.038  -3.429  -2.752  0.00  0.00    +0.232 C 
ATOM     19  O   UNL     1      -0.973  -3.790  -2.298  0.00  0.00    -0.274 OA
ATOM     20  N   UNL     1      -3.004  -4.334  -3.004  0.00  0.00    -0.328 N 
ATOM     21  H   UNL     1      -3.856  -4.046  -3.367  0.00  0.00    +0.145 HD
ATOM     22  H   UNL     1      -2.848  -5.274  -2.822  0.00  0.00    +0.145 HD
ENDBRANCH  10  18
ENDBRANCH   8  10
ENDBRANCH   7   8
ENDBRANCH   6   7
BRANCH   3  23
ATOM     23  O   UNL     1       3.548   2.103  -0.021  0.00  0.00    -0.456 OA
BRANCH  23  24
ATOM     24  C   UNL     1       3.485   3.457  -0.118  0.00  0.00    +0.129 A 
ATOM     25  C   UNL     1       3.108   4.216   0.981  0.00  0.00    +0.048 A 
ATOM     26  C   UNL     1       3.044   5.592   0.879  0.00  0.00    +0.036 A 
ATOM     27  C   UNL     1       3.357   6.214  -0.316  0.00  0.00    +0.126 A 
ATOM     28  C   UNL     1       3.733   5.460  -1.412  0.00  0.00    +0.036 A 
ATOM     29  C   UNL     1       3.804   4.084  -1.315  0.00  0.00    +0.048 A 
BRANCH  27  30
ATOM     30  N   UNL     1       3.288   7.689  -0.422  0.00  0.00    +0.056 N 
ATOM     31  O   UNL     1       2.959   8.349   0.536  0.00  0.00    -0.126 OA
ATOM     32  O   UNL     1       3.561   8.233  -1.466  0.00  0.00    -0.126 OA
ENDBRANCH  27  30
ENDBRANCH  23  24
ENDBRANCH   3  23
TORSDOF 8
