REMARK  Name = ZINC35777181
REMARK  15 active torsions:
REMARK  status: ('A' for Active; 'I' for Inactive)
REMARK    1  A    between atoms: C_1  and  C_2
REMARK    2  A    between atoms: C_3  and  C_21
REMARK    3  A    between atoms: C_4  and  O_14
REMARK    4  A    between atoms: N_5  and  C_7
REMARK    5  A    between atoms: O_14  and  C_15
REMARK    6  A    between atoms: C_21  and  N_22
REMARK    7  A    between atoms: N_22  and  C_23
REMARK    8  A    between atoms: N_22  and  C_27
REMARK    9  A    between atoms: C_23  and  C_24
REMARK   10  A    between atoms: C_27  and  C_28
REMARK   11  A    between atoms: C_28  and  C_30
REMARK   12  A    between atoms: C_28  and  O_39
REMARK   13  A    between atoms: C_30  and  O_31
REMARK   14  A    between atoms: O_31  and  C_32
REMARK   15  A    between atoms: C_32  and  C_33
REMARK                            x       y       z     vdW  Elec       q    Type
REMARK                         _______ _______ _______ _____ _____    ______ ____
ROOT
ATOM      1  C   UNL     1       0.432  -3.855  -2.785  0.00  0.00    +0.068 C 
ATOM      2  C   UNL     1      -0.627  -2.943  -3.349  0.00  0.00    +0.065 A 
ATOM      3  C   UNL     1      -0.733  -1.569  -3.112  0.00  0.00    +0.021 A 
ATOM      4  C   UNL     1      -1.815  -1.109  -3.796  0.00  0.00    +0.225 A 
ATOM      5  N   UNL     1      -2.370  -2.170  -4.442  0.00  0.00    -0.200 N 
ATOM      6  N   UNL     1      -1.601  -3.302  -4.146  0.00  0.00    -0.168 NA
ENDROOT
BRANCH   5   7
ATOM      7  C   UNL     1      -3.507  -2.134  -5.261  0.00  0.00    +0.069 A 
ATOM      8  C   UNL     1      -4.618  -1.395  -4.878  0.00  0.00    +0.029 A 
ATOM      9  C   UNL     1      -5.737  -1.361  -5.688  0.00  0.00    +0.022 A 
ATOM     10  C   UNL     1      -5.751  -2.064  -6.880  0.00  0.00    +0.041 A 
ATOM     11  C   UNL     1      -4.645  -2.802  -7.263  0.00  0.00    +0.022 A 
ATOM     12  C   UNL     1      -3.522  -2.834  -6.460  0.00  0.00    +0.029 A 
ATOM     13 CL   UNL     1      -7.158  -2.019  -7.895  0.00  0.00    -0.084 Cl
ENDBRANCH   5   7
BRANCH   4  14
ATOM     14  O   UNL     1      -2.260   0.172  -3.827  0.00  0.00    -0.438 OA
BRANCH  14  15
ATOM     15  C   UNL     1      -3.101   0.580  -2.840  0.00  0.00    +0.130 A 
ATOM     16  C   UNL     1      -3.390  -0.267  -1.780  0.00  0.00    +0.046 A 
ATOM     17  C   UNL     1      -4.246   0.150  -0.778  0.00  0.00    +0.004 A 
ATOM     18  C   UNL     1      -4.814   1.409  -0.832  0.00  0.00    +0.000 A 
ATOM     19  C   UNL     1      -4.527   2.255  -1.888  0.00  0.00    +0.004 A 
ATOM     20  C   UNL     1      -3.667   1.846  -2.889  0.00  0.00    +0.046 A 
ENDBRANCH  14  15
ENDBRANCH   4  14
BRANCH   3  21
ATOM     21  C   UNL     1       0.189  -0.744  -2.252  0.00  0.00    -0.036 C 
BRANCH  21  22
ATOM     22  N   UNL     1       1.378  -0.368  -3.028  0.00  0.00    +0.384 N 
ATOM     23  H   UNL     1       1.811  -1.199  -3.404  0.00  0.00    -0.081 HD
BRANCH  22  24
ATOM     24  C   UNL     1       2.333   0.329  -2.156  0.00  0.00    -0.075 C 
BRANCH  24  25
ATOM     25  C   UNL     1       1.687   1.604  -1.611  0.00  0.00    -0.028 C 
ATOM     26  C   UNL     1       2.340   2.939  -1.976  0.00  0.00    +0.002 C 
ATOM     27  C   UNL     1       2.462   2.392  -0.552  0.00  0.00    +0.002 C 
ENDBRANCH  24  25
ENDBRANCH  22  24
BRANCH  22  28
ATOM     28  C   UNL     1       0.984   0.518  -4.131  0.00  0.00    -0.044 C 
BRANCH  28  29
ATOM     29  C   UNL     1       2.149   0.663  -5.111  0.00  0.00    +0.124 C 
BRANCH  29  30
ATOM     30  O   UNL     1       3.211   1.386  -4.486  0.00  0.00    -0.391 OA
ATOM     31  H   UNL     1       2.969   2.281  -4.212  0.00  0.00    +0.210 HD
ENDBRANCH  29  30
BRANCH  29  32
ATOM     32  C   UNL     1       1.679   1.420  -6.355  0.00  0.00    +0.189 C 
BRANCH  32  33
ATOM     33  O   UNL     1       2.733   1.454  -7.319  0.00  0.00    -0.373 OA
BRANCH  33  34
ATOM     34  C   UNL     1       2.396   2.142  -8.525  0.00  0.00    +0.195 C 
BRANCH  34  35
ATOM     35  C   UNL     1       3.573   2.116  -9.465  0.00  0.00    -0.022 A 
ATOM     36  C   UNL     1       4.517   3.125  -9.419  0.00  0.00    +0.006 A 
ATOM     37  C   UNL     1       5.597   3.101 -10.281  0.00  0.00    +0.000 A 
ATOM     38  C   UNL     1       5.734   2.067 -11.189  0.00  0.00    +0.000 A 
ATOM     39  C   UNL     1       4.792   1.058 -11.234  0.00  0.00    +0.000 A 
ATOM     40  C   UNL     1       3.713   1.079 -10.369  0.00  0.00    +0.006 A 
ENDBRANCH  34  35
ENDBRANCH  33  34
ENDBRANCH  32  33
ENDBRANCH  29  32
ENDBRANCH  28  29
ENDBRANCH  22  28
ENDBRANCH  21  22
ENDBRANCH   3  21
TORSDOF 14
