REMARK  Name = ZINC09329460
REMARK  5 active torsions:
REMARK  status: ('A' for Active; 'I' for Inactive)
REMARK    1  A    between atoms: C_1  and  C_2
REMARK    2  A    between atoms: C_5  and  N_38
REMARK    3  A    between atoms: C_7  and  N_8
REMARK    4  A    between atoms: C_23  and  C_29
REMARK    5  A    between atoms: C_29  and  C_31
REMARK                            x       y       z     vdW  Elec       q    Type
REMARK                         _______ _______ _______ _____ _____    ______ ____
ROOT
ATOM      1  N   UNL     1       2.538   4.676   2.068  0.00  0.00    -0.209 N 
ATOM      2  C   UNL     1       1.696   4.575   1.028  0.00  0.00    +0.232 C 
ATOM      3  O   UNL     1       0.548   4.965   1.003  0.00  0.00    -0.274 OA
ATOM      4  C   UNL     1       2.424   3.889  -0.108  0.00  0.00    +0.113 C 
ATOM      5  C   UNL     1       1.589   2.742  -0.673  0.00  0.00    +0.100 C 
ATOM      6  C   UNL     1       0.113   3.008  -0.536  0.00  0.00    -0.021 A 
ATOM      7  C   UNL     1      -0.396   4.281  -0.648  0.00  0.00    +0.006 A 
ATOM      8  C   UNL     1      -1.757   4.497  -0.511  0.00  0.00    +0.000 A 
ATOM      9  C   UNL     1      -2.610   3.435  -0.262  0.00  0.00    +0.001 A 
ATOM     10  C   UNL     1      -2.112   2.153  -0.150  0.00  0.00    +0.008 A 
ATOM     11  C   UNL     1      -0.742   1.926  -0.289  0.00  0.00    -0.019 A 
ATOM     12  C   UNL     1      -0.199   0.556  -0.189  0.00  0.00    +0.022 C 
ATOM     13  C   UNL     1       1.119   0.383   0.037  0.00  0.00    +0.054 C 
ATOM     14  C   UNL     1       3.005   1.807   1.021  0.00  0.00    +0.141 C 
ATOM     15  C   UNL     1       3.594   3.179   0.639  0.00  0.00    +0.116 C 
ATOM     16  C   UNL     1       3.696   4.017   1.904  0.00  0.00    +0.232 C 
ATOM     17  O   UNL     1       4.658   4.079   2.639  0.00  0.00    -0.274 OA
ATOM     18  N   UNL     1       2.113   1.508  -0.140  0.00  0.00    -0.384 NA
ATOM     19  H   UNL     1       2.744   1.159  -0.871  0.00  0.00    +0.127 HD
ENDROOT
BRANCH   1  26
ATOM     20  C   UNL     1       3.378   7.392   2.204  0.00  0.00    +0.045 C 
ATOM     21  C   UNL     1       2.627   6.734   3.333  0.00  0.00    -0.028 A 
ATOM     22  C   UNL     1       2.323   7.453   4.473  0.00  0.00    +0.007 A 
ATOM     23  C   UNL     1       1.639   6.848   5.511  0.00  0.00    +0.033 A 
ATOM     24  C   UNL     1       1.252   5.524   5.410  0.00  0.00    +0.128 A 
ATOM     25  C   UNL     1       1.549   4.802   4.271  0.00  0.00    +0.057 A 
ATOM     26  C   UNL     1       2.236   5.407   3.226  0.00  0.00    +0.049 A 
BRANCH  24  27
ATOM     27  N   UNL     1       0.520   4.881   6.523  0.00  0.00    +0.056 N 
ATOM     28  O   UNL     1       0.179   3.715   6.435  0.00  0.00    -0.126 OA
ATOM     29  O   UNL     1       0.258   5.518   7.528  0.00  0.00    -0.126 OA
ENDBRANCH  24  27
ENDBRANCH   1  26
BRANCH  14  30
ATOM     30  C   UNL     1       2.524   1.837   2.449  0.00  0.00    +0.183 C 
ATOM     31  O   UNL     1       1.357   2.064   2.691  0.00  0.00    -0.290 OA
BRANCH  30  32
ATOM     32  C   UNL     1       3.469   1.592   3.549  0.00  0.00    +0.019 A 
ATOM     33  C   UNL     1       4.788   1.218   3.271  0.00  0.00    +0.013 A 
ATOM     34  C   UNL     1       5.670   0.995   4.307  0.00  0.00    +0.020 A 
ATOM     35  C   UNL     1       5.250   1.129   5.620  0.00  0.00    +0.041 A 
ATOM     36  C   UNL     1       3.943   1.494   5.903  0.00  0.00    +0.020 A 
ATOM     37  C   UNL     1       3.052   1.726   4.877  0.00  0.00    +0.013 A 
ATOM     38 CL   UNL     1       6.365   0.839   6.918  0.00  0.00    -0.084 Cl
ENDBRANCH  30  32
ENDBRANCH  14  30
TORSDOF 4
