REMARK  Name = ZINC09553804
REMARK  4 active torsions:
REMARK  status: ('A' for Active; 'I' for Inactive)
REMARK    1  A    between atoms: C_7  and  C_12
REMARK    2  A    between atoms: C_12  and  C_13
REMARK    3  A    between atoms: N_15  and  N_16
REMARK    4  A    between atoms: C_20  and  N_27
REMARK                            x       y       z     vdW  Elec       q    Type
REMARK                         _______ _______ _______ _____ _____    ______ ____
ROOT
ATOM      1  C   UNL     1      -0.564  -2.952  -1.403  0.00  0.00    +0.237 C 
ATOM      2  O   UNL     1      -0.110  -2.252  -2.283  0.00  0.00    -0.274 OA
ATOM      3  N   UNL     1      -1.565  -3.812  -1.675  0.00  0.00    -0.206 N 
ATOM      4  H   UNL     1      -1.929  -4.372  -0.971  0.00  0.00    +0.177 HD
ENDROOT
BRANCH   3   5
ATOM      5  N   UNL     1      -2.081  -3.898  -2.974  0.00  0.00    -0.175 NA
ATOM      6  C   UNL     1      -3.124  -4.654  -3.217  0.00  0.00    +0.153 C 
ATOM      7  C   UNL     1      -3.993  -5.336  -2.229  0.00  0.00    +0.030 A 
ATOM      8  C   UNL     1      -3.991  -5.396  -0.840  0.00  0.00    +0.044 A 
ATOM      9  C   UNL     1      -4.957  -6.134  -0.185  0.00  0.00    +0.127 A 
ATOM     10  C   UNL     1      -5.922  -6.812  -0.910  0.00  0.00    +0.034 A 
ATOM     11  C   UNL     1      -5.932  -6.759  -2.290  0.00  0.00    +0.026 A 
ATOM     12  C   UNL     1      -4.968  -6.020  -2.967  0.00  0.00    +0.043 A 
ATOM     13  N   UNL     1      -4.755  -5.803  -4.324  0.00  0.00    -0.280 N 
ATOM     14  C   UNL     1      -3.693  -5.006  -4.533  0.00  0.00    +0.269 C 
ATOM     15  O   UNL     1      -3.274  -4.642  -5.616  0.00  0.00    -0.268 OA
ATOM     16  H   UNL     1      -5.306  -6.177  -5.030  0.00  0.00    +0.155 HD
BRANCH   9  17
ATOM     17  N   UNL     1      -4.960  -6.201   1.293  0.00  0.00    +0.056 N 
ATOM     18  O   UNL     1      -4.117  -5.610   1.927  0.00  0.00    -0.126 OA
ATOM     19  O   UNL     1      -5.805  -6.847   1.867  0.00  0.00    -0.126 OA
ENDBRANCH   9  17
ENDBRANCH   3   5
BRANCH   1  20
ATOM     20  C   UNL     1      -0.009  -2.859  -0.004  0.00  0.00    +0.133 C 
BRANCH  20  27
ATOM     21  C   UNL     1      -0.805   1.287   0.528  0.00  0.00    +0.001 A 
ATOM     22  C   UNL     1       0.227   2.223   0.560  0.00  0.00    +0.001 A 
ATOM     23  C   UNL     1       1.526   1.839   0.420  0.00  0.00    +0.009 A 
ATOM     24  C   UNL     1       1.834   0.480   0.242  0.00  0.00    -0.004 A 
ATOM     25  C   UNL     1       0.784  -0.472   0.210  0.00  0.00    -0.013 A 
ATOM     26  C   UNL     1      -0.544  -0.038   0.357  0.00  0.00    +0.009 A 
ATOM     27  C   UNL     1       1.093  -1.831   0.032  0.00  0.00    -0.031 A 
ATOM     28  C   UNL     1       2.391  -2.215  -0.108  0.00  0.00    +0.006 A 
ATOM     29  C   UNL     1       3.423  -1.280  -0.076  0.00  0.00    +0.016 A 
ATOM     30  C   UNL     1       3.163   0.046   0.095  0.00  0.00    +0.026 A 
ATOM     31 BR   UNL     1       4.581   1.296   0.134  0.00  0.00    -0.050 Br
ENDBRANCH  20  27
ENDBRANCH   1  20
TORSDOF 4
