REMARK  Name = ZINC43396636
REMARK  6 active torsions:
REMARK  status: ('A' for Active; 'I' for Inactive)
REMARK    1  A    between atoms: C_1  and  C_2
REMARK    2  A    between atoms: C_5  and  C_18
REMARK    3  A    between atoms: C_6  and  N_8
REMARK    4  A    between atoms: N_8  and  C_9
REMARK    5  A    between atoms: C_14  and  C_17
REMARK    6  A    between atoms: C_18  and  N_20
REMARK                            x       y       z     vdW  Elec       q    Type
REMARK                         _______ _______ _______ _____ _____    ______ ____
ROOT
ATOM      1  C   UNL     1      -0.013   1.503   0.006  0.00  0.00    +0.065 C 
ATOM      2  C   UNL     1       0.005  -0.004  -0.000  0.00  0.00    +0.040 A 
ATOM      3  C   UNL     1       0.004  -0.678  -1.208  0.00  0.00    +0.024 A 
ATOM      4  C   UNL     1       0.020  -2.062  -1.217  0.00  0.00    +0.015 A 
ATOM      5  C   UNL     1       0.036  -2.734   0.011  0.00  0.00    +0.043 A 
ATOM      6  C   UNL     1       0.036  -1.978   1.197  0.00  0.00    +0.129 A 
ATOM      7  N   UNL     1       0.026  -0.655   1.146  0.00  0.00    -0.237 NA
ENDROOT
BRANCH   6   8
ATOM      8  N   UNL     1       0.052  -2.620   2.422  0.00  0.00    -0.326 N 
ATOM      9  H   UNL     1       0.139  -3.585   2.463  0.00  0.00    +0.148 HD
BRANCH   8  10
ATOM     10  C   UNL     1      -0.061  -1.842   3.658  0.00  0.00    +0.072 C 
ATOM     11  C   UNL     1       1.323  -1.335   4.070  0.00  0.00    +0.022 C 
ATOM     12  C   UNL     1       1.204  -0.523   5.361  0.00  0.00    +0.002 C 
ATOM     13  C   UNL     1       0.634  -1.408   6.471  0.00  0.00    +0.003 C 
ATOM     14  C   UNL     1      -0.749  -1.915   6.059  0.00  0.00    -0.012 C 
ATOM     15  C   UNL     1      -0.631  -2.728   4.768  0.00  0.00    +0.025 C 
ATOM     16  C   UNL     1      -1.320  -2.800   7.168  0.00  0.00    +0.007 C 
ENDBRANCH   8  10
ENDBRANCH   6   8
BRANCH   5  17
ATOM     17  C   UNL     1       0.053  -4.206   0.060  0.00  0.00    +0.080 C 
ATOM     18  S   UNL     1       1.540  -5.049  -0.049  0.00  0.00    -0.035 S 
BRANCH  17  19
ATOM     19  N   UNL     1      -1.101  -4.889   0.191  0.00  0.00    -0.352 N 
ATOM     20  H   UNL     1      -1.943  -4.411   0.253  0.00  0.00    +0.143 HD
ATOM     21  H   UNL     1      -1.090  -5.858   0.224  0.00  0.00    +0.143 HD
ENDBRANCH  17  19
ENDBRANCH   5  17
TORSDOF 4
