REMARK  Name = ZINC65839574
REMARK  10 active torsions:
REMARK  status: ('A' for Active; 'I' for Inactive)
REMARK    1  A    between atoms: C_1  and  C_2
REMARK    2  A    between atoms: C_2  and  C_3
REMARK    3  A    between atoms: C_2  and  O_4
REMARK    4  A    between atoms: O_4  and  C_5
REMARK    5  A    between atoms: C_8  and  C_27
REMARK    6  A    between atoms: C_10  and  N_11
REMARK    7  A    between atoms: C_12  and  C_14
REMARK    8  A    between atoms: C_17  and  N_23
REMARK    9  A    between atoms: C_18  and  N_20
REMARK   10  A    between atoms: N_23  and  C_24
REMARK                            x       y       z     vdW  Elec       q    Type
REMARK                         _______ _______ _______ _____ _____    ______ ____
ROOT
ATOM      1  N   UNL     1      -3.930  -1.316  -0.130  0.00  0.00    -0.279 N 
ATOM      2  C   UNL     1      -5.146  -1.891  -0.219  0.00  0.00    +0.248 C 
ATOM      3  O   UNL     1      -5.294  -2.900  -0.883  0.00  0.00    -0.270 OA
ATOM      4  H   UNL     1      -3.828  -0.467   0.327  0.00  0.00    +0.155 HD
ENDROOT
BRANCH   1  10
ATOM      5  C   UNL     1      -1.705  -1.189  -1.079  0.00  0.00    +0.142 A 
ATOM      6  C   UNL     1      -0.596  -1.810  -1.635  0.00  0.00    +0.049 A 
ATOM      7  C   UNL     1      -0.587  -3.176  -1.819  0.00  0.00    +0.022 A 
ATOM      8  C   UNL     1      -1.696  -3.940  -1.445  0.00  0.00    +0.054 A 
ATOM      9  C   UNL     1      -2.813  -3.316  -0.884  0.00  0.00    +0.046 A 
ATOM     10  C   UNL     1      -2.814  -1.945  -0.697  0.00  0.00    +0.077 A 
BRANCH   8  11
ATOM     11  C   UNL     1      -1.687  -5.359  -1.636  0.00  0.00    +0.099 C 
ATOM     12  N   UNL     1      -1.680  -6.485  -1.788  0.00  0.00    -0.191 NA
ENDBRANCH   8  11
BRANCH   5  13
ATOM     13  O   UNL     1      -1.709   0.158  -0.899  0.00  0.00    -0.488 OA
BRANCH  13  15
ATOM     14  C   UNL     1      -1.064   2.254  -1.913  0.00  0.00    +0.051 C 
ATOM     15  C   UNL     1      -0.594   0.884  -1.419  0.00  0.00    +0.167 C 
ATOM     16  C   UNL     1       0.452   1.071  -0.318  0.00  0.00    +0.051 C 
ENDBRANCH  13  15
ENDBRANCH   5  13
ENDBRANCH   1  10
BRANCH   2  17
ATOM     17  C   UNL     1      -6.296  -1.298   0.488  0.00  0.00    +0.039 A 
ATOM     18  C   UNL     1      -6.128  -0.136   1.248  0.00  0.00    +0.015 A 
ATOM     19  C   UNL     1      -7.203   0.415   1.906  0.00  0.00    +0.026 A 
ATOM     20  C   UNL     1      -8.457  -0.184   1.818  0.00  0.00    +0.058 A 
ATOM     21  C   UNL     1      -8.627  -1.341   1.063  0.00  0.00    +0.148 A 
ATOM     22  C   UNL     1      -7.557  -1.894   0.397  0.00  0.00    +0.047 A 
BRANCH  21  23
ATOM     23  N   UNL     1      -9.962  -1.974   0.972  0.00  0.00    +0.058 N 
ATOM     24  O   UNL     1     -10.091  -3.032   0.401  0.00  0.00    -0.126 OA
ATOM     25  O   UNL     1     -10.923  -1.434   1.468  0.00  0.00    -0.126 OA
ENDBRANCH  21  23
BRANCH  20  26
ATOM     26  N   UNL     1      -9.541   0.375   2.485  0.00  0.00    -0.339 N 
ATOM     27  H   UNL     1     -10.396  -0.084   2.493  0.00  0.00    +0.146 HD
BRANCH  26  28
ATOM     28  C   UNL     1      -9.393   1.658   3.177  0.00  0.00    +0.071 C 
ATOM     29  C   UNL     1      -9.910   1.749   4.614  0.00  0.00    +0.024 C 
ATOM     30  C   UNL     1     -10.668   2.447   3.483  0.00  0.00    +0.024 C 
ENDBRANCH  26  28
ENDBRANCH  20  26
ENDBRANCH   2  17
TORSDOF 8
