REMARK  Name = ZINC06239662
REMARK  9 active torsions:
REMARK  status: ('A' for Active; 'I' for Inactive)
REMARK    1  A    between atoms: C_1  and  O_2
REMARK    2  A    between atoms: O_2  and  C_3
REMARK    3  A    between atoms: C_6  and  O_33
REMARK    4  A    between atoms: C_7  and  C_9
REMARK    5  A    between atoms: C_16  and  N_32
REMARK    6  A    between atoms: C_17  and  C_30
REMARK    7  A    between atoms: C_18  and  C_20
REMARK    8  A    between atoms: C_23  and  C_26
REMARK    9  A    between atoms: O_33  and  C_34
REMARK                            x       y       z     vdW  Elec       q    Type
REMARK                         _______ _______ _______ _____ _____    ______ ____
ROOT
ATOM      1  C   UNL     1       1.222  -4.431  -2.405  0.00  0.00    +0.104 A 
ATOM      2  C   UNL     1       0.815  -5.176  -1.294  0.00  0.00    +0.054 A 
ATOM      3  C   UNL     1       0.998  -6.497  -1.581  0.00  0.00    +0.223 A 
ATOM      4  N   UNL     1       1.502  -6.580  -2.830  0.00  0.00    -0.246 N 
ATOM      5  H   UNL     1       1.732  -7.397  -3.299  0.00  0.00    +0.192 HD
ATOM      6  N   UNL     1       1.631  -5.276  -3.333  0.00  0.00    -0.170 NA
ATOM      7  O   UNL     1       0.699  -7.486  -0.701  0.00  0.00    -0.423 OA
ATOM      8  C   UNL     1       0.468  -7.133   0.580  0.00  0.00    +0.200 C 
ATOM      9  C   UNL     1       0.259  -5.860   0.983  0.00  0.00    +0.098 C 
ATOM     10  C   UNL     1       0.260  -4.697   0.023  0.00  0.00    +0.102 C 
ENDROOT
BRANCH   1  15
ATOM     11  C   UNL     1       1.673  -0.780  -1.612  0.00  0.00    +0.121 A 
ATOM     12  C   UNL     1       1.138  -0.187  -2.748  0.00  0.00    +0.049 A 
ATOM     13  C   UNL     1       0.633  -0.969  -3.769  0.00  0.00    +0.050 A 
ATOM     14  C   UNL     1       0.657  -2.350  -3.664  0.00  0.00    +0.130 A 
ATOM     15  C   UNL     1       1.194  -2.952  -2.523  0.00  0.00    +0.048 A 
ATOM     16  C   UNL     1       1.707  -2.159  -1.500  0.00  0.00    +0.059 A 
BRANCH  11  18
ATOM     17  C   UNL     1       2.102   1.411  -0.793  0.00  0.00    +0.277 C 
ATOM     18  O   UNL     1       2.169  -0.005  -0.611  0.00  0.00    -0.495 OA
ENDBRANCH  11  18
BRANCH  14  19
ATOM     19  O   UNL     1       0.159  -3.118  -4.669  0.00  0.00    -0.494 OA
ATOM     20  C   UNL     1      -0.374  -2.434  -5.805  0.00  0.00    +0.277 C 
ENDBRANCH  14  19
ENDBRANCH   1  15
BRANCH  10  21
ATOM     21  C   UNL     1      -1.148  -4.196  -0.171  0.00  0.00    -0.035 A 
ATOM     22  C   UNL     1      -2.110  -5.029  -0.711  0.00  0.00    +0.005 A 
ATOM     23  C   UNL     1      -3.402  -4.569  -0.889  0.00  0.00    +0.012 A 
ATOM     24  C   UNL     1      -3.731  -3.277  -0.525  0.00  0.00    +0.055 A 
ATOM     25  C   UNL     1      -2.770  -2.444   0.017  0.00  0.00    +0.012 A 
ATOM     26  C   UNL     1      -1.479  -2.906   0.198  0.00  0.00    +0.005 A 
BRANCH  24  27
ATOM     27  C   UNL     1      -5.139  -2.775  -0.719  0.00  0.00    +0.417 C 
ATOM     28  F   UNL     1      -5.892  -3.041   0.430  0.00  0.00    -0.166 F 
ATOM     29  F   UNL     1      -5.115  -1.396  -0.952  0.00  0.00    -0.166 F 
ATOM     30  F   UNL     1      -5.718  -3.423  -1.816  0.00  0.00    -0.166 F 
ENDBRANCH  24  27
ENDBRANCH  10  21
BRANCH   8  31
ATOM     31  N   UNL     1       0.444  -8.125   1.529  0.00  0.00    -0.328 N 
ATOM     32  H   UNL     1       0.591  -9.048   1.270  0.00  0.00    +0.145 HD
ATOM     33  H   UNL     1       0.281  -7.902   2.458  0.00  0.00    +0.145 HD
ENDBRANCH   8  31
BRANCH   9  34
ATOM     34  C   UNL     1       0.028  -5.607   2.373  0.00  0.00    +0.101 C 
ATOM     35  N   UNL     1      -0.155  -5.405   3.476  0.00  0.00    -0.191 NA
ENDBRANCH   9  34
TORSDOF 7
