REMARK  Name = ZINC24956210
REMARK  11 active torsions:
REMARK  status: ('A' for Active; 'I' for Inactive)
REMARK    1  A    between atoms: C_1  and  C_2
REMARK    2  A    between atoms: C_2  and  C_3
REMARK    3  A    between atoms: C_3  and  C_4
REMARK    4  A    between atoms: C_4  and  N_5
REMARK    5  A    between atoms: C_6  and  N_33
REMARK    6  A    between atoms: C_7  and  N_14
REMARK    7  A    between atoms: N_14  and  C_15
REMARK    8  A    between atoms: N_14  and  C_17
REMARK    9  A    between atoms: C_15  and  C_16
REMARK   10  A    between atoms: C_17  and  C_18
REMARK   11  A    between atoms: N_23  and  C_24
REMARK                            x       y       z     vdW  Elec       q    Type
REMARK                         _______ _______ _______ _____ _____    ______ ____
ROOT
ATOM      1  N   UNL     1       8.482  -4.381   5.372  0.00  0.00    -0.315 N 
ENDROOT
BRANCH   1   4
ATOM      2  N   UNL     1      11.900  -5.670   5.727  0.00  0.00    -0.280 N 
ATOM      3  C   UNL     1      10.613  -5.514   5.265  0.00  0.00    +0.127 A 
ATOM      4  C   UNL     1       9.808  -4.561   5.828  0.00  0.00    +0.134 A 
ATOM      5  C   UNL     1      10.322  -3.760   6.864  0.00  0.00    +0.277 A 
ATOM      6  O   UNL     1       9.626  -2.900   7.377  0.00  0.00    -0.266 OA
ATOM      7  N   UNL     1      11.587  -3.951   7.288  0.00  0.00    -0.273 N 
ATOM      8  H   UNL     1      11.992  -3.335   8.104  0.00  0.00    +0.173 HD
ATOM      9  C   UNL     1      12.364  -4.892   6.723  0.00  0.00    +0.331 A 
ATOM     10  O   UNL     1      13.504  -5.043   7.118  0.00  0.00    -0.246 OA
BRANCH   3  11
ATOM     11  N   UNL     1      10.140  -6.310   4.247  0.00  0.00    -0.343 N 
ATOM     12  H   UNL     1       9.110  -6.181   3.882  0.00  0.00    +0.144 HD
ATOM     13  H   UNL     1      10.791  -7.074   3.798  0.00  0.00    +0.144 HD
ENDBRANCH   3  11
BRANCH   2  14
ATOM     14  C   UNL     1      12.770  -6.687   5.132  0.00  0.00    +0.128 C 
BRANCH  14  15
ATOM     15  C   UNL     1      13.537  -6.077   3.956  0.00  0.00    +0.021 C 
BRANCH  15  17
ATOM     16  C   UNL     1      15.212  -6.530   2.159  0.00  0.00    +0.004 C 
ATOM     17  C   UNL     1      14.445  -7.139   3.334  0.00  0.00    -0.002 C 
ENDBRANCH  15  17
ENDBRANCH  14  15
ENDBRANCH   2  14
ENDBRANCH   1   4
BRANCH   1  18
ATOM     18  C   UNL     1       7.517  -4.605   6.457  0.00  0.00    +0.102 C 
ATOM     19  C   UNL     1       7.559  -6.074   6.882  0.00  0.00    +0.024 C 
ENDBRANCH   1  18
BRANCH   1  20
ATOM     20  C   UNL     1       8.306  -3.049   4.777  0.00  0.00    +0.201 C 
BRANCH  20  21
ATOM     21  C   UNL     1       6.968  -2.980   4.087  0.00  0.00    +0.238 C 
ATOM     22  O   UNL     1       6.234  -3.945   4.090  0.00  0.00    -0.274 OA
ATOM     23  N   UNL     1       6.588  -1.846   3.466  0.00  0.00    -0.239 N 
ATOM     24  C   UNL     1       5.392  -1.784   2.849  0.00  0.00    +0.310 C 
ATOM     25  O   UNL     1       4.655  -2.751   2.853  0.00  0.00    -0.252 OA
ATOM     26  N   UNL     1       5.011  -0.649   2.228  0.00  0.00    -0.269 N 
ATOM     27  H   UNL     1       7.254  -0.971   3.463  0.00  0.00    +0.159 HD
ATOM     28  H   UNL     1       5.711   0.195   2.150  0.00  0.00    +0.156 HD
BRANCH  26  29
ATOM     29  C   UNL     1       3.725  -0.546   1.683  0.00  0.00    +0.038 A 
ATOM     30  C   UNL     1       2.658  -1.190   2.296  0.00  0.00    +0.027 A 
ATOM     31  C   UNL     1       1.388  -1.090   1.759  0.00  0.00    +0.051 A 
ATOM     32  C   UNL     1       1.176  -0.346   0.610  0.00  0.00    +0.166 A 
ATOM     33  C   UNL     1       2.244   0.302  -0.006  0.00  0.00    +0.168 A 
ATOM     34  C   UNL     1       3.516   0.200   0.532  0.00  0.00    +0.073 A 
ATOM     35  O   UNL     1       1.779   0.960  -1.108  0.00  0.00    -0.453 OA
ATOM     36  C   UNL     1       0.353   1.045  -0.931  0.00  0.00    +0.466 C 
ATOM     37  O   UNL     1       0.041  -0.093  -0.107  0.00  0.00    -0.453 OA
ENDBRANCH  26  29
ENDBRANCH  20  21
ENDBRANCH   1  20
TORSDOF 9
