REMARK  Name = ZINC16923523
REMARK  8 active torsions:
REMARK  status: ('A' for Active; 'I' for Inactive)
REMARK    1  A    between atoms: C_1  and  C_2
REMARK    2  A    between atoms: C_5  and  C_28
REMARK    3  A    between atoms: C_6  and  N_8
REMARK    4  A    between atoms: C_9  and  C_11
REMARK    5  A    between atoms: C_11  and  C_12
REMARK    6  A    between atoms: N_16  and  C_20
REMARK    7  A    between atoms: C_24  and  C_27
REMARK    8  A    between atoms: C_25  and  C_26
REMARK                            x       y       z     vdW  Elec       q    Type
REMARK                         _______ _______ _______ _____ _____    ______ ____
ROOT
ATOM      1  C   UNL     1       2.135   2.321   5.999  0.00  0.00    +0.120 C 
ENDROOT
BRANCH   1   2
ATOM      2  C   UNL     1       3.595   1.924   5.766  0.00  0.00    +0.151 C 
ATOM      3  C   UNL     1       4.385   1.932   7.066  0.00  0.00    +0.241 C 
ATOM      4  O   UNL     1       4.116   1.198   7.993  0.00  0.00    -0.274 OA
ATOM      5  N   UNL     1       5.386   2.796   7.116  0.00  0.00    -0.200 N 
ATOM      6  C   UNL     1       5.702   3.620   6.101  0.00  0.00    +0.286 C 
ATOM      7  O   UNL     1       6.597   4.442   6.054  0.00  0.00    -0.262 OA
ATOM      8  S   UNL     1       4.501   3.226   4.839  0.00  0.00    -0.054 S 
BRANCH   5   9
ATOM      9  C   UNL     1       6.156   2.854   8.286  0.00  0.00    +0.048 A 
ATOM     10  C   UNL     1       7.280   2.050   8.420  0.00  0.00    +0.024 A 
ATOM     11  C   UNL     1       8.037   2.111   9.574  0.00  0.00    +0.002 A 
ATOM     12  C   UNL     1       7.676   2.971  10.595  0.00  0.00    +0.004 A 
ATOM     13  C   UNL     1       6.558   3.773  10.464  0.00  0.00    -0.046 A 
ATOM     14  C   UNL     1       5.800   3.721   9.310  0.00  0.00    -0.026 A 
ATOM     15  C   UNL     1       4.584   4.600   9.166  0.00  0.00    +0.046 C 
ATOM     16  C   UNL     1       6.168   4.709  11.579  0.00  0.00    +0.044 C 
ENDBRANCH   5   9
ENDBRANCH   1   2
BRANCH   1  18
ATOM     17  N   UNL     1       0.051   2.477   4.677  0.00  0.00    -0.285 N 
ATOM     18  C   UNL     1       1.365   2.181   4.712  0.00  0.00    +0.219 C 
ATOM     19  O   UNL     1       1.927   1.801   3.706  0.00  0.00    -0.275 OA
ATOM     20  H   UNL     1      -0.385   2.842   5.463  0.00  0.00    +0.155 HD
BRANCH  17  26
ATOM     21  C   UNL     1      -0.176   2.455  -0.226  0.00  0.00    +0.044 C 
ATOM     22  C   UNL     1      -0.821   2.239   1.119  0.00  0.00    -0.049 A 
ATOM     23  C   UNL     1      -2.143   1.830   1.190  0.00  0.00    +0.004 A 
ATOM     24  C   UNL     1      -2.743   1.625   2.413  0.00  0.00    +0.017 A 
ATOM     25  C   UNL     1      -2.019   1.840   3.589  0.00  0.00    +0.084 A 
ATOM     26  C   UNL     1      -0.682   2.260   3.513  0.00  0.00    +0.048 A 
ATOM     27  C   UNL     1      -0.093   2.456   2.271  0.00  0.00    +0.027 A 
BRANCH  25  28
ATOM     28  C   UNL     1      -2.655   1.627   4.902  0.00  0.00    +0.388 C 
ATOM     29  O   UNL     1      -2.053   1.900   5.921  0.00  0.00    -0.241 OA
ATOM     30  O   UNL     1      -3.906   1.129   4.971  0.00  0.00    -0.241 OA
ENDBRANCH  25  28
ENDBRANCH  17  26
ENDBRANCH   1  18
TORSDOF 5
