REMARK  Name = ZINC06748485
REMARK  5 active torsions:
REMARK  status: ('A' for Active; 'I' for Inactive)
REMARK    1  A    between atoms: C_1  and  C_2
REMARK    2  A    between atoms: C_2  and  O_3
REMARK    3  A    between atoms: O_3  and  C_4
REMARK    4  A    between atoms: C_7  and  C_10
REMARK    5  A    between atoms: C_20  and  C_25
REMARK                            x       y       z     vdW  Elec       q    Type
REMARK                         _______ _______ _______ _____ _____    ______ ____
ROOT
ATOM      1  C   UNL     1      -1.998  -6.070  -0.012  0.00  0.00    +0.167 A 
ATOM      2  N   UNL     1      -0.924  -6.847  -0.021  0.00  0.00    -0.189 NA
ATOM      3  C   UNL     1      -1.044  -8.170  -0.028  0.00  0.00    +0.281 A 
ATOM      4  O   UNL     1       0.058  -8.961  -0.037  0.00  0.00    -0.265 OA
ATOM      5  C   UNL     1      -2.316  -8.733  -0.024  0.00  0.00    +0.085 A 
ATOM      6  C   UNL     1      -2.481 -10.225  -0.033  0.00  0.00    +0.085 C 
ATOM      7  C   UNL     1      -3.881 -10.597  -0.441  0.00  0.00    -0.000 A 
ATOM      8  C   UNL     1      -4.145 -11.890  -0.856  0.00  0.00    +0.007 A 
ATOM      9  C   UNL     1      -5.424 -12.253  -1.234  0.00  0.00    +0.001 A 
ATOM     10  C   UNL     1      -6.445 -11.321  -1.200  0.00  0.00    +0.007 A 
ATOM     11  C   UNL     1      -6.188 -10.030  -0.788  0.00  0.00    -0.008 A 
ATOM     12  C   UNL     1      -4.902  -9.662  -0.406  0.00  0.00    +0.137 A 
ATOM     13  O   UNL     1      -4.673  -8.387  -0.006  0.00  0.00    -0.437 OA
ATOM     14  C   UNL     1      -3.418  -7.891  -0.013  0.00  0.00    +0.231 A 
ATOM     15  N   UNL     1      -3.224  -6.575  -0.003  0.00  0.00    -0.192 NA
ATOM     16  C   UNL     1      -7.302  -9.016  -0.751  0.00  0.00    +0.047 C 
ENDROOT
BRANCH   1  20
ATOM     17  C   UNL     1      -1.498  -1.847   0.006  0.00  0.00    +0.121 A 
ATOM     18  C   UNL     1      -0.384  -2.677  -0.003  0.00  0.00    +0.046 A 
ATOM     19  C   UNL     1      -0.543  -4.046  -0.009  0.00  0.00    +0.015 A 
ATOM     20  C   UNL     1      -1.824  -4.598  -0.005  0.00  0.00    +0.020 A 
ATOM     21  C   UNL     1      -2.940  -3.763   0.004  0.00  0.00    +0.015 A 
ATOM     22  C   UNL     1      -2.775  -2.394   0.016  0.00  0.00    +0.046 A 
BRANCH  17  23
ATOM     23  O   UNL     1      -1.339  -0.499   0.012  0.00  0.00    -0.492 OA
BRANCH  23  25
ATOM     24  C   UNL     1      -0.019   1.526   0.010  0.00  0.00    +0.048 C 
ATOM     25  C   UNL     1       0.002  -0.004   0.002  0.00  0.00    +0.225 C 
ENDBRANCH  23  25
ENDBRANCH  17  23
ENDBRANCH   1  20
TORSDOF 3
