REMARK  Name = ZINC02676990
REMARK  12 active torsions:
REMARK  status: ('A' for Active; 'I' for Inactive)
REMARK    1  A    between atoms: C_1  and  C_2
REMARK    2  A    between atoms: C_2  and  C_3
REMARK    3  A    between atoms: C_2  and  C_4
REMARK    4  A    between atoms: C_2  and  C_5
REMARK    5  A    between atoms: C_7  and  C_16
REMARK    6  A    between atoms: C_9  and  C_12
REMARK    7  A    between atoms: C_10  and  O_11
REMARK    8  A    between atoms: C_12  and  C_13
REMARK    9  A    between atoms: C_12  and  C_14
REMARK   10  A    between atoms: C_12  and  C_15
REMARK   11  A    between atoms: N_20  and  C_21
REMARK   12  A    between atoms: N_28  and  C_29
REMARK                            x       y       z     vdW  Elec       q    Type
REMARK                         _______ _______ _______ _____ _____    ______ ____
ROOT
ATOM      1  C   UNL     1       2.697  -0.241   2.152  0.00  0.00    +0.063 A 
ATOM      2  C   UNL     1       2.717  -0.791   0.904  0.00  0.00    +0.075 A 
ATOM      3  S   UNL     1       4.451  -1.185   0.733  0.00  0.00    -0.061 S 
ATOM      4  C   UNL     1       4.979  -0.606   2.282  0.00  0.00    +0.148 A 
ATOM      5  N   UNL     1       3.854  -0.157   2.819  0.00  0.00    -0.291 N 
ATOM      6  N   UNL     1       6.255  -0.607   2.818  0.00  0.00    -0.295 N 
ATOM      7  H   UNL     1       6.425  -0.167   3.666  0.00  0.00    +0.154 HD
ENDROOT
BRANCH   5   8
ATOM      8  C   UNL     1       3.875   0.398   4.081  0.00  0.00    +0.049 A 
ATOM      9  C   UNL     1       3.586   1.750   4.255  0.00  0.00    +0.027 A 
ATOM     10  C   UNL     1       3.603   2.300   5.521  0.00  0.00    +0.022 A 
ATOM     11  C   UNL     1       3.917   1.512   6.615  0.00  0.00    +0.041 A 
ATOM     12  C   UNL     1       4.210   0.170   6.447  0.00  0.00    +0.022 A 
ATOM     13  C   UNL     1       4.191  -0.390   5.186  0.00  0.00    +0.027 A 
ATOM     14 CL   UNL     1       3.943   2.211   8.204  0.00  0.00    -0.084 Cl
ENDBRANCH   5   8
BRANCH   6  15
ATOM     15  C   UNL     1       7.298  -1.241   2.137  0.00  0.00    +0.033 A 
ATOM     16  C   UNL     1       7.048  -2.386   1.391  0.00  0.00    +0.025 A 
ATOM     17  C   UNL     1       8.079  -3.007   0.716  0.00  0.00    +0.022 A 
ATOM     18  C   UNL     1       9.364  -2.498   0.791  0.00  0.00    +0.041 A 
ATOM     19  C   UNL     1       9.617  -1.361   1.538  0.00  0.00    +0.022 A 
ATOM     20  C   UNL     1       8.588  -0.732   2.211  0.00  0.00    +0.025 A 
ATOM     21 CL   UNL     1      10.659  -3.285  -0.055  0.00  0.00    -0.084 Cl
ENDBRANCH   6  15
BRANCH   1  24
ATOM     22  C   UNL     1      -0.716   1.294   2.497  0.00  0.00    +0.000 A 
ATOM     23  C   UNL     1       0.459   0.835   1.939  0.00  0.00    +0.017 A 
ATOM     24  C   UNL     1       1.433   0.253   2.749  0.00  0.00    +0.000 A 
ATOM     25  C   UNL     1       1.216   0.136   4.121  0.00  0.00    +0.017 A 
ATOM     26  C   UNL     1       0.038   0.597   4.673  0.00  0.00    +0.000 A 
ATOM     27  C   UNL     1      -0.927   1.181   3.865  0.00  0.00    +0.124 A 
BRANCH  22  29
ATOM     28  C   UNL     1      -1.290   1.930   0.170  0.00  0.00    +0.015 C 
ATOM     29  C   UNL     1      -1.770   1.923   1.623  0.00  0.00    -0.009 C 
ATOM     30  C   UNL     1      -2.023   3.360   2.083  0.00  0.00    +0.015 C 
ATOM     31  C   UNL     1      -3.067   1.118   1.727  0.00  0.00    +0.015 C 
ENDBRANCH  22  29
BRANCH  26  32
ATOM     32  C   UNL     1      -0.197   0.471   6.156  0.00  0.00    -0.009 C 
ATOM     33  C   UNL     1       1.012  -0.200   6.810  0.00  0.00    +0.015 C 
ATOM     34  C   UNL     1      -0.397   1.862   6.761  0.00  0.00    +0.015 C 
ATOM     35  C   UNL     1      -1.447  -0.376   6.404  0.00  0.00    +0.015 C 
ENDBRANCH  26  32
BRANCH  27  36
ATOM     36  O   UNL     1      -2.083   1.639   4.413  0.00  0.00    -0.506 OA
ATOM     37  H   UNL     1      -2.790   0.980   4.449  0.00  0.00    +0.292 HD
ENDBRANCH  27  36
ENDBRANCH   1  24
TORSDOF 6
