REMARK  Name = ZINC05130855
REMARK  5 active torsions:
REMARK  status: ('A' for Active; 'I' for Inactive)
REMARK    1  A    between atoms: C_1  and  C_2
REMARK    2  A    between atoms: C_6  and  N_8
REMARK    3  A    between atoms: C_9  and  C_11
REMARK    4  A    between atoms: C_12  and  C_30
REMARK    5  A    between atoms: C_16  and  C_18
REMARK                            x       y       z     vdW  Elec       q    Type
REMARK                         _______ _______ _______ _____ _____    ______ ____
ROOT
ATOM      1  C   UNL     1       1.176   1.937   0.124  0.00  0.00    +0.043 C 
ATOM      2  C   UNL     1       2.296   1.211   0.282  0.00  0.00    +0.014 C 
ATOM      3  N   UNL     1       3.517   1.823   0.343  0.00  0.00    -0.321 N 
ATOM      4  C   UNL     1       3.684   3.095  -0.136  0.00  0.00    +0.015 C 
ATOM      5  C   UNL     1       2.619   3.904  -0.320  0.00  0.00    +0.024 C 
ATOM      6  C   UNL     1       1.228   3.432   0.012  0.00  0.00    +0.090 C 
ATOM      7  C   UNL     1       2.776   5.206  -0.825  0.00  0.00    +0.162 C 
ATOM      8  O   UNL     1       1.797   5.911  -0.971  0.00  0.00    -0.292 OA
ATOM      9  C   UNL     1       4.133   5.743  -1.189  0.00  0.00    +0.080 C 
ATOM     10  C   UNL     1       5.038   4.576  -1.599  0.00  0.00    +0.014 C 
ATOM     11  C   UNL     1       5.082   3.568  -0.448  0.00  0.00    +0.051 C 
ATOM     12  C   UNL     1       2.205  -0.290   0.393  0.00  0.00    +0.061 C 
ATOM     13  H   UNL     1       4.376   1.294   0.780  0.00  0.00    +0.152 HD
ENDROOT
BRANCH   6  14
ATOM     14  C   UNL     1       0.803   4.042   1.323  0.00  0.00    -0.035 A 
ATOM     15  C   UNL     1       1.510   3.760   2.477  0.00  0.00    +0.006 A 
ATOM     16  C   UNL     1       1.124   4.324   3.679  0.00  0.00    +0.020 A 
ATOM     17  C   UNL     1       0.024   5.161   3.728  0.00  0.00    +0.041 A 
ATOM     18  C   UNL     1      -0.687   5.438   2.574  0.00  0.00    +0.020 A 
ATOM     19  C   UNL     1      -0.297   4.878   1.372  0.00  0.00    +0.006 A 
ATOM     20 CL   UNL     1      -0.465   5.864   5.239  0.00  0.00    -0.084 Cl
ENDBRANCH   6  14
BRANCH   1  22
ATOM     21  N   UNL     1      -0.648   0.802   1.181  0.00  0.00    -0.267 N 
ATOM     22  C   UNL     1      -0.075   1.278   0.057  0.00  0.00    +0.248 C 
ATOM     23  O   UNL     1      -0.637   1.145  -1.015  0.00  0.00    -0.270 OA
ATOM     24  H   UNL     1      -0.185   0.998   2.160  0.00  0.00    +0.157 HD
BRANCH  21  30
ATOM     25  C   UNL     1      -4.198  -0.918  -1.534  0.00  0.00    +0.065 C 
ATOM     26  C   UNL     1      -3.547  -0.779  -0.181  0.00  0.00    +0.040 A 
ATOM     27  C   UNL     1      -4.128  -1.379   0.919  0.00  0.00    +0.023 A 
ATOM     28  C   UNL     1      -3.524  -1.247   2.162  0.00  0.00    +0.005 A 
ATOM     29  C   UNL     1      -2.351  -0.518   2.252  0.00  0.00    +0.044 A 
ATOM     30  C   UNL     1      -1.825   0.062   1.104  0.00  0.00    +0.125 A 
ATOM     31  N   UNL     1      -2.431  -0.086  -0.064  0.00  0.00    -0.237 NA
ENDBRANCH  21  30
ENDBRANCH   1  22
TORSDOF 3
