REMARK  Name = ZINC00827994
REMARK  12 active torsions:
REMARK  status: ('A' for Active; 'I' for Inactive)
REMARK    1  A    between atoms: N_9  and  C_12
REMARK    2  A    between atoms: C_12  and  C_13
REMARK    3  A    between atoms: C_13  and  C_15
REMARK    4  A    between atoms: C_13  and  O_40
REMARK    5  A    between atoms: C_15  and  O_16
REMARK    6  A    between atoms: O_16  and  C_17
REMARK    7  A    between atoms: C_20  and  O_23
REMARK    8  A    between atoms: O_23  and  C_24
REMARK    9  A    between atoms: C_24  and  C_25
REMARK   10  A    between atoms: C_25  and  C_27
REMARK   11  A    between atoms: C_25  and  O_39
REMARK   12  A    between atoms: C_27  and  N_28
REMARK                            x       y       z     vdW  Elec       q    Type
REMARK                         _______ _______ _______ _____ _____    ______ ____
ROOT
ATOM      1  C   UNL     1      -0.017   1.383   0.010  0.00  0.00    +0.121 A 
ATOM      2  C   UNL     1       1.175   2.092   0.002  0.00  0.00    +0.049 A 
ATOM      3  C   UNL     1       2.380   1.418  -0.015  0.00  0.00    +0.049 A 
ATOM      4  C   UNL     1       2.399   0.031  -0.021  0.00  0.00    +0.121 A 
ATOM      5  C   UNL     1       1.208  -0.678  -0.013  0.00  0.00    +0.049 A 
ATOM      6  C   UNL     1       0.002  -0.004   0.002  0.00  0.00    +0.049 A 
ENDROOT
BRANCH   1   7
ATOM      7  O   UNL     1      -1.204   2.047   0.019  0.00  0.00    -0.489 OA
BRANCH   7   8
ATOM      8  C   UNL     1      -1.148   3.474   0.026  0.00  0.00    +0.261 C 
BRANCH   8   9
ATOM      9  C   UNL     1      -2.570   4.040   0.036  0.00  0.00    +0.170 C 
BRANCH   9  10
ATOM     10  O   UNL     1      -3.217   3.680   1.258  0.00  0.00    -0.387 OA
ATOM     11  H   UNL     1      -2.773   4.011   2.051  0.00  0.00    +0.210 HD
ENDBRANCH   9  10
BRANCH   9  12
ATOM     12  C   UNL     1      -2.513   5.564  -0.082  0.00  0.00    +0.151 C 
BRANCH  12  21
ATOM     13  C   UNL     1      -8.103   7.853   0.646  0.00  0.00    +0.001 A 
ATOM     14  C   UNL     1      -8.154   7.749  -0.732  0.00  0.00    +0.001 A 
ATOM     15  C   UNL     1      -7.070   7.254  -1.440  0.00  0.00    +0.014 A 
ATOM     16  C   UNL     1      -5.928   6.861  -0.760  0.00  0.00    +0.049 A 
ATOM     17  C   UNL     1      -5.876   6.967   0.644  0.00  0.00    +0.049 A 
ATOM     18  C   UNL     1      -6.968   7.464   1.338  0.00  0.00    +0.014 A 
ATOM     19  C   UNL     1      -4.540   6.471   1.038  0.00  0.00    +0.254 C 
ATOM     20  O   UNL     1      -4.116   6.404   2.174  0.00  0.00    -0.270 OA
ATOM     21  N   UNL     1      -3.874   6.106  -0.072  0.00  0.00    -0.232 N 
ATOM     22  C   UNL     1      -4.620   6.309  -1.173  0.00  0.00    +0.254 C 
ATOM     23  O   UNL     1      -4.278   6.075  -2.314  0.00  0.00    -0.270 OA
ENDBRANCH  12  21
ENDBRANCH   9  12
ENDBRANCH   8   9
ENDBRANCH   7   8
ENDBRANCH   1   7
BRANCH   4  24
ATOM     24  O   UNL     1       3.586  -0.632  -0.035  0.00  0.00    -0.489 OA
BRANCH  24  25
ATOM     25  C   UNL     1       4.774   0.162  -0.043  0.00  0.00    +0.261 C 
BRANCH  25  26
ATOM     26  C   UNL     1       5.999  -0.753  -0.058  0.00  0.00    +0.170 C 
BRANCH  26  27
ATOM     27  O   UNL     1       6.029  -1.489  -1.283  0.00  0.00    -0.387 OA
ATOM     28  H   UNL     1       6.077  -0.935  -2.074  0.00  0.00    +0.210 HD
ENDBRANCH  26  27
BRANCH  26  29
ATOM     29  C   UNL     1       7.269   0.092   0.059  0.00  0.00    +0.151 C 
BRANCH  29  30
ATOM     30  N   UNL     1       8.443  -0.784   0.044  0.00  0.00    -0.232 N 
ATOM     31  C   UNL     1       9.009  -1.317   1.142  0.00  0.00    +0.254 C 
ATOM     32  O   UNL     1       8.633  -1.151   2.285  0.00  0.00    -0.270 OA
ATOM     33  C   UNL     1      10.162  -2.141   0.724  0.00  0.00    +0.049 A 
ATOM     34  C   UNL     1      11.097  -2.911   1.399  0.00  0.00    +0.014 A 
ATOM     35  C   UNL     1      12.084  -3.573   0.687  0.00  0.00    +0.001 A 
ATOM     36  C   UNL     1      12.143  -3.471  -0.691  0.00  0.00    +0.001 A 
ATOM     37  C   UNL     1      11.215  -2.705  -1.379  0.00  0.00    +0.014 A 
ATOM     38  C   UNL     1      10.222  -2.037  -0.680  0.00  0.00    +0.049 A 
ATOM     39  C   UNL     1       9.100  -1.157  -1.069  0.00  0.00    +0.254 C 
ATOM     40  O   UNL     1       8.818  -0.827  -2.203  0.00  0.00    -0.270 OA
ENDBRANCH  29  30
ENDBRANCH  26  29
ENDBRANCH  25  26
ENDBRANCH  24  25
ENDBRANCH   4  24
TORSDOF 12
