REMARK  Name = ZINC36587491
REMARK  21 active torsions:
REMARK  status: ('A' for Active; 'I' for Inactive)
REMARK    1  A    between atoms: C_1  and  C_2
REMARK    2  A    between atoms: C_2  and  C_3
REMARK    3  A    between atoms: C_2  and  C_4
REMARK    4  A    between atoms: C_2  and  C_5
REMARK    5  A    between atoms: C_5  and  C_6
REMARK    6  A    between atoms: C_6  and  C_7
REMARK    7  A    between atoms: C_6  and  C_8
REMARK    8  A    between atoms: C_6  and  N_9
REMARK    9  A    between atoms: C_10  and  C_12
REMARK   10  A    between atoms: C_12  and  C_14
REMARK   11  A    between atoms: C_12  and  N_23
REMARK   12  A    between atoms: C_17  and  N_20
REMARK   13  A    between atoms: N_23  and  C_36
REMARK   14  A    between atoms: C_24  and  C_26
REMARK   15  A    between atoms: C_26  and  C_27
REMARK   16  A    between atoms: C_27  and  C_28
REMARK   17  A    between atoms: C_31  and  O_34
REMARK   18  A    between atoms: O_34  and  C_35
REMARK   19  A    between atoms: C_36  and  C_37
REMARK   20  A    between atoms: C_36  and  C_38
REMARK   21  A    between atoms: C_36  and  C_39
REMARK                            x       y       z     vdW  Elec       q    Type
REMARK                         _______ _______ _______ _____ _____    ______ ____
ROOT
ATOM      1  C   UNL     1       4.877  -1.024  -4.978  0.00  0.00    +0.193 C 
ENDROOT
BRANCH   1   2
ATOM      2  C   UNL     1       4.130  -0.692  -6.244  0.00  0.00    -0.018 A 
ATOM      3  C   UNL     1       4.348   0.516  -6.879  0.00  0.00    +0.008 A 
ATOM      4  C   UNL     1       3.662   0.820  -8.040  0.00  0.00    +0.033 A 
ATOM      5  C   UNL     1       2.759  -0.085  -8.567  0.00  0.00    +0.126 A 
ATOM      6  C   UNL     1       2.542  -1.293  -7.932  0.00  0.00    +0.033 A 
ATOM      7  C   UNL     1       3.230  -1.599  -6.773  0.00  0.00    +0.008 A 
BRANCH   5   8
ATOM      8  N   UNL     1       2.025   0.241  -9.810  0.00  0.00    +0.056 N 
ATOM      9  O   UNL     1       2.215   1.298 -10.365  0.00  0.00    -0.126 OA
ATOM     10  O   UNL     1       1.235  -0.550 -10.270  0.00  0.00    -0.126 OA
ENDBRANCH   5   8
ENDBRANCH   1   2
BRANCH   1  12
ATOM     11  N   UNL     1       2.863  -0.992  -3.541  0.00  0.00    -0.308 N 
ATOM     12  C   UNL     1       4.100  -0.518  -3.789  0.00  0.00    +0.239 C 
ATOM     13  O   UNL     1       4.589   0.315  -3.055  0.00  0.00    -0.273 OA
ATOM     14  H   UNL     1       2.473  -1.658  -4.128  0.00  0.00    +0.149 HD
BRANCH  11  15
ATOM     15  C   UNL     1       2.108  -0.500  -2.386  0.00  0.00    +0.030 C 
ATOM     16  C   UNL     1       2.203   1.026  -2.327  0.00  0.00    +0.031 C 
ATOM     17  C   UNL     1       2.692  -1.098  -1.104  0.00  0.00    +0.031 C 
BRANCH  15  18
ATOM     18  C   UNL     1       0.642  -0.916  -2.521  0.00  0.00    +0.031 C 
BRANCH  18  20
ATOM     19  C   UNL     1       0.577  -1.841  -4.840  0.00  0.00    +0.010 C 
ATOM     20  C   UNL     1       0.170  -0.663  -3.954  0.00  0.00    -0.036 C 
ATOM     21  C   UNL     1       0.813   0.620  -4.484  0.00  0.00    +0.010 C 
ATOM     22  C   UNL     1      -1.353  -0.514  -3.970  0.00  0.00    +0.010 C 
ENDBRANCH  18  20
ENDBRANCH  15  18
ENDBRANCH  11  15
ENDBRANCH   1  12
BRANCH   1  23
ATOM     23  N   UNL     1       6.195  -0.385  -5.007  0.00  0.00    -0.281 N 
ATOM     24  C   UNL     1       6.293   0.959  -5.008  0.00  0.00    +0.217 C 
ATOM     25  O   UNL     1       5.310   1.639  -4.799  0.00  0.00    -0.276 OA
BRANCH  23  26
ATOM     26  C   UNL     1       7.407  -1.208  -5.036  0.00  0.00    +0.030 C 
ATOM     27  C   UNL     1       7.020  -2.681  -5.180  0.00  0.00    +0.031 C 
ATOM     28  C   UNL     1       8.278  -0.791  -6.223  0.00  0.00    +0.031 C 
ATOM     29  C   UNL     1       8.189  -1.010  -3.736  0.00  0.00    +0.031 C 
ENDBRANCH  23  26
BRANCH  24  30
ATOM     30  C   UNL     1       7.623   1.618  -5.267  0.00  0.00    +0.100 C 
BRANCH  30  31
ATOM     31  C   UNL     1       7.504   3.123  -5.019  0.00  0.00    +0.044 C 
BRANCH  31  32
ATOM     32  C   UNL     1       8.835   3.781  -5.278  0.00  0.00    -0.047 A 
ATOM     33  C   UNL     1       9.752   3.913  -4.252  0.00  0.00    +0.007 A 
ATOM     34  C   UNL     1      10.972   4.516  -4.487  0.00  0.00    +0.046 A 
ATOM     35  C   UNL     1      11.277   4.991  -5.755  0.00  0.00    +0.120 A 
ATOM     36  C   UNL     1      10.355   4.858  -6.783  0.00  0.00    +0.046 A 
ATOM     37  C   UNL     1       9.138   4.249  -6.544  0.00  0.00    +0.007 A 
BRANCH  35  38
ATOM     38  O   UNL     1      12.476   5.586  -5.989  0.00  0.00    -0.495 OA
ATOM     39  C   UNL     1      12.721   6.051  -7.318  0.00  0.00    +0.277 C 
ENDBRANCH  35  38
ENDBRANCH  31  32
ENDBRANCH  30  31
ENDBRANCH  24  30
ENDBRANCH   1  23
TORSDOF 12
