REMARK  Name = ZINC19672903
REMARK  6 active torsions:
REMARK  status: ('A' for Active; 'I' for Inactive)
REMARK    1  A    between atoms: C_3  and  C_6
REMARK    2  A    between atoms: C_6  and  N_7
REMARK    3  A    between atoms: C_8  and  S_10
REMARK    4  A    between atoms: S_10  and  C_11
REMARK    5  A    between atoms: C_11  and  C_12
REMARK    6  A    between atoms: C_18  and  C_23
REMARK                            x       y       z     vdW  Elec       q    Type
REMARK                         _______ _______ _______ _____ _____    ______ ____
ROOT
ATOM      1  C   UNL     1       8.441   0.491   4.397  0.00  0.00    +0.121 A 
ATOM      2  N   UNL     1       9.795   0.464   4.490  0.00  0.00    -0.310 N 
ATOM      3  H   UNL     1      10.327   0.460   3.679  0.00  0.00    +0.170 HD
ATOM      4  C   UNL     1      10.414   0.445   5.685  0.00  0.00    +0.260 A 
ATOM      5  O   UNL     1      11.631   0.422   5.751  0.00  0.00    -0.267 OA
ATOM      6  C   UNL     1       9.621   0.452   6.877  0.00  0.00    +0.080 A 
ATOM      7  C   UNL     1      10.049   0.435   8.270  0.00  0.00    +0.004 A 
ATOM      8  C   UNL     1       9.106   0.447   9.242  0.00  0.00    +0.056 A 
ATOM      9  S   UNL     1       7.574   0.482   8.331  0.00  0.00    -0.076 S 
ATOM     10  C   UNL     1       8.230   0.479   6.682  0.00  0.00    +0.116 A 
ATOM     11  N   UNL     1       7.691   0.503   5.466  0.00  0.00    -0.226 NA
ENDROOT
BRANCH   7  12
ATOM     12  C   UNL     1      11.490   0.405   8.617  0.00  0.00    -0.016 A 
ATOM     13  C   UNL     1      12.335  -0.528   8.016  0.00  0.00    +0.010 A 
ATOM     14  C   UNL     1      13.675  -0.551   8.342  0.00  0.00    +0.020 A 
ATOM     15  C   UNL     1      14.182   0.350   9.263  0.00  0.00    +0.041 A 
ATOM     16  C   UNL     1      13.348   1.278   9.862  0.00  0.00    +0.020 A 
ATOM     17  C   UNL     1      12.007   1.313   9.539  0.00  0.00    +0.010 A 
ATOM     18 CL   UNL     1      15.870   0.315   9.668  0.00  0.00    -0.084 Cl
ENDBRANCH   7  12
BRANCH   1  19
ATOM     19  C   UNL     1       7.792   0.512   3.037  0.00  0.00    +0.151 C 
BRANCH  19  20
ATOM     20  S   UNL     1       5.988   0.553   3.228  0.00  0.00    -0.085 S 
BRANCH  20  22
ATOM     21  N   UNL     1       4.101   0.607   1.347  0.00  0.00    -0.361 N 
ATOM     22  C   UNL     1       5.385   0.576   1.572  0.00  0.00    +0.126 C 
ATOM     23  N   UNL     1       6.268   0.560   0.518  0.00  0.00    -0.339 N 
ATOM     24  H   UNL     1       5.936   0.572  -0.393  0.00  0.00    +0.144 HD
ATOM     25  H   UNL     1       7.223   0.537   0.686  0.00  0.00    +0.144 HD
ATOM     26  H   UNL     1       3.478   0.617   2.090  0.00  0.00    +0.162 HD
BRANCH  21  27
ATOM     27  C   UNL     1       3.599   0.625  -0.029  0.00  0.00    +0.189 C 
BRANCH  27  30
ATOM     28  C   UNL     1      -0.016   1.341   0.009  0.00  0.00    +0.041 A 
ATOM     29  C   UNL     1       1.331   1.769  -0.001  0.00  0.00    +0.046 A 
ATOM     30  C   UNL     1       2.092   0.660  -0.014  0.00  0.00    +0.124 A 
ATOM     31  O   UNL     1       1.282  -0.411  -0.012  0.00  0.00    -0.466 OA
ATOM     32  C   UNL     1       0.002  -0.004   0.002  0.00  0.00    +0.195 A 
ENDBRANCH  27  30
ENDBRANCH  21  27
ENDBRANCH  20  22
ENDBRANCH  19  20
ENDBRANCH   1  19
TORSDOF 6
