REMARK  Name = ZINC34996231
REMARK  4 active torsions:
REMARK  status: ('A' for Active; 'I' for Inactive)
REMARK    1  A    between atoms: C_1  and  C_2
REMARK    2  A    between atoms: C_2  and  C_4
REMARK    3  A    between atoms: C_2  and  N_11
REMARK    4  A    between atoms: N_11  and  C_12
REMARK                            x       y       z     vdW  Elec       q    Type
REMARK                         _______ _______ _______ _____ _____    ______ ____
ROOT
ATOM      1  N   UNL     1       0.713  -0.491   1.192  0.00  0.00    +0.385 N 
ATOM      2  H   UNL     1       0.798  -1.495   1.145  0.00  0.00    -0.085 HD
ATOM      3  H   UNL     1       1.632  -0.076   1.228  0.00  0.00    -0.085 HD
ENDROOT
BRANCH   1   4
ATOM      4  C   UNL     1      -0.040  -0.119   2.398  0.00  0.00    -0.071 C 
ATOM      5  C   UNL     1      -1.385  -0.847   2.404  0.00  0.00    -0.015 C 
ATOM      6  C   UNL     1      -2.169  -0.460   3.660  0.00  0.00    +0.002 C 
ATOM      7  C   UNL     1      -1.369  -0.856   4.902  0.00  0.00    -0.008 C 
ATOM      8  C   UNL     1      -2.153  -0.469   6.158  0.00  0.00    +0.004 C 
ATOM      9  C   UNL     1      -2.391   1.043   6.165  0.00  0.00    +0.000 C 
ATOM     10  C   UNL     1      -1.045   1.771   6.159  0.00  0.00    +0.000 C 
ATOM     11  C   UNL     1      -0.262   1.384   4.903  0.00  0.00    +0.004 C 
ATOM     12  C   UNL     1      -0.024  -0.128   4.896  0.00  0.00    -0.009 C 
ATOM     13  C   UNL     1       0.760  -0.515   3.640  0.00  0.00    -0.012 C 
ENDBRANCH   1   4
BRANCH   1  15
ATOM     14  C   UNL     1      -0.019   1.526   0.010  0.00  0.00    -0.009 C 
ATOM     15  C   UNL     1       0.002  -0.004   0.002  0.00  0.00    -0.043 C 
BRANCH  15  16
ATOM     16  C   UNL     1       0.707  -0.490  -1.238  0.00  0.00    -0.048 A 
ATOM     17  C   UNL     1       2.024  -0.904  -1.167  0.00  0.00    +0.003 A 
ATOM     18  C   UNL     1       2.671  -1.351  -2.304  0.00  0.00    +0.000 A 
ATOM     19  C   UNL     1       2.002  -1.383  -3.513  0.00  0.00    +0.001 A 
ATOM     20  C   UNL     1       0.685  -0.969  -3.585  0.00  0.00    +0.015 A 
ATOM     21  C   UNL     1       0.036  -0.527  -2.446  0.00  0.00    +0.019 A 
ATOM     22 BR   UNL     1      -1.768   0.033  -2.543  0.00  0.00    -0.050 Br
ENDBRANCH  15  16
ENDBRANCH   1  15
TORSDOF 3
