REMARK  Name = ZINC06834613
REMARK  9 active torsions:
REMARK  status: ('A' for Active; 'I' for Inactive)
REMARK    1  A    between atoms: C_1  and  C_2
REMARK    2  A    between atoms: C_2  and  C_3
REMARK    3  A    between atoms: C_2  and  C_4
REMARK    4  A    between atoms: C_4  and  N_5
REMARK    5  A    between atoms: C_6  and  C_8
REMARK    6  A    between atoms: C_8  and  C_9
REMARK    7  A    between atoms: C_9  and  C_11
REMARK    8  A    between atoms: C_9  and  C_20
REMARK    9  A    between atoms: C_15  and  N_17
REMARK                            x       y       z     vdW  Elec       q    Type
REMARK                         _______ _______ _______ _____ _____    ______ ____
ROOT
ATOM      1  C   UNL     1      -0.070   5.347   0.030  0.00  0.00    +0.060 C 
ENDROOT
BRANCH   1   2
ATOM      2  C   UNL     1      -0.776   5.834   1.269  0.00  0.00    -0.015 A 
ATOM      3  C   UNL     1      -2.046   5.577   1.618  0.00  0.00    +0.087 A 
ATOM      4  N   UNL     1      -2.335   6.184   2.810  0.00  0.00    -0.360 N 
ATOM      5  H   UNL     1      -3.191   6.139   3.265  0.00  0.00    +0.165 HD
ATOM      6  C   UNL     1      -1.232   6.871   3.264  0.00  0.00    +0.047 A 
ATOM      7  C   UNL     1      -0.207   6.682   2.319  0.00  0.00    +0.003 A 
ATOM      8  C   UNL     1       1.043   7.271   2.520  0.00  0.00    +0.010 A 
ATOM      9  C   UNL     1       1.264   8.029   3.635  0.00  0.00    +0.001 A 
ATOM     10  C   UNL     1       0.256   8.219   4.570  0.00  0.00    +0.002 A 
ATOM     11  C   UNL     1      -0.985   7.647   4.392  0.00  0.00    +0.026 A 
ENDBRANCH   1   2
BRANCH   1  12
ATOM     12  C   UNL     1      -0.050   3.840   0.022  0.00  0.00    -0.037 A 
ATOM     13  C   UNL     1      -1.238   3.133   0.030  0.00  0.00    +0.004 A 
ATOM     14  C   UNL     1      -1.219   1.751   0.017  0.00  0.00    +0.003 A 
ATOM     15  C   UNL     1      -0.013   1.076   0.008  0.00  0.00    +0.033 A 
ATOM     16  C   UNL     1       1.175   1.783   0.000  0.00  0.00    +0.126 A 
ATOM     17  C   UNL     1       1.156   3.166   0.008  0.00  0.00    +0.037 A 
BRANCH  16  18
ATOM     18  N   UNL     1       2.467   1.060  -0.016  0.00  0.00    +0.056 N 
ATOM     19  O   UNL     1       2.483  -0.157  -0.023  0.00  0.00    -0.126 OA
ATOM     20  O   UNL     1       3.513   1.684  -0.022  0.00  0.00    -0.126 OA
ENDBRANCH  16  18
ENDBRANCH   1  12
BRANCH   1  21
ATOM     21  C   UNL     1      -0.810   5.853  -1.210  0.00  0.00    +0.108 C 
BRANCH  21  23
ATOM     22  N   UNL     1      -0.504   5.814  -3.664  0.00  0.00    -0.315 N 
ATOM     23  C   UNL     1      -0.039   5.471  -2.447  0.00  0.00    +0.214 C 
ATOM     24  O   UNL     1       1.001   4.854  -2.346  0.00  0.00    -0.276 OA
ATOM     25  H   UNL     1      -1.335   6.307  -3.745  0.00  0.00    +0.149 HD
BRANCH  22  26
ATOM     26  C   UNL     1       0.247   5.442  -4.867  0.00  0.00    +0.107 C 
BRANCH  26  28
ATOM     27  C   UNL     1      -0.514   7.478  -6.099  0.00  0.00    +0.009 C 
ATOM     28  C   UNL     1      -0.493   5.949  -6.106  0.00  0.00    -0.000 C 
ATOM     29  C   UNL     1       0.223   5.454  -7.365  0.00  0.00    +0.009 C 
ENDBRANCH  26  28
ENDBRANCH  22  26
ENDBRANCH  21  23
ENDBRANCH   1  21
TORSDOF 7
