REMARK  Name = ZINC39577091
REMARK  10 active torsions:
REMARK  status: ('A' for Active; 'I' for Inactive)
REMARK    1  A    between atoms: C_1  and  C_2
REMARK    2  A    between atoms: C_2  and  C_3
REMARK    3  A    between atoms: C_3  and  C_4
REMARK    4  A    between atoms: C_4  and  C_5
REMARK    5  A    between atoms: C_5  and  N_6
REMARK    6  A    between atoms: C_19  and  S_20
REMARK    7  A    between atoms: S_20  and  C_21
REMARK    8  A    between atoms: C_21  and  C_22
REMARK    9  A    between atoms: C_22  and  C_23
REMARK   10  A    between atoms: C_23  and  C_24
REMARK                            x       y       z     vdW  Elec       q    Type
REMARK                         _______ _______ _______ _____ _____    ______ ____
ROOT
ATOM      1  N   UNL     1      -2.828  -4.058   0.007  0.00  0.00    -0.277 N 
ATOM      2  C   UNL     1      -2.825  -4.715  -1.170  0.00  0.00    +0.263 A 
ATOM      3  O   UNL     1      -2.838  -4.102  -2.221  0.00  0.00    -0.267 OA
ATOM      4  C   UNL     1      -2.804  -6.189  -1.162  0.00  0.00    +0.064 A 
ATOM      5  C   UNL     1      -2.799  -6.920  -2.349  0.00  0.00    +0.015 A 
ATOM      6  C   UNL     1      -2.779  -8.298  -2.301  0.00  0.00    +0.001 A 
ATOM      7  C   UNL     1      -2.765  -8.956  -1.081  0.00  0.00    +0.002 A 
ATOM      8  C   UNL     1      -2.770  -8.243   0.102  0.00  0.00    +0.027 A 
ATOM      9  C   UNL     1      -2.789  -6.857   0.072  0.00  0.00    +0.064 A 
ATOM     10  N   UNL     1      -2.793  -6.114   1.250  0.00  0.00    -0.256 N 
ATOM     11  C   UNL     1      -2.807  -4.747   1.211  0.00  0.00    +0.240 A 
ATOM     12  N   UNL     1      -2.802  -4.309   2.450  0.00  0.00    -0.109 NA
ATOM     13  N   UNL     1      -2.779  -5.418   3.304  0.00  0.00    -0.120 NA
ATOM     14  C   UNL     1      -2.782  -6.500   2.564  0.00  0.00    +0.198 A 
ENDROOT
BRANCH   1  15
ATOM     15  C   UNL     1      -2.848  -2.593   0.015  0.00  0.00    +0.128 C 
BRANCH  15  16
ATOM     16  C   UNL     1      -1.413  -2.063   0.004  0.00  0.00    +0.022 C 
BRANCH  16  17
ATOM     17  C   UNL     1      -1.433  -0.534   0.013  0.00  0.00    +0.001 C 
BRANCH  17  19
ATOM     18  C   UNL     1      -0.019   1.526   0.010  0.00  0.00    +0.004 C 
ATOM     19  C   UNL     1       0.002  -0.004   0.002  0.00  0.00    -0.003 C 
ENDBRANCH  17  19
ENDBRANCH  16  17
ENDBRANCH  15  16
ENDBRANCH   1  15
BRANCH  14  20
ATOM     20  S   UNL     1      -2.756  -8.160   3.155  0.00  0.00    -0.086 S 
BRANCH  20  21
ATOM     21  C   UNL     1      -2.750  -7.982   4.961  0.00  0.00    +0.078 C 
BRANCH  21  22
ATOM     22  C   UNL     1      -2.728  -9.367   5.610  0.00  0.00    +0.026 C 
BRANCH  22  23
ATOM     23  C   UNL     1      -2.722  -9.217   7.132  0.00  0.00    +0.119 C 
BRANCH  23  24
ATOM     24  C   UNL     1      -2.701 -10.550   7.757  0.00  0.00    +0.063 C 
ATOM     25  N   UNL     1      -2.685 -11.579   8.238  0.00  0.00    -0.197 NA
ENDBRANCH  23  24
ENDBRANCH  22  23
ENDBRANCH  21  22
ENDBRANCH  20  21
ENDBRANCH  14  20
TORSDOF 9
