REMARK  Name = ZINC18370391
REMARK  13 active torsions:
REMARK  status: ('A' for Active; 'I' for Inactive)
REMARK    1  A    between atoms: C_1  and  C_2
REMARK    2  A    between atoms: C_4  and  C_35
REMARK    3  A    between atoms: C_5  and  N_9
REMARK    4  A    between atoms: C_6  and  C_8
REMARK    5  A    between atoms: C_10  and  C_12
REMARK    6  A    between atoms: C_12  and  C_14
REMARK    7  A    between atoms: C_12  and  O_15
REMARK    8  A    between atoms: O_15  and  C_16
REMARK    9  A    between atoms: C_16  and  C_18
REMARK   10  A    between atoms: C_21  and  S_24
REMARK   11  A    between atoms: S_24  and  N_27
REMARK   12  A    between atoms: N_27  and  C_28
REMARK   13  A    between atoms: N_27  and  C_29
REMARK                            x       y       z     vdW  Elec       q    Type
REMARK                         _______ _______ _______ _____ _____    ______ ____
ROOT
ATOM      1  C   UNL     1       0.823   8.856   1.966  0.00  0.00    +0.340 C 
ATOM      2  O   UNL     1       0.743   9.625   2.903  0.00  0.00    -0.245 OA
ENDROOT
BRANCH   1   3
ATOM      3  C   UNL     1      -0.325   7.994   1.618  0.00  0.00    +0.059 A 
ATOM      4  C   UNL     1      -1.504   8.061   2.364  0.00  0.00    +0.017 A 
ATOM      5  C   UNL     1      -2.572   7.253   2.033  0.00  0.00    +0.029 A 
ATOM      6  C   UNL     1      -2.478   6.379   0.965  0.00  0.00    +0.106 A 
ATOM      7  C   UNL     1      -1.311   6.304   0.225  0.00  0.00    +0.029 A 
ATOM      8  C   UNL     1      -0.237   7.110   0.541  0.00  0.00    +0.017 A 
BRANCH   6   9
ATOM      9  S   UNL     1      -3.848   5.351   0.549  0.00  0.00    +0.061 S 
ATOM     10  O   UNL     1      -4.625   5.214   1.730  0.00  0.00    -0.153 OA
ATOM     11  O   UNL     1      -3.319   4.233  -0.149  0.00  0.00    -0.153 OA
BRANCH   9  12
ATOM     12  N   UNL     1      -4.778   6.190  -0.534  0.00  0.00    -0.177 NA
ATOM     13  C   UNL     1      -4.524   6.061  -1.972  0.00  0.00    +0.132 C 
BRANCH  12  14
ATOM     14  C   UNL     1      -5.855   7.060  -0.056  0.00  0.00    +0.080 C 
ATOM     15  C   UNL     1      -7.191   6.579  -0.626  0.00  0.00    +0.020 C 
ATOM     16  C   UNL     1      -8.315   7.488  -0.127  0.00  0.00    +0.002 C 
ATOM     17  C   UNL     1      -8.052   8.924  -0.586  0.00  0.00    +0.000 C 
ATOM     18  C   UNL     1      -6.716   9.405  -0.016  0.00  0.00    +0.002 C 
ATOM     19  C   UNL     1      -5.592   8.496  -0.515  0.00  0.00    +0.020 C 
ENDBRANCH  12  14
ENDBRANCH   9  12
ENDBRANCH   6   9
ENDBRANCH   1   3
BRANCH   1  20
ATOM     20  O   UNL     1       1.958   8.789   1.245  0.00  0.00    -0.449 OA
BRANCH  20  21
ATOM     21  C   UNL     1       3.045   9.665   1.644  0.00  0.00    +0.259 C 
ATOM     22  C   UNL     1       3.928   8.948   2.667  0.00  0.00    +0.062 C 
BRANCH  21  24
ATOM     23  N   UNL     1       4.939  10.836   0.565  0.00  0.00    -0.282 N 
ATOM     24  C   UNL     1       3.869  10.026   0.435  0.00  0.00    +0.258 C 
ATOM     25  O   UNL     1       3.570   9.588  -0.656  0.00  0.00    -0.271 OA
ATOM     26  H   UNL     1       5.138  11.242   1.423  0.00  0.00    +0.155 HD
BRANCH  23  31
ATOM     27  C   UNL     1       8.280  11.865  -3.902  0.00  0.00    +0.044 C 
ATOM     28  C   UNL     1       7.393  11.591  -2.716  0.00  0.00    -0.050 A 
ATOM     29  C   UNL     1       7.093  10.288  -2.364  0.00  0.00    +0.008 A 
ATOM     30  C   UNL     1       6.280  10.034  -1.277  0.00  0.00    -0.029 A 
ATOM     31  C   UNL     1       5.763  11.089  -0.537  0.00  0.00    +0.039 A 
ATOM     32  C   UNL     1       6.061  12.397  -0.896  0.00  0.00    -0.029 A 
ATOM     33  C   UNL     1       6.880  12.644  -1.980  0.00  0.00    +0.008 A 
ATOM     34  C   UNL     1       5.498  13.546  -0.099  0.00  0.00    +0.045 C 
ATOM     35  C   UNL     1       5.953   8.614  -0.895  0.00  0.00    +0.045 C 
ENDBRANCH  23  31
ENDBRANCH  21  24
ENDBRANCH  20  21
ENDBRANCH   1  20
TORSDOF 8
