REMARK  Name = ZINC13119871
REMARK  5 active torsions:
REMARK  status: ('A' for Active; 'I' for Inactive)
REMARK    1  A    between atoms: C_1  and  C_2
REMARK    2  A    between atoms: C_4  and  N_14
REMARK    3  A    between atoms: N_17  and  C_20
REMARK    4  A    between atoms: C_23  and  O_26
REMARK    5  A    between atoms: O_26  and  C_27
REMARK                            x       y       z     vdW  Elec       q    Type
REMARK                         _______ _______ _______ _____ _____    ______ ____
ROOT
ATOM      1  N   UNL     1       0.030  -2.760  -2.378  0.00  0.00    -0.314 N 
ATOM      2  C   UNL     1      -0.109  -2.024  -3.643  0.00  0.00    +0.125 C 
ATOM      3  C   UNL     1       1.079  -2.374  -4.547  0.00  0.00    +0.124 C 
ATOM      4  N   UNL     1       1.222  -3.836  -4.590  0.00  0.00    -0.327 N 
ATOM      5  C   UNL     1       1.361  -4.572  -3.325  0.00  0.00    +0.124 C 
ATOM      6  C   UNL     1       0.178  -4.221  -2.422  0.00  0.00    +0.125 C 
ENDROOT
BRANCH   1  10
ATOM      7  C   UNL     1      -1.600   0.978   0.298  0.00  0.00    +0.044 C 
ATOM      8  C   UNL     1      -0.764  -0.267   0.146  0.00  0.00    -0.038 A 
ATOM      9  C   UNL     1      -0.745  -0.946  -1.040  0.00  0.00    +0.045 A 
ATOM     10  C   UNL     1       0.027  -2.095  -1.183  0.00  0.00    +0.099 A 
ATOM     11  N   UNL     1       0.775  -2.567  -0.155  0.00  0.00    -0.343 N 
ATOM     12  H   UNL     1       1.307  -3.370  -0.274  0.00  0.00    +0.167 HD
ATOM     13  C   UNL     1       0.785  -1.911   1.056  0.00  0.00    +0.052 A 
ATOM     14  C   UNL     1       1.547  -2.385   2.111  0.00  0.00    +0.077 A 
ATOM     15  C   UNL     1       1.541  -1.702   3.329  0.00  0.00    +0.181 A 
ATOM     16  O   UNL     1       2.274  -2.155   4.348  0.00  0.00    -0.288 OA
ATOM     17  C   UNL     1       0.765  -0.538   3.487  0.00  0.00    +0.051 A 
ATOM     18  C   UNL     1       0.015  -0.066   2.458  0.00  0.00    +0.014 A 
ATOM     19  C   UNL     1       0.013  -0.739   1.223  0.00  0.00    +0.002 A 
ENDBRANCH   1  10
BRANCH   4  20
ATOM     20  C   UNL     1       1.225  -4.516  -5.813  0.00  0.00    +0.030 A 
ATOM     21  C   UNL     1       1.233  -5.904  -5.837  0.00  0.00    +0.027 A 
ATOM     22  C   UNL     1       1.236  -6.574  -7.044  0.00  0.00    +0.047 A 
ATOM     23  C   UNL     1       1.231  -5.860  -8.233  0.00  0.00    +0.120 A 
ATOM     24  C   UNL     1       1.224  -4.473  -8.211  0.00  0.00    +0.047 A 
ATOM     25  C   UNL     1       1.215  -3.802  -7.004  0.00  0.00    +0.027 A 
BRANCH  23  26
ATOM     26  O   UNL     1       1.233  -6.521  -9.422  0.00  0.00    -0.495 OA
ATOM     27  C   UNL     1       1.228  -5.723 -10.608  0.00  0.00    +0.277 C 
ENDBRANCH  23  26
ENDBRANCH   4  20
TORSDOF 3
