REMARK  Name = ZINC04222245
REMARK  9 active torsions:
REMARK  status: ('A' for Active; 'I' for Inactive)
REMARK    1  A    between atoms: C_1  and  C_2
REMARK    2  A    between atoms: C_2  and  C_3
REMARK    3  A    between atoms: C_2  and  C_4
REMARK    4  A    between atoms: C_4  and  C_5
REMARK    5  A    between atoms: C_5  and  C_7
REMARK    6  A    between atoms: C_5  and  N_61
REMARK    7  A    between atoms: N_9  and  C_10
REMARK    8  A    between atoms: C_24  and  C_29
REMARK    9  A    between atoms: C_34  and  N_61
REMARK                            x       y       z     vdW  Elec       q    Type
REMARK                         _______ _______ _______ _____ _____    ______ ____
ROOT
ATOM      1  C   UNL     1      10.624   0.828   2.296  0.00  0.00    +0.077 C 
ATOM      2  C   UNL     1       9.988  -0.467   1.777  0.00  0.00    +0.041 C 
ATOM      3  C   UNL     1       9.055  -0.113   0.622  0.00  0.00    +0.111 C 
ATOM      4  N   UNL     1       8.118   0.919   1.017  0.00  0.00    -0.286 N 
ATOM      5  C   UNL     1       8.397   1.957   1.988  0.00  0.00    +0.164 C 
ATOM      6  C   UNL     1       9.531   1.675   2.941  0.00  0.00    +0.054 C 
ATOM      7  C   UNL     1       8.546   3.279   1.296  0.00  0.00    +0.238 C 
ATOM      8  O   UNL     1       9.614   3.853   1.322  0.00  0.00    -0.273 OA
ATOM      9  N   UNL     1       7.517   3.831   0.652  0.00  0.00    -0.283 N 
ATOM     10  C   UNL     1       6.225   3.329   0.660  0.00  0.00    +0.046 A 
ATOM     11  C   UNL     1       5.192   4.267   0.776  0.00  0.00    +0.024 A 
ATOM     12  C   UNL     1       3.878   3.870   0.821  0.00  0.00    +0.011 A 
ATOM     13  C   UNL     1       3.557   2.510   0.761  0.00  0.00    -0.010 A 
ATOM     14  C   UNL     1       4.569   1.570   0.635  0.00  0.00    +0.024 A 
ATOM     15  C   UNL     1       5.913   1.973   0.574  0.00  0.00    +0.059 A 
ATOM     16  C   UNL     1       6.917   0.916   0.403  0.00  0.00    +0.249 C 
ATOM     17  O   UNL     1       6.652  -0.014  -0.334  0.00  0.00    -0.270 OA
ATOM     18  H   UNL     1       7.684   4.639   0.142  0.00  0.00    +0.155 HD
ENDROOT
BRANCH  13  19
ATOM     19  C   UNL     1       2.144   2.078   0.824  0.00  0.00    +0.019 A 
ATOM     20  C   UNL     1       1.013   2.839   0.946  0.00  0.00    +0.016 A 
ATOM     21  C   UNL     1      -0.210   2.206   0.985  0.00  0.00    +0.008 A 
ATOM     22  C   UNL     1      -0.258   0.852   0.902  0.00  0.00    +0.046 A 
ATOM     23  S   UNL     1       1.470   0.425   0.763  0.00  0.00    -0.097 S 
ENDBRANCH  13  19
BRANCH   1  26
ATOM     24  C   UNL     1      12.910   0.231   2.894  0.00  0.00    +0.199 C 
ATOM     25  O   UNL     1      13.191   0.245   1.714  0.00  0.00    -0.278 OA
ATOM     26  N   UNL     1      11.652   0.509   3.290  0.00  0.00    -0.314 N 
ATOM     27  H   UNL     1      11.427   0.498   4.234  0.00  0.00    +0.149 HD
BRANCH  24  28
ATOM     28  C   UNL     1      13.967  -0.097   3.916  0.00  0.00    +0.016 C 
BRANCH  28  30
ATOM     29  C   UNL     1      14.585  -2.359   3.312  0.00  0.00    -0.099 C 
ATOM     30  N   UNL     1      15.004  -0.945   3.298  0.00  0.00    +0.385 N 
ATOM     31  H   UNL     1      15.880  -0.846   3.825  0.00  0.00    -0.085 HD
ATOM     32  H   UNL     1      15.152  -0.645   2.328  0.00  0.00    -0.085 HD
ENDBRANCH  28  30
BRANCH  28  33
ATOM     33  C   UNL     1      14.610   1.197   4.418  0.00  0.00    -0.004 C 
BRANCH  33  35
ATOM     34  C   UNL     1      16.346   2.146   5.944  0.00  0.00    +0.007 C 
ATOM     35  C   UNL     1      15.596   0.874   5.543  0.00  0.00    -0.018 C 
ATOM     36  C   UNL     1      14.830   0.332   6.752  0.00  0.00    +0.007 C 
ENDBRANCH  33  35
ENDBRANCH  28  33
ENDBRANCH  24  28
ENDBRANCH   1  26
TORSDOF 6
