REMARK  Name = ZINC64182047
REMARK  10 active torsions:
REMARK  status: ('A' for Active; 'I' for Inactive)
REMARK    1  A    between atoms: C_1  and  N_2
REMARK    2  A    between atoms: N_2  and  C_3
REMARK    3  A    between atoms: N_2  and  C_4
REMARK    4  A    between atoms: C_4  and  C_5
REMARK    5  A    between atoms: C_5  and  N_6
REMARK    6  A    between atoms: N_6  and  S_7
REMARK    7  A    between atoms: S_7  and  C_10
REMARK    8  A    between atoms: C_13  and  N_19
REMARK    9  A    between atoms: C_14  and  N_16
REMARK   10  A    between atoms: C_22  and  C_25
REMARK                            x       y       z     vdW  Elec       q    Type
REMARK                         _______ _______ _______ _____ _____    ______ ____
ROOT
ATOM      1  C   UNL     1      -2.089  -5.158   0.456  0.00  0.00    +0.108 A 
ATOM      2  C   UNL     1      -0.812  -5.686   0.381  0.00  0.00    +0.030 A 
ATOM      3  C   UNL     1      -0.364  -6.553   1.357  0.00  0.00    +0.027 A 
ATOM      4  C   UNL     1      -1.196  -6.895   2.416  0.00  0.00    +0.060 A 
ATOM      5  C   UNL     1      -2.477  -6.363   2.489  0.00  0.00    +0.149 A 
ATOM      6  C   UNL     1      -2.917  -5.492   1.511  0.00  0.00    +0.063 A 
ENDROOT
BRANCH   4   7
ATOM      7  N   UNL     1      -0.745  -7.772   3.405  0.00  0.00    -0.328 N 
ATOM      8  C   UNL     1       0.020  -7.273   4.556  0.00  0.00    +0.106 C 
ATOM      9  C   UNL     1       1.327  -8.065   4.660  0.00  0.00    +0.027 C 
ATOM     10  C   UNL     1       1.010  -9.561   4.717  0.00  0.00    +0.020 C 
ATOM     11  C   UNL     1       0.292  -9.981   3.433  0.00  0.00    +0.027 C 
ATOM     12  C   UNL     1      -1.032  -9.210   3.318  0.00  0.00    +0.106 C 
BRANCH  10  13
ATOM     13  C   UNL     1       2.292 -10.341   4.853  0.00  0.00    -0.038 C 
ATOM     14  C   UNL     1       2.632 -11.178   5.860  0.00  0.00    -0.001 A 
ATOM     15  C   UNL     1       1.937 -11.595   7.084  0.00  0.00    +0.010 A 
ATOM     16  C   UNL     1       2.547 -12.465   7.920  0.00  0.00    +0.001 A 
ATOM     17  C   UNL     1       3.823 -12.978   7.648  0.00  0.00    +0.002 A 
ATOM     18  C   UNL     1       4.524 -12.642   6.545  0.00  0.00    +0.026 A 
ATOM     19  C   UNL     1       3.979 -11.733   5.596  0.00  0.00    +0.043 A 
ATOM     20  N   UNL     1       4.453 -11.259   4.470  0.00  0.00    -0.380 N 
ATOM     21  C   UNL     1       3.457 -10.352   3.888  0.00  0.00    +0.145 C 
ATOM     22  H   UNL     1       5.316 -11.475   4.083  0.00  0.00    +0.160 HD
ENDBRANCH  10  13
ENDBRANCH   4   7
BRANCH   1  23
ATOM     23  S   UNL     1      -2.657  -4.052  -0.792  0.00  0.00    +0.058 S 
ATOM     24  O   UNL     1      -4.076  -4.120  -0.779  0.00  0.00    -0.153 OA
ATOM     25  O   UNL     1      -1.891  -4.326  -1.957  0.00  0.00    -0.153 OA
BRANCH  23  26
ATOM     26  N   UNL     1      -2.252  -2.520  -0.310  0.00  0.00    -0.192 NA
ATOM     27  H   UNL     1      -2.949  -1.877  -0.103  0.00  0.00    +0.148 HD
BRANCH  26  28
ATOM     28  C   UNL     1      -0.843  -2.137  -0.194  0.00  0.00    +0.087 C 
BRANCH  28  29
ATOM     29  C   UNL     1      -0.735  -0.613  -0.105  0.00  0.00    -0.063 C 
BRANCH  29  31
ATOM     30  C   UNL     1       0.792   1.235  -0.023  0.00  0.00    -0.097 C 
ATOM     31  N   UNL     1       0.678  -0.229   0.011  0.00  0.00    +0.377 N 
ATOM     32  C   UNL     1       1.220  -0.732   1.280  0.00  0.00    -0.097 C 
ATOM     33  H   UNL     1       1.198  -0.625  -0.757  0.00  0.00    -0.083 HD
ENDBRANCH  29  31
ENDBRANCH  28  29
ENDBRANCH  26  28
ENDBRANCH  23  26
ENDBRANCH   1  23
BRANCH   5  34
ATOM     34  N   UNL     1      -3.367  -6.725   3.615  0.00  0.00    +0.058 N 
ATOM     35  O   UNL     1      -4.513  -6.342   3.626  0.00  0.00    -0.126 OA
ATOM     36  O   UNL     1      -2.947  -7.403   4.523  0.00  0.00    -0.126 OA
ENDBRANCH   5  34
TORSDOF 8
