REMARK  Name = ZINC00966014
REMARK  11 active torsions:
REMARK  status: ('A' for Active; 'I' for Inactive)
REMARK    1  A    between atoms: C_1  and  C_2
REMARK    2  A    between atoms: C_2  and  C_3
REMARK    3  A    between atoms: C_3  and  C_5
REMARK    4  A    between atoms: C_3  and  N_6
REMARK    5  A    between atoms: C_7  and  C_9
REMARK    6  A    between atoms: C_12  and  C_14
REMARK    7  A    between atoms: C_14  and  S_15
REMARK    8  A    between atoms: S_15  and  C_16
REMARK    9  A    between atoms: C_19  and  C_28
REMARK   10  A    between atoms: N_20  and  C_21
REMARK   11  A    between atoms: C_26  and  C_27
REMARK                            x       y       z     vdW  Elec       q    Type
REMARK                         _______ _______ _______ _____ _____    ______ ____
ROOT
ATOM      1  C   UNL     1       2.034  -4.190   0.120  0.00  0.00    +0.197 A 
ATOM      2  N   UNL     1       0.761  -4.171  -0.208  0.00  0.00    -0.122 NA
ATOM      3  N   UNL     1       0.343  -2.959  -0.292  0.00  0.00    -0.128 NA
ATOM      4  C   UNL     1       1.322  -2.127  -0.022  0.00  0.00    +0.171 A 
ATOM      5  N   UNL     1       2.439  -2.889   0.244  0.00  0.00    -0.270 N 
ENDROOT
BRANCH   5   6
ATOM      6  C   UNL     1       3.720  -2.429   0.576  0.00  0.00    +0.053 A 
ATOM      7  C   UNL     1       4.063  -2.223   1.906  0.00  0.00    +0.026 A 
ATOM      8  C   UNL     1       5.326  -1.769   2.230  0.00  0.00    +0.002 A 
ATOM      9  C   UNL     1       6.250  -1.521   1.231  0.00  0.00    +0.000 A 
ATOM     10  C   UNL     1       5.912  -1.724  -0.094  0.00  0.00    +0.005 A 
ATOM     11  C   UNL     1       4.652  -2.183  -0.424  0.00  0.00    -0.026 A 
ATOM     12  C   UNL     1       4.286  -2.412  -1.868  0.00  0.00    +0.046 C 
ENDBRANCH   5   6
BRANCH   4  13
ATOM     13  C   UNL     1       1.244  -0.651  -0.013  0.00  0.00    +0.038 A 
ATOM     14  C   UNL     1       0.002  -0.004   0.002  0.00  0.00    +0.014 A 
ATOM     15  C   UNL     1      -0.017   1.379   0.010  0.00  0.00    +0.020 A 
ATOM     16  C   UNL     1       1.180   2.073   0.002  0.00  0.00    +0.111 A 
ATOM     17  N   UNL     1       2.336   1.437  -0.013  0.00  0.00    -0.263 NA
ATOM     18  C   UNL     1       2.406   0.122  -0.020  0.00  0.00    +0.122 A 
ENDBRANCH   4  13
BRANCH   1  19
ATOM     19  S   UNL     1       3.033  -5.623   0.349  0.00  0.00    -0.079 S 
BRANCH  19  20
ATOM     20  C   UNL     1       1.812  -6.915   0.009  0.00  0.00    +0.140 C 
BRANCH  20  24
ATOM     21  C   UNL     1       3.176 -10.200   1.144  0.00  0.00    +0.133 A 
ATOM     22  C   UNL     1       3.691 -10.574  -0.071  0.00  0.00    +0.080 A 
ATOM     23  S   UNL     1       3.265  -9.214  -1.061  0.00  0.00    -0.079 S 
ATOM     24  C   UNL     1       2.461  -8.268   0.150  0.00  0.00    +0.089 A 
ATOM     25  N   UNL     1       2.562  -9.018   1.216  0.00  0.00    -0.239 NA
BRANCH  21  27
ATOM     26  N   UNL     1       2.785 -10.678   3.508  0.00  0.00    -0.308 N 
ATOM     27  C   UNL     1       3.300 -11.070   2.326  0.00  0.00    +0.263 C 
ATOM     28  O   UNL     1       3.869 -12.141   2.236  0.00  0.00    -0.269 OA
ATOM     29  H   UNL     1       2.332  -9.823   3.580  0.00  0.00    +0.149 HD
BRANCH  26  30
ATOM     30  C   UNL     1       2.909 -11.542   4.684  0.00  0.00    +0.070 C 
ATOM     31  C   UNL     1       4.261 -11.296   5.358  0.00  0.00    +0.028 C 
BRANCH  30  33
ATOM     32  C   UNL     1       0.437 -11.592   5.040  0.00  0.00    +0.005 C 
ATOM     33  C   UNL     1       1.782 -11.227   5.670  0.00  0.00    +0.018 C 
ENDBRANCH  30  33
ENDBRANCH  26  30
ENDBRANCH  21  27
ENDBRANCH  20  24
ENDBRANCH  19  20
ENDBRANCH   1  19
TORSDOF 8
