REMARK  Name = ZINC38958838
REMARK  4 active torsions:
REMARK  status: ('A' for Active; 'I' for Inactive)
REMARK    1  A    between atoms: C_1  and  C_2
REMARK    2  A    between atoms: C_5  and  N_9
REMARK    3  A    between atoms: C_7  and  C_8
REMARK    4  A    between atoms: C_14  and  C_15
REMARK                            x       y       z     vdW  Elec       q    Type
REMARK                         _______ _______ _______ _____ _____    ______ ____
ROOT
ATOM      1  N   UNL     1       0.057  -4.141  -0.021  0.00  0.00    -0.226 NA
ATOM      2  C   UNL     1      -0.743  -4.803  -0.824  0.00  0.00    +0.166 C 
ATOM      3  N   UNL     1      -1.655  -4.302  -1.726  0.00  0.00    -0.260 N 
ATOM      4  C   UNL     1      -2.390  -5.115  -2.467  0.00  0.00    +0.256 C 
ATOM      5  C   UNL     1      -2.176  -6.571  -2.273  0.00  0.00    +0.078 C 
ATOM      6  C   UNL     1      -2.791  -7.639  -2.898  0.00  0.00    +0.026 C 
ATOM      7  S   UNL     1      -0.904  -6.570  -1.017  0.00  0.00    -0.049 S 
ATOM      8  O   UNL     1      -3.200  -4.691  -3.268  0.00  0.00    -0.269 OA
ATOM      9  H   UNL     1      -1.761  -3.342  -1.819  0.00  0.00    +0.157 HD
ENDROOT
BRANCH   6  10
ATOM     10  C   UNL     1      -2.435  -8.944  -2.560  0.00  0.00    -0.018 C 
ATOM     11  C   UNL     1      -2.951 -10.126  -3.096  0.00  0.00    +0.003 A 
ATOM     12  C   UNL     1      -3.928 -10.380  -4.081  0.00  0.00    +0.010 A 
ATOM     13  C   UNL     1      -4.236 -11.661  -4.410  0.00  0.00    +0.001 A 
ATOM     14  C   UNL     1      -3.607 -12.747  -3.794  0.00  0.00    +0.002 A 
ATOM     15  C   UNL     1      -2.660 -12.578  -2.840  0.00  0.00    +0.026 A 
ATOM     16  C   UNL     1      -2.284 -11.267  -2.443  0.00  0.00    +0.043 A 
ATOM     17  N   UNL     1      -1.408 -10.843  -1.557  0.00  0.00    -0.380 N 
ATOM     18  C   UNL     1      -1.405  -9.377  -1.540  0.00  0.00    +0.149 C 
ATOM     19  H   UNL     1      -0.850 -11.411  -1.004  0.00  0.00    +0.160 HD
ENDBRANCH   6  10
BRANCH   1  24
ATOM     20  C   UNL     1      -0.018   1.503   0.010  0.00  0.00    +0.044 C 
ATOM     21  C   UNL     1       0.002  -0.004   0.002  0.00  0.00    -0.047 A 
ATOM     22  C   UNL     1       0.006  -0.686  -1.202  0.00  0.00    +0.006 A 
ATOM     23  C   UNL     1       0.024  -2.065  -1.218  0.00  0.00    +0.028 A 
ATOM     24  C   UNL     1       0.039  -2.773  -0.013  0.00  0.00    +0.067 A 
ATOM     25  C   UNL     1       0.036  -2.078   1.199  0.00  0.00    +0.031 A 
ATOM     26  C   UNL     1       0.023  -0.699   1.198  0.00  0.00    -0.046 A 
ATOM     27  C   UNL     1       0.025   0.053   2.504  0.00  0.00    +0.044 C 
ENDBRANCH   1  24
TORSDOF 2
