REMARK  Name = ZINC19597225
REMARK  8 active torsions:
REMARK  status: ('A' for Active; 'I' for Inactive)
REMARK    1  A    between atoms: C_4  and  C_7
REMARK    2  A    between atoms: C_7  and  N_8
REMARK    3  A    between atoms: C_15  and  C_27
REMARK    4  A    between atoms: C_17  and  C_23
REMARK    5  A    between atoms: C_17  and  C_25
REMARK    6  A    between atoms: C_18  and  N_22
REMARK    7  A    between atoms: C_19  and  C_20
REMARK    8  A    between atoms: C_30  and  N_32
REMARK                            x       y       z     vdW  Elec       q    Type
REMARK                         _______ _______ _______ _____ _____    ______ ____
ROOT
ATOM      1  N   UNL     1      -0.018   1.465   0.010  0.00  0.00    -0.294 NA
ATOM      2  C   UNL     1       1.351   2.012   0.000  0.00  0.00    +0.112 C 
ATOM      3  C   UNL     1       1.243   3.507  -0.168  0.00  0.00    -0.006 C 
ATOM      4  C   UNL     1       0.217   4.157   0.351  0.00  0.00    -0.026 C 
ATOM      5  C   UNL     1      -0.849   3.482   1.166  0.00  0.00    +0.045 C 
ATOM      6  C   UNL     1      -0.757   1.974   1.169  0.00  0.00    +0.094 C 
ATOM      7  C   UNL     1      -2.209   3.976   0.671  0.00  0.00    +0.074 C 
ATOM      8  C   UNL     1      -2.310   5.481   0.921  0.00  0.00    +0.189 C 
ATOM      9  C   UNL     1      -1.113   6.215   0.396  0.00  0.00    +0.054 C 
ATOM     10  C   UNL     1       0.078   5.619   0.136  0.00  0.00    +0.074 C 
ENDROOT
BRANCH   7  11
ATOM     11  C   UNL     1      -3.307   3.265   1.419  0.00  0.00    -0.001 A 
ATOM     12  C   UNL     1      -4.303   2.484   0.934  0.00  0.00    +0.014 A 
ATOM     13  C   UNL     1      -5.210   1.929   1.818  0.00  0.00    +0.041 A 
ATOM     14  C   UNL     1      -5.075   2.181   3.143  0.00  0.00    +0.164 A 
ATOM     15  S   UNL     1      -3.629   3.227   3.175  0.00  0.00    -0.069 S 
BRANCH  14  16
ATOM     16  N   UNL     1      -5.908   1.707   4.271  0.00  0.00    +0.063 N 
ATOM     17  O   UNL     1      -6.866   0.985   4.060  0.00  0.00    -0.126 OA
ATOM     18  O   UNL     1      -5.635   2.038   5.411  0.00  0.00    -0.126 OA
ENDBRANCH  14  16
ENDBRANCH   7  11
BRANCH   9  19
ATOM     19  N   UNL     1      -1.228   7.558   0.168  0.00  0.00    -0.358 N 
ATOM     20  H   UNL     1      -0.367   8.125  -0.217  0.00  0.00    +0.142 HD
ATOM     21  H   UNL     1      -2.180   8.070   0.369  0.00  0.00    +0.142 HD
ENDBRANCH   9  19
BRANCH  10  22
ATOM     22  C   UNL     1       1.187   6.390  -0.341  0.00  0.00    +0.101 C 
ATOM     23  N   UNL     1       2.066   7.002  -0.719  0.00  0.00    -0.191 NA
ENDBRANCH  10  22
BRANCH   8  24
ATOM     24  C   UNL     1      -2.422   5.720   2.369  0.00  0.00    +0.091 C 
ATOM     25  N   UNL     1      -2.509   5.904   3.487  0.00  0.00    -0.194 NA
ENDBRANCH   8  24
BRANCH   8  26
ATOM     26  C   UNL     1      -3.518   5.997   0.257  0.00  0.00    +0.091 C 
ATOM     27  N   UNL     1      -4.450   6.396  -0.256  0.00  0.00    -0.194 NA
ENDBRANCH   8  26
BRANCH   1  28
ATOM     28  C   UNL     1       0.002  -0.004   0.002  0.00  0.00    +0.120 C 
BRANCH  28  32
ATOM     29  C   UNL     1       1.691  -1.426   3.659  0.00  0.00    +0.000 A 
ATOM     30  C   UNL     1       0.329  -1.213   3.564  0.00  0.00    +0.000 A 
ATOM     31  C   UNL     1      -0.218  -0.753   2.380  0.00  0.00    +0.005 A 
ATOM     32  C   UNL     1       0.598  -0.505   1.292  0.00  0.00    -0.033 A 
ATOM     33  C   UNL     1       1.960  -0.723   1.386  0.00  0.00    +0.005 A 
ATOM     34  C   UNL     1       2.507  -1.179   2.570  0.00  0.00    +0.000 A 
ENDBRANCH  28  32
ENDBRANCH   1  28
TORSDOF 8
