REMARK  Name = ZINC36184100
REMARK  11 active torsions:
REMARK  status: ('A' for Active; 'I' for Inactive)
REMARK    1  A    between atoms: C_1  and  C_2
REMARK    2  A    between atoms: C_5  and  N_11
REMARK    3  A    between atoms: C_6  and  N_8
REMARK    4  A    between atoms: C_12  and  C_14
REMARK    5  A    between atoms: C_14  and  C_16
REMARK    6  A    between atoms: C_14  and  S_22
REMARK    7  A    between atoms: S_22  and  C_23
REMARK    8  A    between atoms: C_26  and  C_29
REMARK    9  A    between atoms: N_27  and  N_28
REMARK   10  A    between atoms: C_34  and  O_35
REMARK   11  A    between atoms: O_35  and  C_36
REMARK                            x       y       z     vdW  Elec       q    Type
REMARK                         _______ _______ _______ _____ _____    ______ ____
ROOT
ATOM      1  C   UNL     1      -0.327  -5.888  -1.520  0.00  0.00    +0.170 C 
ENDROOT
BRANCH   1   2
ATOM      2  C   UNL     1       1.030  -6.541  -1.464  0.00  0.00    -0.025 A 
ATOM      3  C   UNL     1       2.004  -6.191  -2.380  0.00  0.00    +0.005 A 
ATOM      4  C   UNL     1       3.249  -6.789  -2.328  0.00  0.00    +0.000 A 
ATOM      5  C   UNL     1       3.520  -7.737  -1.360  0.00  0.00    +0.000 A 
ATOM      6  C   UNL     1       2.547  -8.086  -0.442  0.00  0.00    +0.000 A 
ATOM      7  C   UNL     1       1.303  -7.485  -0.491  0.00  0.00    +0.005 A 
ENDBRANCH   1   2
BRANCH   1   9
ATOM      8  N   UNL     1      -0.013  -3.876  -0.116  0.00  0.00    -0.282 N 
ATOM      9  C   UNL     1      -0.176  -4.399  -1.348  0.00  0.00    +0.235 C 
ATOM     10  O   UNL     1      -0.201  -3.671  -2.317  0.00  0.00    -0.274 OA
ATOM     11  H   UNL     1       0.090  -4.462   0.650  0.00  0.00    +0.155 HD
BRANCH   8  16
ATOM     12  C   UNL     1       0.064   1.752   0.588  0.00  0.00    +0.044 C 
ATOM     13  C   UNL     1       0.043   0.257   0.401  0.00  0.00    -0.048 A 
ATOM     14  C   UNL     1      -0.616  -0.293  -0.683  0.00  0.00    +0.005 A 
ATOM     15  C   UNL     1      -0.636  -1.663  -0.857  0.00  0.00    +0.026 A 
ATOM     16  C   UNL     1       0.006  -2.488   0.057  0.00  0.00    +0.064 A 
ATOM     17  C   UNL     1       0.667  -1.932   1.145  0.00  0.00    +0.148 A 
ATOM     18  C   UNL     1       0.688  -0.561   1.310  0.00  0.00    +0.038 A 
BRANCH  17  19
ATOM     19  N   UNL     1       1.353  -2.807   2.121  0.00  0.00    +0.058 N 
ATOM     20  O   UNL     1       1.844  -2.332   3.118  0.00  0.00    -0.126 OA
ATOM     21  O   UNL     1       1.421  -3.998   1.923  0.00  0.00    -0.126 OA
ENDBRANCH  17  19
ENDBRANCH   8  16
ENDBRANCH   1   9
BRANCH   1  22
ATOM     22  S   UNL     1      -1.099  -6.237  -3.124  0.00  0.00    -0.067 S 
BRANCH  22  23
ATOM     23  C   UNL     1      -1.340  -7.982  -3.112  0.00  0.00    +0.210 A 
ATOM     24  N   UNL     1      -1.024  -8.805  -2.138  0.00  0.00    -0.121 NA
ATOM     25  N   UNL     1      -1.337 -10.010  -2.459  0.00  0.00    -0.127 NA
ATOM     26  C   UNL     1      -1.872 -10.030  -3.658  0.00  0.00    +0.185 A 
ATOM     27  N   UNL     1      -1.895  -8.731  -4.111  0.00  0.00    -0.224 N 
BRANCH  26  28
ATOM     28  C   UNL     1      -2.361 -11.221  -4.381  0.00  0.00    +0.062 A 
ATOM     29  C   UNL     1      -2.116 -11.361  -5.748  0.00  0.00    +0.015 A 
ATOM     30  C   UNL     1      -2.576 -12.476  -6.418  0.00  0.00    +0.001 A 
ATOM     31  C   UNL     1      -3.279 -13.457  -5.741  0.00  0.00    +0.004 A 
ATOM     32  C   UNL     1      -3.528 -13.329  -4.387  0.00  0.00    +0.046 A 
ATOM     33  C   UNL     1      -3.068 -12.219  -3.698  0.00  0.00    +0.131 A 
BRANCH  33  34
ATOM     34  O   UNL     1      -3.307 -12.095  -2.367  0.00  0.00    -0.494 OA
ATOM     35  C   UNL     1      -4.034 -13.152  -1.737  0.00  0.00    +0.277 C 
ENDBRANCH  33  34
ENDBRANCH  26  28
BRANCH  27  36
ATOM     36  N   UNL     1      -2.372  -8.283  -5.310  0.00  0.00    -0.295 N 
ATOM     37  H   UNL     1      -1.670  -8.362  -6.030  0.00  0.00    +0.163 HD
ATOM     38  H   UNL     1      -3.214  -8.774  -5.570  0.00  0.00    +0.163 HD
ENDBRANCH  27  36
ENDBRANCH  22  23
ENDBRANCH   1  22
TORSDOF 9
