REMARK  Name = ZINC01043970
REMARK  6 active torsions:
REMARK  status: ('A' for Active; 'I' for Inactive)
REMARK    1  A    between atoms: C_1  and  C_2
REMARK    2  A    between atoms: C_2  and  C_5
REMARK    3  A    between atoms: N_3  and  O_4
REMARK    4  A    between atoms: C_5  and  C_6
REMARK    5  A    between atoms: C_6  and  C_8
REMARK    6  A    between atoms: C_6  and  C_15
REMARK                            x       y       z     vdW  Elec       q    Type
REMARK                         _______ _______ _______ _____ _____    ______ ____
ROOT
ATOM      1  C   UNL     1      -1.428  -0.335  -1.997  0.00  0.00    +0.065 C 
ENDROOT
BRANCH   1   2
ATOM      2  C   UNL     1      -1.513  -1.178  -3.243  0.00  0.00    +0.092 A 
ATOM      3  C   UNL     1      -0.489  -2.023  -3.572  0.00  0.00    +0.200 A 
ATOM      4  C   UNL     1      -0.622  -2.824  -4.800  0.00  0.00    +0.065 A 
ATOM      5  C   UNL     1       0.384  -3.707  -5.196  0.00  0.00    +0.015 A 
ATOM      6  C   UNL     1       0.229  -4.442  -6.350  0.00  0.00    +0.001 A 
ATOM      7  C   UNL     1      -0.919  -4.309  -7.116  0.00  0.00    +0.004 A 
ATOM      8  C   UNL     1      -1.921  -3.439  -6.737  0.00  0.00    +0.047 A 
ATOM      9  C   UNL     1      -1.784  -2.689  -5.576  0.00  0.00    +0.143 A 
ATOM     10  O   UNL     1      -2.756  -1.834  -5.189  0.00  0.00    -0.422 OA
ATOM     11  C   UNL     1      -2.646  -1.103  -4.068  0.00  0.00    +0.345 A 
ATOM     12  O   UNL     1      -3.554  -0.350  -3.761  0.00  0.00    -0.245 OA
ATOM     13  O   UNL     1       0.612  -2.119  -2.793  0.00  0.00    -0.287 OA
ENDBRANCH   1   2
BRANCH   1  14
ATOM     14  C   UNL     1      -1.072   1.081  -2.371  0.00  0.00    -0.039 A 
ATOM     15  C   UNL     1       0.112   1.343  -3.035  0.00  0.00    +0.005 A 
ATOM     16  C   UNL     1       0.439   2.641  -3.379  0.00  0.00    +0.020 A 
ATOM     17  C   UNL     1      -0.419   3.678  -3.058  0.00  0.00    +0.041 A 
ATOM     18  C   UNL     1      -1.603   3.415  -2.393  0.00  0.00    +0.020 A 
ATOM     19  C   UNL     1      -1.932   2.116  -2.055  0.00  0.00    +0.005 A 
ATOM     20 CL   UNL     1      -0.008   5.309  -3.488  0.00  0.00    -0.084 Cl
ENDBRANCH   1  14
BRANCH   1  21
ATOM     21  C   UNL     1      -0.351  -0.904  -1.070  0.00  0.00    +0.067 C 
BRANCH  21  23
ATOM     22  C   UNL     1       0.482   0.969   0.547  0.00  0.00    +0.064 C 
ATOM     23  C   UNL     1      -0.418  -0.206   0.265  0.00  0.00    +0.055 C 
ATOM     24  N   UNL     1      -1.240  -0.612   1.158  0.00  0.00    -0.097 NA
BRANCH  24  25
ATOM     25  O   UNL     1      -2.086  -1.716   0.893  0.00  0.00    -0.409 OA
ATOM     26  H   UNL     1      -2.671  -1.948   1.627  0.00  0.00    +0.328 HD
ENDBRANCH  24  25
ENDBRANCH  21  23
ENDBRANCH   1  21
TORSDOF 5
