REMARK  Name = ZINC39710209
REMARK  10 active torsions:
REMARK  status: ('A' for Active; 'I' for Inactive)
REMARK    1  A    between atoms: C_1  and  C_2
REMARK    2  A    between atoms: C_9  and  C_14
REMARK    3  A    between atoms: C_14  and  C_16
REMARK    4  A    between atoms: C_14  and  N_25
REMARK    5  A    between atoms: N_20  and  C_21
REMARK    6  A    between atoms: C_21  and  C_22
REMARK    7  A    between atoms: C_22  and  O_23
REMARK    8  A    between atoms: O_23  and  C_24
REMARK    9  A    between atoms: N_28  and  C_31
REMARK   10  A    between atoms: C_35  and  C_37
REMARK                            x       y       z     vdW  Elec       q    Type
REMARK                         _______ _______ _______ _____ _____    ______ ____
ROOT
ATOM      1  C   UNL     1       1.342  -4.876   2.936  0.00  0.00    +0.142 C 
ENDROOT
BRANCH   1  10
ATOM      2  C   UNL     1       0.808   1.287  -0.634  0.00  0.00    +0.044 C 
ATOM      3  C   UNL     1       0.783  -0.216  -0.533  0.00  0.00    -0.050 A 
ATOM      4  C   UNL     1       1.009  -0.982  -1.677  0.00  0.00    +0.005 A 
ATOM      5  C   UNL     1       1.002  -2.340  -1.664  0.00  0.00    +0.024 A 
ATOM      6  C   UNL     1       0.763  -3.041  -0.468  0.00  0.00    +0.040 A 
ATOM      7  N   UNL     1       0.760  -4.374  -0.466  0.00  0.00    -0.284 N 
ATOM      8  C   UNL     1       0.542  -5.095   0.621  0.00  0.00    +0.226 C 
ATOM      9  O   UNL     1       0.551  -6.310   0.561  0.00  0.00    -0.275 OA
ATOM     10  C   UNL     1       0.281  -4.402   1.940  0.00  0.00    +0.123 C 
ATOM     11  C   UNL     1       0.284  -2.886   1.944  0.00  0.00    -0.003 C 
ATOM     12  C   UNL     1       0.522  -2.259   0.757  0.00  0.00    -0.007 A 
ATOM     13  C   UNL     1       0.548  -0.798   0.672  0.00  0.00    +0.012 A 
ATOM     14  H   UNL     1       0.925  -4.838  -1.302  0.00  0.00    +0.155 HD
ENDBRANCH   1  10
BRANCH   1  15
ATOM     15  N   UNL     1       1.235  -6.330   3.110  0.00  0.00    -0.289 NA
ATOM     16  C   UNL     1      -0.053  -6.695   3.714  0.00  0.00    +0.104 C 
ATOM     17  C   UNL     1      -0.201  -8.221   3.712  0.00  0.00    +0.120 C 
ATOM     18  N   UNL     1       0.980  -8.805   4.366  0.00  0.00    -0.327 N 
ATOM     19  C   UNL     1       2.311  -8.381   3.906  0.00  0.00    +0.120 C 
ATOM     20  C   UNL     1       2.360  -6.850   3.900  0.00  0.00    +0.104 C 
BRANCH  18  21
ATOM     21  C   UNL     1       0.840  -9.737   5.397  0.00  0.00    +0.030 A 
ATOM     22  C   UNL     1      -0.418 -10.217   5.736  0.00  0.00    +0.023 A 
ATOM     23  C   UNL     1      -0.553 -11.139   6.755  0.00  0.00    +0.002 A 
ATOM     24  C   UNL     1       0.564 -11.583   7.439  0.00  0.00    +0.012 A 
ATOM     25  C   UNL     1       1.818 -11.107   7.105  0.00  0.00    +0.057 A 
ATOM     26  C   UNL     1       1.960 -10.189   6.082  0.00  0.00    +0.035 A 
BRANCH  25  27
ATOM     27  C   UNL     1       3.033 -11.593   7.854  0.00  0.00    +0.417 C 
ATOM     28  F   UNL     1       2.640 -12.514   8.832  0.00  0.00    -0.166 F 
ATOM     29  F   UNL     1       3.915 -12.210   6.961  0.00  0.00    -0.166 F 
ATOM     30  F   UNL     1       3.669 -10.508   8.465  0.00  0.00    -0.166 F 
ENDBRANCH  25  27
ENDBRANCH  18  21
ENDBRANCH   1  15
BRANCH   1  31
ATOM     31  C   UNL     1       2.712  -4.532   2.412  0.00  0.00    +0.170 A 
ATOM     32  N   UNL     1       3.353  -5.136   1.442  0.00  0.00    -0.112 NA
ATOM     33  N   UNL     1       4.491  -4.550   1.291  0.00  0.00    -0.023 NA
ATOM     34  N   UNL     1       4.592  -3.588   2.141  0.00  0.00    -0.044 NA
ATOM     35  N   UNL     1       3.513  -3.541   2.846  0.00  0.00    -0.225 N 
BRANCH  35  36
ATOM     36  C   UNL     1       3.217  -2.590   3.921  0.00  0.00    +0.175 C 
BRANCH  36  37
ATOM     37  C   UNL     1       3.707  -3.159   5.254  0.00  0.00    +0.183 C 
BRANCH  37  38
ATOM     38  O   UNL     1       3.418  -2.232   6.303  0.00  0.00    -0.381 OA
ATOM     39  C   UNL     1       3.837  -2.669   7.597  0.00  0.00    +0.194 C 
ENDBRANCH  37  38
ENDBRANCH  36  37
ENDBRANCH  35  36
ENDBRANCH   1  31
TORSDOF 8
