REMARK  Name = ZINC23156790
REMARK  6 active torsions:
REMARK  status: ('A' for Active; 'I' for Inactive)
REMARK    1  A    between atoms: C_1  and  C_2
REMARK    2  A    between atoms: C_8  and  C_10
REMARK    3  A    between atoms: C_10  and  C_12
REMARK    4  A    between atoms: C_10  and  N_18
REMARK    5  A    between atoms: C_20  and  C_27
REMARK    6  A    between atoms: C_23  and  C_26
REMARK                            x       y       z     vdW  Elec       q    Type
REMARK                         _______ _______ _______ _____ _____    ______ ____
ROOT
ATOM      1  C   UNL     1       2.517   3.326  -0.004  0.00  0.00    +0.006 C 
ENDROOT
BRANCH   1   9
ATOM      2  C   UNL     1      -0.789  -3.336   0.568  0.00  0.00    +0.090 C 
ATOM      3  C   UNL     1      -0.270  -1.926   0.446  0.00  0.00    +0.150 A 
ATOM      4  N   UNL     1      -1.024  -0.833   0.350  0.00  0.00    -0.205 NA
ATOM      5  C   UNL     1      -0.254   0.217   0.261  0.00  0.00    +0.199 A 
ATOM      6  N   UNL     1       1.051  -0.171   0.296  0.00  0.00    -0.170 N 
ATOM      7  N   UNL     1       0.990  -1.583   0.419  0.00  0.00    -0.147 NA
ATOM      8  C   UNL     1       2.003   0.817   0.212  0.00  0.00    +0.282 A 
ATOM      9  C   UNL     1       1.645   2.101   0.101  0.00  0.00    +0.050 A 
ATOM     10  S   UNL     1      -0.137   1.983   0.108  0.00  0.00    -0.050 S 
ATOM     11  O   UNL     1       3.322   0.485   0.244  0.00  0.00    -0.265 OA
ENDBRANCH   1   9
BRANCH   1  12
ATOM     12  N   UNL     1       2.017   4.193  -1.079  0.00  0.00    +0.388 N 
ATOM     13  C   UNL     1       1.951   3.466  -2.353  0.00  0.00    -0.074 C 
ATOM     14  C   UNL     1       1.292   4.351  -3.414  0.00  0.00    -0.031 C 
ATOM     15  C   UNL     1       2.109   5.636  -3.579  0.00  0.00    +0.003 C 
ATOM     16  C   UNL     1       2.203   6.349  -2.227  0.00  0.00    -0.031 C 
ATOM     17  C   UNL     1       2.836   5.406  -1.201  0.00  0.00    -0.074 C 
ATOM     18  C   UNL     1       3.069   7.603  -2.370  0.00  0.00    +0.005 C 
ATOM     19  C   UNL     1      -0.130   4.703  -2.973  0.00  0.00    +0.005 C 
ATOM     20  H   UNL     1       0.995   4.504  -0.817  0.00  0.00    -0.080 HD
ENDBRANCH   1  12
BRANCH   1  21
ATOM     21  C   UNL     1       2.486   4.077   1.302  0.00  0.00    -0.056 A 
ATOM     22  C   UNL     1       1.367   4.809   1.652  0.00  0.00    +0.002 A 
ATOM     23  C   UNL     1       1.338   5.495   2.852  0.00  0.00    +0.000 A 
ATOM     24  C   UNL     1       2.430   5.456   3.698  0.00  0.00    +0.000 A 
ATOM     25  C   UNL     1       3.551   4.728   3.346  0.00  0.00    +0.000 A 
ATOM     26  C   UNL     1       3.579   4.039   2.148  0.00  0.00    +0.002 A 
ENDBRANCH   1  21
TORSDOF 3
