REMARK  Name = ZINC43256384
REMARK  6 active torsions:
REMARK  status: ('A' for Active; 'I' for Inactive)
REMARK    1  A    between atoms: C_1  and  C_2
REMARK    2  A    between atoms: C_9  and  O_12
REMARK    3  A    between atoms: O_12  and  C_13
REMARK    4  A    between atoms: C_13  and  C_15
REMARK    5  A    between atoms: C_13  and  C_17
REMARK    6  A    between atoms: C_15  and  N_16
REMARK                            x       y       z     vdW  Elec       q    Type
REMARK                         _______ _______ _______ _____ _____    ______ ____
ROOT
ATOM      1  O   UNL     1       0.046  -1.980   3.588  0.00  0.00    -0.483 OA
ENDROOT
BRANCH   1  10
ATOM      2  C   UNL     1      -0.012   1.478  -0.014  0.00  0.00    +0.065 C 
ATOM      3  C   UNL     1       0.112  -0.024  -0.009  0.00  0.00    +0.039 A 
ATOM      4  C   UNL     1       0.244  -0.698  -1.221  0.00  0.00    +0.023 A 
ATOM      5  C   UNL     1       0.358  -2.059  -1.235  0.00  0.00    +0.012 A 
ATOM      6  C   UNL     1       0.337  -2.740  -0.003  0.00  0.00    +0.004 A 
ATOM      7  C   UNL     1       0.449  -4.139   0.061  0.00  0.00    +0.010 A 
ATOM      8  C   UNL     1       0.425  -4.763   1.271  0.00  0.00    +0.004 A 
ATOM      9  C   UNL     1       0.289  -4.035   2.450  0.00  0.00    +0.048 A 
ATOM     10  C   UNL     1       0.178  -2.674   2.428  0.00  0.00    +0.147 A 
ATOM     11  C   UNL     1       0.199  -1.993   1.192  0.00  0.00    +0.113 A 
ATOM     12  N   UNL     1       0.098  -0.662   1.137  0.00  0.00    -0.248 NA
ENDBRANCH   1  10
BRANCH   1  13
ATOM     13  C   UNL     1      -0.049  -2.742   4.793  0.00  0.00    +0.193 C 
BRANCH  13  14
ATOM     14  C   UNL     1       0.555  -1.961   5.931  0.00  0.00    +0.029 A 
ATOM     15  C   UNL     1       1.334  -2.401   6.949  0.00  0.00    +0.016 A 
ATOM     16  C   UNL     1       1.781  -1.493   7.892  0.00  0.00    +0.028 A 
ATOM     17  C   UNL     1       1.426  -0.190   7.769  0.00  0.00    +0.078 A 
ATOM     18  S   UNL     1       0.438  -0.215   6.282  0.00  0.00    -0.078 S 
ATOM     19 CL   UNL     1       1.832   1.155   8.789  0.00  0.00    -0.076 Cl
ENDBRANCH  13  14
BRANCH  13  20
ATOM     20  C   UNL     1      -1.520  -3.033   5.098  0.00  0.00    -0.036 C 
BRANCH  20  21
ATOM     21  N   UNL     1      -2.077  -3.895   4.047  0.00  0.00    +0.381 N 
ATOM     22  H   UNL     1      -1.562  -4.763   4.016  0.00  0.00    -0.090 HD
ATOM     23  H   UNL     1      -3.047  -4.087   4.249  0.00  0.00    -0.090 HD
ATOM     24  H   UNL     1      -2.004  -3.429   3.156  0.00  0.00    -0.090 HD
ENDBRANCH  20  21
ENDBRANCH  13  20
ENDBRANCH   1  13
TORSDOF 5
