REMARK  Name = ZINC01028156
REMARK  7 active torsions:
REMARK  status: ('A' for Active; 'I' for Inactive)
REMARK    1  A    between atoms: C_4  and  C_7
REMARK    2  A    between atoms: C_17  and  C_18
REMARK    3  A    between atoms: C_17  and  N_52
REMARK    4  A    between atoms: C_18  and  C_20
REMARK    5  A    between atoms: C_18  and  O_29
REMARK    6  A    between atoms: C_20  and  O_21
REMARK    7  A    between atoms: O_21  and  C_22
REMARK                            x       y       z     vdW  Elec       q    Type
REMARK                         _______ _______ _______ _____ _____    ______ ____
ROOT
ATOM      1  C   UNL     1      -0.528   4.530   7.705  0.00  0.00    +0.170 A 
ATOM      2  N   UNL     1       0.156   4.392   6.584  0.00  0.00    -0.204 NA
ATOM      3  C   UNL     1       0.389   3.171   6.129  0.00  0.00    +0.181 A 
ATOM      4  S   UNL     1      -0.377   2.192   7.339  0.00  0.00    +0.049 S 
ATOM      5  N   UNL     1      -0.949   3.456   8.343  0.00  0.00    -0.187 NA
ATOM      6  N   UNL     1       1.070   2.778   4.991  0.00  0.00    -0.312 N 
ATOM      7  C   UNL     1       1.097   1.314   4.873  0.00  0.00    +0.088 C 
ATOM      8  C   UNL     1       1.925   0.919   3.648  0.00  0.00    -0.059 C 
ATOM      9  C   UNL     1       1.313   2.996   2.565  0.00  0.00    -0.059 C 
ATOM     10  C   UNL     1       0.485   3.390   3.790  0.00  0.00    +0.088 C 
ATOM     11  N   UNL     1       1.314   1.522   2.445  0.00  0.00    +0.383 N 
ATOM     12  H   UNL     1       0.344   1.194   2.362  0.00  0.00    -0.082 HD
ENDROOT
BRANCH   1  16
ATOM     13  C   UNL     1      -1.349   8.404   9.253  0.00  0.00    +0.000 A 
ATOM     14  C   UNL     1      -1.795   7.283   9.929  0.00  0.00    +0.001 A 
ATOM     15  C   UNL     1      -1.532   6.023   9.431  0.00  0.00    +0.011 A 
ATOM     16  C   UNL     1      -0.814   5.882   8.245  0.00  0.00    +0.020 A 
ATOM     17  C   UNL     1      -0.362   7.015   7.571  0.00  0.00    +0.011 A 
ATOM     18  C   UNL     1      -0.636   8.270   8.075  0.00  0.00    +0.001 A 
ENDBRANCH   1  16
BRANCH  11  19
ATOM     19  C   UNL     1       2.064   1.114   1.238  0.00  0.00    -0.044 C 
BRANCH  19  20
ATOM     20  C   UNL     1       1.286   1.562  -0.002  0.00  0.00    +0.135 C 
BRANCH  20  21
ATOM     21  O   UNL     1      -0.011   0.963   0.007  0.00  0.00    -0.390 OA
ATOM     22  H   UNL     1       0.002  -0.004   0.002  0.00  0.00    +0.210 HD
ENDBRANCH  20  21
BRANCH  20  23
ATOM     23  C   UNL     1       2.040   1.127  -1.261  0.00  0.00    +0.258 C 
BRANCH  23  24
ATOM     24  O   UNL     1       1.376   1.645  -2.415  0.00  0.00    -0.489 OA
BRANCH  24  25
ATOM     25  C   UNL     1       1.921   1.349  -3.625  0.00  0.00    +0.121 A 
ATOM     26  C   UNL     1       3.074   0.581  -3.698  0.00  0.00    +0.047 A 
ATOM     27  C   UNL     1       3.622   0.276  -4.929  0.00  0.00    +0.019 A 
ATOM     28  C   UNL     1       3.029   0.746  -6.087  0.00  0.00    +0.018 A 
ATOM     29  C   UNL     1       1.883   1.517  -6.016  0.00  0.00    +0.019 A 
ATOM     30  C   UNL     1       1.328   1.819  -4.788  0.00  0.00    +0.047 A 
ATOM     31 BR   UNL     1       3.787   0.332  -7.770  0.00  0.00    -0.050 Br
ENDBRANCH  24  25
ENDBRANCH  23  24
ENDBRANCH  20  23
ENDBRANCH  19  20
ENDBRANCH  11  19
TORSDOF 7
