REMARK  Name = ZINC33051199
REMARK  9 active torsions:
REMARK  status: ('A' for Active; 'I' for Inactive)
REMARK    1  A    between atoms: C_1  and  C_2
REMARK    2  A    between atoms: C_5  and  N_9
REMARK    3  A    between atoms: C_7  and  C_8
REMARK    4  A    between atoms: C_15  and  C_41
REMARK    5  A    between atoms: N_17  and  C_35
REMARK    6  A    between atoms: C_24  and  C_26
REMARK    7  A    between atoms: C_29  and  N_32
REMARK    8  A    between atoms: N_32  and  C_33
REMARK    9  A    between atoms: N_32  and  C_34
REMARK                            x       y       z     vdW  Elec       q    Type
REMARK                         _______ _______ _______ _____ _____    ______ ____
ROOT
ATOM      1  N   UNL     1      -0.681  11.015  -2.000  0.00  0.00    -0.269 N 
ATOM      2  C   UNL     1      -0.745   9.950  -2.824  0.00  0.00    +0.308 C 
ATOM      3  O   UNL     1      -0.637  10.104  -4.025  0.00  0.00    -0.252 OA
ATOM      4  N   UNL     1      -0.928   8.715  -2.317  0.00  0.00    -0.268 N 
ATOM      5  C   UNL     1      -1.065   8.479  -0.860  0.00  0.00    +0.151 C 
ATOM      6  C   UNL     1      -0.349   7.231  -0.434  0.00  0.00    +0.035 A 
ATOM      7  C   UNL     1       0.812   7.098   0.322  0.00  0.00    +0.067 A 
ATOM      8  N   UNL     1       1.047   5.819   0.498  0.00  0.00    -0.169 NA
ATOM      9  N   UNL     1       0.042   5.088  -0.156  0.00  0.00    -0.215 N 
ATOM     10  C   UNL     1      -0.789   5.973  -0.736  0.00  0.00    +0.146 A 
ATOM     11  N   UNL     1      -1.899   5.788  -1.568  0.00  0.00    -0.303 N 
ATOM     12  C   UNL     1      -2.956   4.950  -1.453  0.00  0.00    +0.093 A 
ATOM     13  C   UNL     1      -3.803   5.209  -2.475  0.00  0.00    +0.020 A 
ATOM     14  C   UNL     1      -3.226   6.233  -3.258  0.00  0.00    +0.025 A 
ATOM     15  C   UNL     1      -2.048   6.552  -2.698  0.00  0.00    +0.050 A 
ATOM     16  C   UNL     1      -1.005   7.516  -3.183  0.00  0.00    +0.155 C 
ATOM     17  C   UNL     1       1.652   8.231   0.854  0.00  0.00    +0.068 C 
ATOM     18  H   UNL     1      -0.713  10.869  -0.910  0.00  0.00    +0.156 HD
ENDROOT
BRANCH   1  23
ATOM     19  C   UNL     1      -0.250  16.246  -4.152  0.00  0.00    +0.044 C 
ATOM     20  C   UNL     1      -0.364  14.857  -3.580  0.00  0.00    -0.047 A 
ATOM     21  C   UNL     1       0.261  13.797  -4.212  0.00  0.00    +0.005 A 
ATOM     22  C   UNL     1       0.163  12.523  -3.687  0.00  0.00    +0.023 A 
ATOM     23  C   UNL     1      -0.575  12.305  -2.531  0.00  0.00    +0.035 A 
ATOM     24  C   UNL     1      -1.202  13.371  -1.899  0.00  0.00    +0.027 A 
ATOM     25  C   UNL     1      -1.094  14.644  -2.426  0.00  0.00    -0.046 A 
ATOM     26  C   UNL     1      -1.774  15.801  -1.741  0.00  0.00    +0.044 C 
ENDBRANCH   1  23
BRANCH  16  27
ATOM     27  C   UNL     1       0.336   6.828  -3.188  0.00  0.00    -0.021 A 
ATOM     28  C   UNL     1       1.487   7.560  -2.959  0.00  0.00    +0.007 A 
ATOM     29  C   UNL     1       2.717   6.932  -2.958  0.00  0.00    +0.023 A 
ATOM     30  C   UNL     1       2.798   5.566  -3.199  0.00  0.00    +0.029 A 
ATOM     31  C   UNL     1       1.641   4.836  -3.435  0.00  0.00    +0.023 A 
ATOM     32  C   UNL     1       0.413   5.469  -3.429  0.00  0.00    +0.007 A 
BRANCH  30  33
ATOM     33  N   UNL     1       4.041   4.929  -3.204  0.00  0.00    -0.336 N 
ATOM     34  C   UNL     1       4.125   3.488  -3.458  0.00  0.00    +0.129 C 
ATOM     35  C   UNL     1       5.261   5.700  -2.955  0.00  0.00    +0.129 C 
ENDBRANCH  30  33
ENDBRANCH  16  27
BRANCH   9  36
ATOM     36  C   UNL     1      -0.079   3.692  -0.191  0.00  0.00    +0.068 A 
ATOM     37  C   UNL     1      -0.562   3.064  -1.331  0.00  0.00    +0.028 A 
ATOM     38  C   UNL     1      -0.678   1.688  -1.363  0.00  0.00    +0.002 A 
ATOM     39  C   UNL     1      -0.314   0.936  -0.262  0.00  0.00    +0.000 A 
ATOM     40  C   UNL     1       0.162   1.559   0.877  0.00  0.00    +0.002 A 
ATOM     41  C   UNL     1       0.286   2.934   0.914  0.00  0.00    +0.028 A 
ENDBRANCH   9  36
TORSDOF 4
