REMARK  Name = ZINC18194833
REMARK  6 active torsions:
REMARK  status: ('A' for Active; 'I' for Inactive)
REMARK    1  A    between atoms: C_6  and  C_7
REMARK    2  A    between atoms: C_8  and  C_9
REMARK    3  A    between atoms: N_10  and  N_11
REMARK    4  A    between atoms: C_12  and  C_14
REMARK    5  A    between atoms: C_14  and  O_15
REMARK    6  A    between atoms: O_15  and  C_16
REMARK                            x       y       z     vdW  Elec       q    Type
REMARK                         _______ _______ _______ _____ _____    ______ ____
ROOT
ATOM      1  N   UNL     1      -5.996  -0.916   0.052  0.00  0.00    -0.204 N 
ATOM      2  C   UNL     1      -7.173  -0.261   0.067  0.00  0.00    +0.270 C 
ATOM      3  O   UNL     1      -7.192   0.952   0.073  0.00  0.00    -0.270 OA
ATOM      4  H   UNL     1      -5.981  -1.886   0.047  0.00  0.00    +0.177 HD
ENDROOT
BRANCH   1   6
ATOM      5  C   UNL     1      -3.656  -0.831   0.031  0.00  0.00    +0.130 C 
ATOM      6  N   UNL     1      -4.794  -0.197   0.045  0.00  0.00    -0.188 NA
BRANCH   5   8
ATOM      7  C   UNL     1      -1.261  -0.759   0.010  0.00  0.00    +0.009 C 
ATOM      8  C   UNL     1      -2.439  -0.103   0.024  0.00  0.00    +0.022 C 
BRANCH   7  14
ATOM      9  C   UNL     1      -0.017   1.394   0.010  0.00  0.00    +0.012 A 
ATOM     10  C   UNL     1       1.168   2.099   0.002  0.00  0.00    +0.050 A 
ATOM     11  C   UNL     1       2.381   1.426  -0.013  0.00  0.00    +0.166 A 
ATOM     12  C   UNL     1       2.408   0.031  -0.021  0.00  0.00    +0.167 A 
ATOM     13  C   UNL     1       1.226  -0.682  -0.013  0.00  0.00    +0.057 A 
ATOM     14  C   UNL     1       0.002  -0.004   0.002  0.00  0.00    -0.021 A 
ATOM     15  O   UNL     1       3.710  -0.379  -0.036  0.00  0.00    -0.453 OA
ATOM     16  C   UNL     1       4.471   0.771  -0.451  0.00  0.00    +0.466 C 
ATOM     17  O   UNL     1       3.667   1.886  -0.023  0.00  0.00    -0.453 OA
ENDBRANCH   7  14
ENDBRANCH   5   8
ENDBRANCH   1   6
BRANCH   2  18
ATOM     18  C   UNL     1      -8.467  -1.034   0.075  0.00  0.00    +0.326 C 
BRANCH  18  19
ATOM     19  O   UNL     1      -9.567  -0.122   0.090  0.00  0.00    -0.481 OA
BRANCH  19  20
ATOM     20  C   UNL     1     -10.815  -0.661   0.098  0.00  0.00    +0.141 A 
ATOM     21  C   UNL     1     -10.976  -2.039   0.087  0.00  0.00    +0.067 A 
ATOM     22  C   UNL     1     -12.247  -2.585   0.100  0.00  0.00    +0.045 A 
ATOM     23  C   UNL     1     -13.356  -1.758   0.115  0.00  0.00    +0.021 A 
ATOM     24  C   UNL     1     -13.198  -0.385   0.121  0.00  0.00    +0.025 A 
ATOM     25  C   UNL     1     -11.929   0.166   0.113  0.00  0.00    +0.083 A 
ATOM     26 CL   UNL     1     -11.731   1.891   0.122  0.00  0.00    -0.080 Cl
ATOM     27 CL   UNL     1     -12.450  -4.309   0.091  0.00  0.00    -0.083 Cl
ENDBRANCH  19  20
ENDBRANCH  18  19
ENDBRANCH   2  18
TORSDOF 6
