REMARK  Name = ZINC39448878
REMARK  4 active torsions:
REMARK  status: ('A' for Active; 'I' for Inactive)
REMARK    1  A    between atoms: C_16  and  C_18
REMARK    2  A    between atoms: C_18  and  S_19
REMARK    3  A    between atoms: S_19  and  C_20
REMARK    4  A    between atoms: C_22  and  C_28
REMARK                            x       y       z     vdW  Elec       q    Type
REMARK                         _______ _______ _______ _____ _____    ______ ____
ROOT
ATOM      1  S   UNL     1       7.000  -1.086   1.216  0.00  0.00    -0.081 S 
ENDROOT
BRANCH   1   2
ATOM      2  C   UNL     1       8.610  -1.788   1.355  0.00  0.00    +0.159 C 
ATOM      3  N   UNL     1       9.429  -1.467   2.413  0.00  0.00    -0.300 N 
ATOM      4  C   UNL     1      10.882  -1.504   2.187  0.00  0.00    +0.204 C 
ATOM      5  N   UNL     1      11.189  -2.674   1.355  0.00  0.00    -0.336 N 
ATOM      6  C   UNL     1      10.294  -3.154   0.533  0.00  0.00    +0.190 C 
ATOM      7  N   UNL     1       9.056  -2.639   0.448  0.00  0.00    -0.195 NA
ATOM      8  N   UNL     1      10.629  -4.226  -0.269  0.00  0.00    -0.329 N 
ATOM      9  H   UNL     1      11.517  -4.612  -0.217  0.00  0.00    +0.145 HD
ATOM     10  H   UNL     1       9.976  -4.594  -0.884  0.00  0.00    +0.145 HD
ATOM     11  H   UNL     1       9.061  -1.225   3.277  0.00  0.00    +0.150 HD
ATOM     12  H   UNL     1      12.062  -3.093   1.416  0.00  0.00    +0.164 HD
BRANCH   4  13
ATOM     13  C   UNL     1      11.318  -0.248   1.478  0.00  0.00    +0.046 A 
ATOM     14  C   UNL     1      12.273  -0.312   0.478  0.00  0.00    +0.131 A 
ATOM     15  C   UNL     1      12.673   0.843  -0.172  0.00  0.00    +0.039 A 
ATOM     16  C   UNL     1      12.118   2.060   0.178  0.00  0.00    +0.004 A 
ATOM     17  C   UNL     1      11.165   2.124   1.176  0.00  0.00    +0.020 A 
ATOM     18  C   UNL     1      10.760   0.970   1.823  0.00  0.00    +0.050 A 
ATOM     19 CL   UNL     1       9.557   1.051   3.072  0.00  0.00    -0.083 Cl
ATOM     20  F   UNL     1      12.815  -1.502   0.137  0.00  0.00    -0.205 F 
ENDBRANCH   4  13
ENDBRANCH   1   2
BRANCH   1  21
ATOM     21  C   UNL     1       6.334  -1.812  -0.306  0.00  0.00    +0.173 C 
BRANCH  21  37
ATOM     22  C   UNL     1       0.458  -0.170  -2.433  0.00  0.00    +0.000 A 
ATOM     23  C   UNL     1       1.530   0.686  -2.257  0.00  0.00    +0.002 A 
ATOM     24  C   UNL     1       2.773   0.158  -1.980  0.00  0.00    +0.024 A 
ATOM     25  C   UNL     1       2.948  -1.218  -1.870  0.00  0.00    +0.044 A 
ATOM     26  C   UNL     1       1.877  -2.084  -2.018  0.00  0.00    -0.025 A 
ATOM     27  C   UNL     1       0.630  -1.530  -2.318  0.00  0.00    +0.005 A 
ATOM     28  C   UNL     1       1.878  -3.587  -1.856  0.00  0.00    +0.042 C 
ATOM     29  C   UNL     1       3.235  -4.145  -1.467  0.00  0.00    +0.042 C 
ATOM     30  C   UNL     1       4.267  -3.865  -2.529  0.00  0.00    -0.025 A 
ATOM     31  C   UNL     1       4.674  -4.812  -3.441  0.00  0.00    +0.005 A 
ATOM     32  C   UNL     1       5.650  -4.470  -4.366  0.00  0.00    +0.000 A 
ATOM     33  C   UNL     1       6.204  -3.203  -4.366  0.00  0.00    +0.002 A 
ATOM     34  C   UNL     1       5.781  -2.253  -3.450  0.00  0.00    +0.024 A 
ATOM     35  C   UNL     1       4.797  -2.602  -2.542  0.00  0.00    +0.044 A 
ATOM     36  N   UNL     1       4.246  -1.693  -1.626  0.00  0.00    -0.239 N 
ATOM     37  C   UNL     1       4.942  -1.288  -0.546  0.00  0.00    +0.234 C 
ATOM     38  O   UNL     1       4.448  -0.501   0.234  0.00  0.00    -0.274 OA
ENDBRANCH  21  37
ENDBRANCH   1  21
TORSDOF 4
