REMARK  Name = ZINC32973864
REMARK  14 active torsions:
REMARK  status: ('A' for Active; 'I' for Inactive)
REMARK    1  A    between atoms: C_1  and  C_2
REMARK    2  A    between atoms: C_7  and  N_8
REMARK    3  A    between atoms: N_10  and  C_11
REMARK    4  A    between atoms: C_11  and  C_12
REMARK    5  A    between atoms: C_12  and  C_13
REMARK    6  A    between atoms: C_14  and  C_20
REMARK    7  A    between atoms: N_16  and  C_19
REMARK    8  A    between atoms: C_17  and  C_18
REMARK    9  A    between atoms: N_21  and  C_22
REMARK   10  A    between atoms: C_22  and  C_24
REMARK   11  A    between atoms: C_27  and  O_32
REMARK   12  A    between atoms: C_28  and  O_30
REMARK   13  A    between atoms: O_30  and  C_31
REMARK   14  A    between atoms: O_32  and  C_33
REMARK                            x       y       z     vdW  Elec       q    Type
REMARK                         _______ _______ _______ _____ _____    ______ ____
ROOT
ATOM      1  N   UNL     1      -0.498  -0.239   2.530  0.00  0.00    -0.328 N 
ATOM      2  C   UNL     1       0.017  -0.759   3.683  0.00  0.00    +0.194 C 
ATOM      3  N   UNL     1       0.378   0.071   4.704  0.00  0.00    -0.357 N 
ATOM      4  N   UNL     1       0.164  -2.069   3.811  0.00  0.00    -0.143 NA
ATOM      5  H   UNL     1       0.828  -0.288   5.485  0.00  0.00    +0.162 HD
ATOM      6  H   UNL     1      -1.376  -0.513   2.224  0.00  0.00    +0.169 HD
ENDROOT
BRANCH   1  13
ATOM      7  C   UNL     1      -1.907   1.551   0.826  0.00  0.00    +0.046 C 
ATOM      8  C   UNL     1      -0.405   1.582   0.946  0.00  0.00    -0.026 A 
ATOM      9  C   UNL     1       0.328   2.501   0.221  0.00  0.00    +0.025 A 
ATOM     10  C   UNL     1       1.707   2.530   0.331  0.00  0.00    +0.041 A 
ATOM     11  C   UNL     1       2.355   1.638   1.167  0.00  0.00    +0.022 A 
ATOM     12  C   UNL     1       1.628   0.717   1.894  0.00  0.00    +0.027 A 
ATOM     13  C   UNL     1       0.243   0.690   1.790  0.00  0.00    +0.045 A 
ATOM     14 CL   UNL     1       2.625   3.686  -0.582  0.00  0.00    -0.084 Cl
ENDBRANCH   1  13
BRANCH   4  15
ATOM     15  C   UNL     1      -0.033  -2.871   2.756  0.00  0.00    +0.270 C 
ATOM     16  O   UNL     1      -0.208  -2.391   1.649  0.00  0.00    -0.268 OA
BRANCH  15  17
ATOM     17  C   UNL     1      -0.038  -4.339   2.934  0.00  0.00    +0.043 A 
ATOM     18  C   UNL     1       0.044  -4.888   4.215  0.00  0.00    +0.017 A 
ATOM     19  C   UNL     1       0.038  -6.257   4.380  0.00  0.00    +0.050 A 
ATOM     20  C   UNL     1      -0.048  -7.092   3.275  0.00  0.00    +0.162 A 
ATOM     21  C   UNL     1      -0.131  -6.550   1.993  0.00  0.00    +0.162 A 
ATOM     22  C   UNL     1      -0.132  -5.179   1.822  0.00  0.00    +0.062 A 
BRANCH  21  23
ATOM     23  O   UNL     1      -0.215  -7.370   0.912  0.00  0.00    -0.491 OA
ATOM     24  C   UNL     1      -0.296  -6.746  -0.371  0.00  0.00    +0.277 C 
ENDBRANCH  21  23
BRANCH  20  25
ATOM     25  O   UNL     1      -0.053  -8.440   3.442  0.00  0.00    -0.491 OA
ATOM     26  C   UNL     1       0.035  -8.927   4.782  0.00  0.00    +0.277 C 
ENDBRANCH  20  25
ENDBRANCH  15  17
ENDBRANCH   4  15
BRANCH   3  27
ATOM     27  C   UNL     1       0.088   1.504   4.620  0.00  0.00    +0.120 C 
BRANCH  27  28
ATOM     28  C   UNL     1       0.657   2.213   5.851  0.00  0.00    +0.060 C 
BRANCH  28  29
ATOM     29  C   UNL     1       0.251   3.664   5.829  0.00  0.00    -0.002 A 
ATOM     30  C   UNL     1       0.915   4.694   5.155  0.00  0.00    +0.063 A 
ATOM     31  N   UNL     1       0.265   5.809   5.370  0.00  0.00    -0.176 NA
ATOM     32  N   UNL     1      -0.835   5.523   6.189  0.00  0.00    -0.271 N 
ATOM     33  C   UNL     1      -0.824   4.199   6.452  0.00  0.00    +0.039 A 
ATOM     34  C   UNL     1      -1.828   3.451   7.292  0.00  0.00    +0.065 C 
ATOM     35  C   UNL     1      -1.826   6.489   6.670  0.00  0.00    +0.172 C 
ATOM     36  C   UNL     1       2.164   4.546   4.324  0.00  0.00    +0.068 C 
ENDBRANCH  28  29
ENDBRANCH  27  28
ENDBRANCH   3  27
TORSDOF 8
