REMARK  Name = ZINC20205550
REMARK  9 active torsions:
REMARK  status: ('A' for Active; 'I' for Inactive)
REMARK    1  A    between atoms: C_1  and  C_2
REMARK    2  A    between atoms: C_2  and  S_3
REMARK    3  A    between atoms: S_3  and  C_4
REMARK    4  A    between atoms: C_12  and  C_13
REMARK    5  A    between atoms: C_16  and  O_19
REMARK    6  A    between atoms: O_19  and  C_20
REMARK    7  A    between atoms: C_20  and  C_21
REMARK    8  A    between atoms: C_21  and  O_22
REMARK    9  A    between atoms: O_22  and  C_23
REMARK                            x       y       z     vdW  Elec       q    Type
REMARK                         _______ _______ _______ _____ _____    ______ ____
ROOT
ATOM      1  C   UNL     1       1.578   1.286   5.159  0.00  0.00    +0.175 C 
ATOM      2  N   UNL     1       1.242   2.343   5.846  0.00  0.00    -0.185 NA
ATOM      3  S   UNL     1       0.499   1.726   7.216  0.00  0.00    +0.048 S 
ATOM      4  C   UNL     1       0.672   0.097   6.912  0.00  0.00    +0.183 C 
ATOM      5  N   UNL     1       0.336  -0.942   7.645  0.00  0.00    -0.152 NA
ATOM      6  C   UNL     1       0.638  -2.181   7.216  0.00  0.00    +0.273 C 
ATOM      7  O   UNL     1       0.224  -3.165   7.807  0.00  0.00    -0.268 OA
ATOM      8  C   UNL     1       1.487  -2.323   6.006  0.00  0.00    +0.079 C 
ATOM      9  C   UNL     1       2.256  -3.442   5.785  0.00  0.00    +0.024 C 
ATOM     10  C   UNL     1       1.458  -1.184   5.043  0.00  0.00    +0.137 C 
ATOM     11  N   UNL     1       1.596  -1.330   3.754  0.00  0.00    -0.284 NA
ATOM     12  N   UNL     1       1.262   0.066   5.664  0.00  0.00    -0.211 N 
ATOM     13  H   UNL     1       1.725  -2.215   3.377  0.00  0.00    +0.188 HD
ENDROOT
BRANCH   9  14
ATOM     14  C   UNL     1       2.406  -4.448   6.840  0.00  0.00    -0.024 A 
ATOM     15  C   UNL     1       2.492  -5.808   6.509  0.00  0.00    +0.011 A 
ATOM     16  C   UNL     1       2.633  -6.744   7.500  0.00  0.00    +0.046 A 
ATOM     17  C   UNL     1       2.690  -6.347   8.832  0.00  0.00    +0.121 A 
ATOM     18  C   UNL     1       2.605  -5.000   9.167  0.00  0.00    +0.046 A 
ATOM     19  C   UNL     1       2.470  -4.054   8.184  0.00  0.00    +0.011 A 
BRANCH  17  20
ATOM     20  O   UNL     1       2.828  -7.279   9.809  0.00  0.00    -0.489 OA
BRANCH  20  21
ATOM     21  C   UNL     1       2.880  -6.804  11.156  0.00  0.00    +0.270 C 
BRANCH  21  22
ATOM     22  C   UNL     1       3.037  -7.990  12.110  0.00  0.00    +0.270 C 
BRANCH  22  23
ATOM     23  O   UNL     1       4.299  -8.620  11.882  0.00  0.00    -0.489 OA
BRANCH  23  24
ATOM     24  C   UNL     1       4.598  -9.699  12.652  0.00  0.00    +0.121 A 
ATOM     25  C   UNL     1       3.692 -10.146  13.604  0.00  0.00    +0.045 A 
ATOM     26  C   UNL     1       3.998 -11.243  14.385  0.00  0.00    +0.004 A 
ATOM     27  C   UNL     1       5.205 -11.896  14.220  0.00  0.00    +0.000 A 
ATOM     28  C   UNL     1       6.110 -11.453  13.273  0.00  0.00    +0.004 A 
ATOM     29  C   UNL     1       5.806 -10.360  12.485  0.00  0.00    +0.045 A 
ENDBRANCH  23  24
ENDBRANCH  22  23
ENDBRANCH  21  22
ENDBRANCH  20  21
ENDBRANCH  17  20
ENDBRANCH   9  14
BRANCH   1  30
ATOM     30  S   UNL     1       2.411   1.438   3.613  0.00  0.00    -0.089 S 
BRANCH  30  32
ATOM     31  C   UNL     1       3.315   3.505   2.067  0.00  0.00    +0.016 C 
ATOM     32  C   UNL     1       2.597   3.228   3.389  0.00  0.00    +0.074 C 
ENDBRANCH  30  32
ENDBRANCH   1  30
TORSDOF 8
