REMARK  Name = ZINC09208561
REMARK  13 active torsions:
REMARK  status: ('A' for Active; 'I' for Inactive)
REMARK    1  A    between atoms: C_1  and  C_2
REMARK    2  A    between atoms: C_3  and  C_35
REMARK    3  A    between atoms: C_4  and  C_34
REMARK    4  A    between atoms: C_7  and  C_8
REMARK    5  A    between atoms: C_8  and  C_10
REMARK    6  A    between atoms: C_10  and  C_12
REMARK    7  A    between atoms: C_10  and  S_13
REMARK    8  A    between atoms: S_13  and  C_14
REMARK    9  A    between atoms: C_17  and  C_26
REMARK   10  A    between atoms: N_18  and  C_19
REMARK   11  A    between atoms: C_26  and  C_28
REMARK   12  A    between atoms: C_26  and  N_67
REMARK   13  A    between atoms: C_35  and  C_37
REMARK                            x       y       z     vdW  Elec       q    Type
REMARK                         _______ _______ _______ _____ _____    ______ ____
ROOT
ATOM      1  C   UNL     1      -0.203   9.972   3.754  0.00  0.00    +0.197 A 
ATOM      2  N   UNL     1       0.063  10.242   2.497  0.00  0.00    -0.122 NA
ATOM      3  N   UNL     1       0.520  11.439   2.394  0.00  0.00    -0.135 NA
ATOM      4  C   UNL     1       0.583  11.998   3.569  0.00  0.00    +0.125 A 
ATOM      5  N   UNL     1       0.124  11.083   4.480  0.00  0.00    -0.275 N 
ENDROOT
BRANCH   5   6
ATOM      6  C   UNL     1       0.013  11.252   5.869  0.00  0.00    +0.050 A 
ATOM      7  C   UNL     1      -0.868  12.192   6.386  0.00  0.00    +0.029 A 
ATOM      8  C   UNL     1      -0.979  12.353   7.753  0.00  0.00    +0.040 A 
ATOM      9  C   UNL     1      -0.205  11.585   8.607  0.00  0.00    +0.124 A 
ATOM     10  C   UNL     1       0.678  10.651   8.093  0.00  0.00    +0.040 A 
ATOM     11  C   UNL     1       0.788  10.483   6.726  0.00  0.00    +0.029 A 
ATOM     12  F   UNL     1      -0.312  11.747   9.944  0.00  0.00    -0.205 F 
ENDBRANCH   5   6
BRANCH   4  13
ATOM     13  C   UNL     1       1.069  13.392   3.871  0.00  0.00    -0.002 C 
ATOM     14  C   UNL     1       0.005  14.406   3.447  0.00  0.00    -0.005 C 
BRANCH  13  20
ATOM     15  C   UNL     1       3.326  12.632   3.438  0.00  0.00    -0.078 C 
ATOM     16  C   UNL     1       4.550  12.844   2.544  0.00  0.00    -0.019 C 
ATOM     17  C   UNL     1       5.115  14.246   2.786  0.00  0.00    -0.004 C 
ATOM     18  C   UNL     1       4.025  15.283   2.505  0.00  0.00    -0.019 C 
ATOM     19  C   UNL     1       2.816  15.000   3.400  0.00  0.00    -0.078 C 
ATOM     20  N   UNL     1       2.304  13.646   3.101  0.00  0.00    +0.386 N 
ATOM     21  H   UNL     1       2.091  13.584   2.099  0.00  0.00    -0.081 HD
ENDBRANCH  13  20
ENDBRANCH   4  13
BRANCH   1  22
ATOM     22  S   UNL     1      -0.851   8.460   4.386  0.00  0.00    -0.074 S 
BRANCH  22  23
ATOM     23  C   UNL     1      -1.011   7.519   2.848  0.00  0.00    +0.124 C 
ATOM     24  C   UNL     1      -2.054   8.186   1.949  0.00  0.00    +0.028 C 
BRANCH  23  25
ATOM     25  C   UNL     1      -1.447   6.111   3.163  0.00  0.00    +0.192 C 
ATOM     26  O   UNL     1      -2.056   5.879   4.188  0.00  0.00    -0.289 OA
BRANCH  25  33
ATOM     27  C   UNL     1      -2.236   3.136   3.591  0.00  0.00    +0.047 C 
ATOM     28  C   UNL     1      -1.484   3.734   2.430  0.00  0.00    -0.012 A 
ATOM     29  C   UNL     1      -0.989   3.043   1.301  0.00  0.00    +0.041 A 
ATOM     30  C   UNL     1      -0.361   3.979   0.492  0.00  0.00    +0.024 A 
ATOM     31  N   UNL     1      -0.464   5.183   1.071  0.00  0.00    -0.355 N 
ATOM     32  H   UNL     1      -0.111   6.011   0.711  0.00  0.00    +0.166 HD
ATOM     33  C   UNL     1      -1.147   5.059   2.265  0.00  0.00    +0.087 A 
ATOM     34  C   UNL     1       0.321   3.691  -0.821  0.00  0.00    +0.064 C 
BRANCH  29  35
ATOM     35  C   UNL     1      -1.110   1.605   1.037  0.00  0.00    +0.162 C 
ATOM     36  O   UNL     1      -0.243   0.844   1.412  0.00  0.00    -0.292 OA
ATOM     37  C   UNL     1      -2.312   1.073   0.300  0.00  0.00    +0.091 C 
ENDBRANCH  29  35
ENDBRANCH  25  33
ENDBRANCH  23  25
ENDBRANCH  22  23
ENDBRANCH   1  22
TORSDOF 8
