REMARK  Name = ZINC13007954
REMARK  8 active torsions:
REMARK  status: ('A' for Active; 'I' for Inactive)
REMARK    1  A    between atoms: C_1  and  N_2
REMARK    2  A    between atoms: C_9  and  C_11
REMARK    3  A    between atoms: C_11  and  C_13
REMARK    4  A    between atoms: C_11  and  N_66
REMARK    5  A    between atoms: C_13  and  N_14
REMARK    6  A    between atoms: C_15  and  C_17
REMARK    7  A    between atoms: N_19  and  C_20
REMARK    8  A    between atoms: C_20  and  C_21
REMARK                            x       y       z     vdW  Elec       q    Type
REMARK                         _______ _______ _______ _____ _____    ______ ____
ROOT
ATOM      1  C   UNL     1      -4.844   5.790  -1.057  0.00  0.00    +0.094 C 
ENDROOT
BRANCH   1   2
ATOM      2  N   UNL     1      -5.590   6.918  -1.622  0.00  0.00    -0.309 N 
ATOM      3  C   UNL     1      -6.924   6.826  -1.791  0.00  0.00    +0.299 C 
ATOM      4  O   UNL     1      -7.507   5.809  -1.476  0.00  0.00    -0.265 OA
ATOM      5  H   UNL     1      -5.124   7.730  -1.873  0.00  0.00    +0.149 HD
BRANCH   3   6
ATOM      6  C   UNL     1      -7.685   7.976  -2.367  0.00  0.00    +0.299 C 
ATOM      7  O   UNL     1      -7.102   8.993  -2.682  0.00  0.00    -0.265 OA
ATOM      8  N   UNL     1      -9.019   7.885  -2.537  0.00  0.00    -0.303 N 
ATOM      9  H   UNL     1      -9.485   7.072  -2.285  0.00  0.00    +0.149 HD
BRANCH   8  10
ATOM     10  C   UNL     1      -9.765   9.012  -3.101  0.00  0.00    +0.140 C 
BRANCH  10  11
ATOM     11  C   UNL     1     -11.226   8.656  -3.185  0.00  0.00    -0.027 A 
ATOM     12  C   UNL     1     -11.726   8.059  -4.327  0.00  0.00    +0.009 A 
ATOM     13  C   UNL     1     -13.066   7.725  -4.407  0.00  0.00    +0.050 A 
ATOM     14  C   UNL     1     -13.913   8.000  -3.345  0.00  0.00    +0.166 A 
ATOM     15  C   UNL     1     -13.410   8.606  -2.196  0.00  0.00    +0.167 A 
ATOM     16  C   UNL     1     -12.066   8.932  -2.122  0.00  0.00    +0.054 A 
ATOM     17  O   UNL     1     -14.432   8.768  -1.306  0.00  0.00    -0.453 OA
ATOM     18  C   UNL     1     -15.640   8.629  -2.077  0.00  0.00    +0.466 C 
ATOM     19  O   UNL     1     -15.249   7.782  -3.174  0.00  0.00    -0.453 OA
ENDBRANCH  10  11
ENDBRANCH   8  10
ENDBRANCH   3   6
ENDBRANCH   1   2
BRANCH   1  20
ATOM     20  C   UNL     1      -3.346   6.098  -1.097  0.00  0.00    -0.020 C 
BRANCH  20  29
ATOM     21  C   UNL     1       0.328   1.843   2.105  0.00  0.00    +0.129 C 
ATOM     22  N   UNL     1      -0.390   1.659   0.836  0.00  0.00    -0.332 N 
ATOM     23  C   UNL     1       0.555   1.440  -0.281  0.00  0.00    +0.109 C 
ATOM     24  C   UNL     1      -0.192   2.055  -1.487  0.00  0.00    +0.056 C 
ATOM     25  C   UNL     1      -1.104   3.074  -0.834  0.00  0.00    -0.025 A 
ATOM     26  C   UNL     1      -1.166   2.786   0.524  0.00  0.00    +0.033 A 
ATOM     27  C   UNL     1      -1.943   3.593   1.354  0.00  0.00    +0.023 A 
ATOM     28  C   UNL     1      -2.642   4.659   0.827  0.00  0.00    +0.004 A 
ATOM     29  C   UNL     1      -2.578   4.934  -0.526  0.00  0.00    -0.059 A 
ATOM     30  C   UNL     1      -1.808   4.139  -1.356  0.00  0.00    +0.007 A 
ENDBRANCH  20  29
BRANCH  20  36
ATOM     31  C   UNL     1      -1.692   7.301   0.199  0.00  0.00    -0.078 C 
ATOM     32  C   UNL     1      -1.399   8.631   0.897  0.00  0.00    -0.019 C 
ATOM     33  C   UNL     1      -2.381   8.819   2.057  0.00  0.00    -0.004 C 
ATOM     34  C   UNL     1      -3.813   8.768   1.517  0.00  0.00    -0.019 C 
ATOM     35  C   UNL     1      -4.035   7.434   0.801  0.00  0.00    -0.078 C 
ATOM     36  N   UNL     1      -3.077   7.326  -0.319  0.00  0.00    +0.385 N 
ATOM     37  H   UNL     1      -3.188   8.141  -0.933  0.00  0.00    -0.081 HD
ENDBRANCH  20  36
ENDBRANCH   1  20
TORSDOF 7
