REMARK  Name = ZINC03039590
REMARK  7 active torsions:
REMARK  status: ('A' for Active; 'I' for Inactive)
REMARK    1  A    between atoms: C_1  and  C_2
REMARK    2  A    between atoms: C_6  and  C_8
REMARK    3  A    between atoms: C_9  and  N_21
REMARK    4  A    between atoms: C_14  and  C_17
REMARK    5  A    between atoms: C_17  and  O_19
REMARK    6  A    between atoms: O_19  and  C_20
REMARK    7  A    between atoms: N_21  and  C_22
REMARK                            x       y       z     vdW  Elec       q    Type
REMARK                         _______ _______ _______ _____ _____    ______ ____
ROOT
ATOM      1  C   UNL     1       0.047  -2.845   2.456  0.00  0.00    +0.088 A 
ATOM      2  C   UNL     1      -0.018  -4.190   2.592  0.00  0.00    +0.147 A 
ATOM      3  N   UNL     1       0.034  -4.490   3.940  0.00  0.00    -0.200 N 
ATOM      4  C   UNL     1       0.130  -3.333   4.629  0.00  0.00    +0.151 A 
ATOM      5  N   UNL     1       0.146  -2.298   3.735  0.00  0.00    -0.336 N 
ATOM      6  H   UNL     1       0.213  -1.354   3.950  0.00  0.00    +0.167 HD
ATOM      7  C   UNL     1       0.181  -3.664   5.988  0.00  0.00    +0.121 A 
ATOM      8  C   UNL     1       0.110  -5.073   6.069  0.00  0.00    +0.152 A 
ATOM      9  N   UNL     1       0.024  -5.548   4.858  0.00  0.00    -0.171 NA
ENDROOT
BRANCH   1  15
ATOM     10  C   UNL     1      -1.954  -2.038  -2.043  0.00  0.00    +0.044 C 
ATOM     11  C   UNL     1      -0.937  -1.702  -0.983  0.00  0.00    -0.050 A 
ATOM     12  C   UNL     1      -0.022  -0.687  -1.200  0.00  0.00    +0.003 A 
ATOM     13  C   UNL     1       0.915  -0.372  -0.232  0.00  0.00    +0.001 A 
ATOM     14  C   UNL     1       0.943  -1.069   0.958  0.00  0.00    +0.010 A 
ATOM     15  C   UNL     1       0.023  -2.094   1.185  0.00  0.00    +0.002 A 
ATOM     16  C   UNL     1      -0.924  -2.404   0.205  0.00  0.00    +0.013 A 
ENDBRANCH   1  15
BRANCH   7  17
ATOM     17  C   UNL     1       0.288  -2.730   7.110  0.00  0.00    +0.344 C 
ATOM     18  O   UNL     1       0.341  -1.533   6.902  0.00  0.00    -0.245 OA
BRANCH  17  19
ATOM     19  O   UNL     1       0.327  -3.197   8.375  0.00  0.00    -0.464 OA
ATOM     20  C   UNL     1       0.431  -2.229   9.421  0.00  0.00    +0.280 C 
ENDBRANCH  17  19
ENDBRANCH   7  17
BRANCH   2  21
ATOM     21  N   UNL     1      -0.119  -5.112   1.552  0.00  0.00    -0.324 N 
ATOM     22  H   UNL     1      -0.072  -4.812   0.631  0.00  0.00    +0.148 HD
BRANCH  21  23
ATOM     23  C   UNL     1      -0.298  -6.535   1.851  0.00  0.00    +0.072 C 
ATOM     24  C   UNL     1       1.078  -7.156   2.165  0.00  0.00    +0.022 C 
ATOM     25  C   UNL     1       0.864  -8.424   2.946  0.00  0.00    +0.002 C 
ATOM     26  C   UNL     1       0.826  -9.673   2.044  0.00  0.00    +0.000 C 
ATOM     27  C   UNL     1       0.029  -9.447   0.745  0.00  0.00    +0.000 C 
ATOM     28  C   UNL     1      -1.239  -8.670   0.974  0.00  0.00    +0.002 C 
ATOM     29  C   UNL     1      -0.950  -7.176   0.718  0.00  0.00    +0.022 C 
ENDBRANCH  21  23
ENDBRANCH   2  21
TORSDOF 5
