REMARK  Name = ZINC19793886
REMARK  6 active torsions:
REMARK  status: ('A' for Active; 'I' for Inactive)
REMARK    1  A    between atoms: C_1  and  C_2
REMARK    2  A    between atoms: C_2  and  O_3
REMARK    3  A    between atoms: O_3  and  C_4
REMARK    4  A    between atoms: C_7  and  N_10
REMARK    5  A    between atoms: C_16  and  C_24
REMARK    6  A    between atoms: C_20  and  C_21
REMARK                            x       y       z     vdW  Elec       q    Type
REMARK                         _______ _______ _______ _____ _____    ______ ____
ROOT
ATOM      1  N   UNL     1      -0.393   3.220   5.822  0.00  0.00    -0.354 N 
ATOM      2  C   UNL     1      -0.009   2.457   4.742  0.00  0.00    +0.064 A 
ATOM      3  C   UNL     1      -0.499   1.141   4.565  0.00  0.00    +0.023 A 
ATOM      4  C   UNL     1      -1.390   0.569   5.483  0.00  0.00    +0.013 A 
ATOM      5  C   UNL     1      -1.842  -0.702   5.283  0.00  0.00    +0.021 A 
ATOM      6  C   UNL     1      -1.433  -1.436   4.172  0.00  0.00    +0.046 A 
ATOM      7  C   UNL     1      -0.562  -0.909   3.264  0.00  0.00    -0.008 A 
ATOM      8  C   UNL     1      -0.076   0.396   3.439  0.00  0.00    +0.053 A 
ATOM      9  N   UNL     1       0.777   0.933   2.555  0.00  0.00    -0.360 N 
ATOM     10  C   UNL     1       1.246   2.147   2.692  0.00  0.00    +0.100 A 
ATOM     11  C   UNL     1       0.881   2.959   3.779  0.00  0.00    +0.103 A 
ATOM     12  C   UNL     1      -0.128  -1.724   2.073  0.00  0.00    +0.047 C 
ATOM     13 CL   UNL     1      -2.034  -3.049   3.945  0.00  0.00    -0.083 Cl
ATOM     14  H   UNL     1       1.104   0.350   1.681  0.00  0.00    +0.165 HD
ATOM     15  H   UNL     1       0.203   3.205   6.746  0.00  0.00    +0.166 HD
ENDROOT
BRANCH   1  19
ATOM     16  C   UNL     1      -3.816   5.588   5.590  0.00  0.00    +0.121 A 
ATOM     17  C   UNL     1      -3.137   5.467   6.794  0.00  0.00    +0.047 A 
ATOM     18  C   UNL     1      -2.003   4.683   6.872  0.00  0.00    +0.029 A 
ATOM     19  C   UNL     1      -1.542   4.015   5.744  0.00  0.00    +0.040 A 
ATOM     20  C   UNL     1      -2.219   4.142   4.538  0.00  0.00    +0.029 A 
ATOM     21  C   UNL     1      -3.356   4.922   4.463  0.00  0.00    +0.047 A 
BRANCH  16  22
ATOM     22  O   UNL     1      -4.932   6.361   5.514  0.00  0.00    -0.492 OA
BRANCH  22  24
ATOM     23  C   UNL     1      -6.808   7.347   4.354  0.00  0.00    +0.048 C 
ATOM     24  C   UNL     1      -5.581   6.440   4.244  0.00  0.00    +0.225 C 
ENDBRANCH  22  24
ENDBRANCH  16  22
ENDBRANCH   1  19
BRANCH  11  25
ATOM     25  C   UNL     1       1.424   4.319   3.906  0.00  0.00    +0.390 C 
ATOM     26  O   UNL     1       1.184   4.980   4.897  0.00  0.00    -0.240 OA
ATOM     27  O   UNL     1       2.189   4.834   2.922  0.00  0.00    -0.240 OA
ENDBRANCH  11  25
TORSDOF 4
