REMARK  Name = ZINC65611054
REMARK  6 active torsions:
REMARK  status: ('A' for Active; 'I' for Inactive)
REMARK    1  A    between atoms: C_1  and  C_2
REMARK    2  A    between atoms: C_6  and  C_8
REMARK    3  A    between atoms: C_6  and  C_9
REMARK    4  A    between atoms: C_10  and  C_12
REMARK    5  A    between atoms: C_15  and  S_18
REMARK    6  A    between atoms: S_18  and  C_21
REMARK                            x       y       z     vdW  Elec       q    Type
REMARK                         _______ _______ _______ _____ _____    ______ ____
ROOT
ATOM      1  C   UNL     1      -1.921  -4.283  -0.490  0.00  0.00    +0.037 A 
ATOM      2  C   UNL     1      -1.746  -4.861   0.769  0.00  0.00    +0.015 A 
ATOM      3  C   UNL     1      -1.608  -6.228   0.884  0.00  0.00    +0.028 A 
ATOM      4  C   UNL     1      -1.642  -7.027  -0.245  0.00  0.00    +0.098 A 
ATOM      5  C   UNL     1      -1.815  -6.462  -1.496  0.00  0.00    +0.028 A 
ATOM      6  C   UNL     1      -1.960  -5.096  -1.624  0.00  0.00    +0.015 A 
ENDROOT
BRANCH   1  16
ATOM      7  C   UNL     1       0.108   1.510  -0.560  0.00  0.00    +0.039 C 
ATOM      8  C   UNL     1       0.114  -0.020  -0.554  0.00  0.00    +0.133 C 
ATOM      9  C   UNL     1      -1.281  -0.536  -0.182  0.00  0.00    +0.139 C 
ATOM     10  N   UNL     1      -1.204  -1.994  -0.000  0.00  0.00    -0.292 N 
ATOM     11  C   UNL     1      -0.151  -2.526   0.880  0.00  0.00    +0.142 C 
ATOM     12  C   UNL     1       1.189  -1.913   0.457  0.00  0.00    +0.080 C 
ATOM     13  O   UNL     1       1.061  -0.490   0.408  0.00  0.00    -0.368 OA
ATOM     14  C   UNL     1       1.577  -2.439  -0.926  0.00  0.00    +0.043 C 
ATOM     15  C   UNL     1       2.268  -2.295   1.471  0.00  0.00    +0.043 C 
ATOM     16  C   UNL     1      -2.071  -2.818  -0.621  0.00  0.00    +0.247 C 
ATOM     17  O   UNL     1      -2.976  -2.357  -1.288  0.00  0.00    -0.270 OA
ENDBRANCH   1  16
BRANCH   4  18
ATOM     18  S   UNL     1      -1.464  -8.774  -0.089  0.00  0.00    +0.091 S 
ATOM     19  O   UNL     1      -0.936  -9.197  -1.339  0.00  0.00    -0.161 OA
ATOM     20  O   UNL     1      -0.723  -8.957   1.109  0.00  0.00    -0.161 OA
BRANCH  18  21
ATOM     21  C   UNL     1      -3.154  -9.398   0.119  0.00  0.00    +0.526 C 
ATOM     22  F   UNL     1      -3.920  -9.054  -1.000  0.00  0.00    -0.150 F 
ATOM     23  F   UNL     1      -3.124 -10.790   0.253  0.00  0.00    -0.150 F 
ATOM     24  F   UNL     1      -3.722  -8.831   1.265  0.00  0.00    -0.150 F 
ENDBRANCH  18  21
ENDBRANCH   4  18
TORSDOF 3
