REMARK  Name = ZINC43670894
REMARK  8 active torsions:
REMARK  status: ('A' for Active; 'I' for Inactive)
REMARK    1  A    between atoms: C_1  and  C_2
REMARK    2  A    between atoms: C_5  and  C_8
REMARK    3  A    between atoms: N_10  and  N_11
REMARK    4  A    between atoms: N_11  and  C_12
REMARK    5  A    between atoms: C_12  and  N_14
REMARK    6  A    between atoms: N_14  and  C_15
REMARK    7  A    between atoms: C_20  and  C_25
REMARK    8  A    between atoms: C_22  and  C_24
REMARK                            x       y       z     vdW  Elec       q    Type
REMARK                         _______ _______ _______ _____ _____    ______ ____
ROOT
ATOM      1  N   UNL     1       0.094  -6.236   1.318  0.00  0.00    -0.246 N 
ATOM      2  H   UNL     1       0.097  -6.751   0.497  0.00  0.00    +0.172 HD
ENDROOT
BRANCH   1   5
ATOM      3  C   UNL     1       0.060  -4.205   0.075  0.00  0.00    +0.262 C 
ATOM      4  O   UNL     1       0.064  -4.852  -0.954  0.00  0.00    -0.269 OA
ATOM      5  N   UNL     1       0.075  -4.836   1.267  0.00  0.00    -0.231 N 
ATOM      6  H   UNL     1       0.072  -4.320   2.088  0.00  0.00    +0.173 HD
BRANCH   3  11
ATOM      7  C   UNL     1      -0.018   1.503   0.010  0.00  0.00    +0.065 C 
ATOM      8  C   UNL     1       0.002  -0.004   0.002  0.00  0.00    +0.038 A 
ATOM      9  C   UNL     1       0.005  -0.678  -1.206  0.00  0.00    +0.024 A 
ATOM     10  C   UNL     1       0.025  -2.061  -1.210  0.00  0.00    +0.016 A 
ATOM     11  C   UNL     1       0.040  -2.728   0.021  0.00  0.00    +0.056 A 
ATOM     12  C   UNL     1       0.035  -1.975   1.195  0.00  0.00    +0.124 A 
ATOM     13  N   UNL     1       0.022  -0.659   1.147  0.00  0.00    -0.259 NA
ENDBRANCH   3  11
ENDBRANCH   1   5
BRANCH   1  14
ATOM     14  C   UNL     1       0.109  -6.866   2.510  0.00  0.00    +0.147 C 
ATOM     15  S   UNL     1       0.133  -8.576   2.573  0.00  0.00    -0.017 S 
BRANCH  14  16
ATOM     16  N   UNL     1       0.105  -6.149   3.651  0.00  0.00    -0.322 N 
ATOM     17  H   UNL     1       0.092  -5.180   3.615  0.00  0.00    +0.148 HD
BRANCH  16  18
ATOM     18  C   UNL     1       0.121  -6.835   4.946  0.00  0.00    +0.075 C 
ATOM     19  C   UNL     1       1.565  -7.165   5.331  0.00  0.00    +0.022 C 
ATOM     20  C   UNL     1       1.581  -7.880   6.683  0.00  0.00    +0.002 C 
ATOM     21  C   UNL     1       0.964  -6.971   7.748  0.00  0.00    +0.003 C 
ATOM     22  C   UNL     1      -0.479  -6.641   7.364  0.00  0.00    -0.009 C 
ATOM     23  C   UNL     1      -0.496  -5.926   6.011  0.00  0.00    +0.009 C 
ATOM     24  C   UNL     1      -1.939  -5.596   5.627  0.00  0.00    +0.009 C 
ATOM     25  C   UNL     1      -1.096  -5.733   8.429  0.00  0.00    +0.008 C 
ENDBRANCH  16  18
ENDBRANCH  14  16
ENDBRANCH   1  14
TORSDOF 5
