REMARK  Name = ZINC19729472
REMARK  3 active torsions:
REMARK  status: ('A' for Active; 'I' for Inactive)
REMARK    1  A    between atoms: C_4  and  C_8
REMARK    2  A    between atoms: C_8  and  C_10
REMARK    3  A    between atoms: C_8  and  N_15
REMARK                            x       y       z     vdW  Elec       q    Type
REMARK                         _______ _______ _______ _____ _____    ______ ____
ROOT
ATOM      1  C   UNL     1      -1.194  -0.920   0.009  0.00  0.00    +0.033 C 
ENDROOT
BRANCH   1   5
ATOM      2  C   UNL     1      -3.578   0.007   3.434  0.00  0.00    +0.004 A 
ATOM      3  C   UNL     1      -4.039   0.316   2.168  0.00  0.00    +0.038 A 
ATOM      4  C   UNL     1      -3.268   0.016   1.058  0.00  0.00    +0.127 A 
ATOM      5  C   UNL     1      -2.035  -0.593   1.217  0.00  0.00    -0.001 A 
ATOM      6  C   UNL     1      -1.578  -0.908   2.483  0.00  0.00    +0.046 A 
ATOM      7  C   UNL     1      -2.347  -0.602   3.592  0.00  0.00    +0.020 A 
ATOM      8 CL   UNL     1      -0.035  -1.679   2.683  0.00  0.00    -0.083 Cl
ATOM      9  F   UNL     1      -3.718   0.319  -0.179  0.00  0.00    -0.205 F 
ENDBRANCH   1   5
BRANCH   1  10
ATOM     10  C   UNL     1      -1.794  -2.097  -0.717  0.00  0.00    +0.167 A 
ATOM     11  N   UNL     1      -2.150  -2.145  -2.014  0.00  0.00    -0.113 NA
ATOM     12  N   UNL     1      -2.620  -3.326  -2.235  0.00  0.00    -0.021 NA
ATOM     13  N   UNL     1      -2.571  -4.004  -1.142  0.00  0.00    -0.021 NA
ATOM     14  N   UNL     1      -2.071  -3.272  -0.207  0.00  0.00    -0.113 NA
ENDBRANCH   1  10
BRANCH   1  15
ATOM     15  N   UNL     1      -1.156   0.241  -0.889  0.00  0.00    +0.388 N 
ATOM     16  H   UNL     1      -0.542   0.003  -1.771  0.00  0.00    -0.089 HD
ATOM     17  H   UNL     1      -0.718   1.100  -0.359  0.00  0.00    -0.089 HD
ATOM     18  H   UNL     1      -2.178   0.490  -1.211  0.00  0.00    -0.089 HD
ENDBRANCH   1  15
TORSDOF 3
