REMARK  Name = ZINC12523502
REMARK  8 active torsions:
REMARK  status: ('A' for Active; 'I' for Inactive)
REMARK    1  A    between atoms: C_4  and  O_30
REMARK    2  A    between atoms: C_5  and  N_7
REMARK    3  A    between atoms: C_12  and  C_13
REMARK    4  A    between atoms: C_12  and  N_54
REMARK    5  A    between atoms: C_13  and  C_14
REMARK    6  A    between atoms: C_14  and  C_15
REMARK    7  A    between atoms: C_17  and  C_20
REMARK    8  A    between atoms: C_24  and  C_26
REMARK                            x       y       z     vdW  Elec       q    Type
REMARK                         _______ _______ _______ _____ _____    ______ ____
ROOT
ATOM      1  C   UNL     1      -0.753   1.593  -1.232  0.00  0.00    -0.009 C 
ENDROOT
BRANCH   1   2
ATOM      2  C   UNL     1      -0.037   1.099  -2.490  0.00  0.00    -0.078 C 
BRANCH   2   8
ATOM      3  N   UNL     1      -2.036   1.321  -6.205  0.00  0.00    -0.331 N 
ATOM      4  C   UNL     1      -0.701   1.927  -6.104  0.00  0.00    +0.086 C 
ATOM      5  C   UNL     1       0.035   1.336  -4.899  0.00  0.00    -0.060 C 
ATOM      6  C   UNL     1      -2.082   0.980  -3.781  0.00  0.00    -0.060 C 
ATOM      7  C   UNL     1      -2.818   1.571  -4.986  0.00  0.00    +0.086 C 
ATOM      8  N   UNL     1      -0.751   1.613  -3.678  0.00  0.00    +0.382 N 
ATOM      9  H   UNL     1      -0.871   2.629  -3.582  0.00  0.00    -0.082 HD
BRANCH   3  14
ATOM     10  C   UNL     1      -3.643   3.595  -8.608  0.00  0.00    +0.002 A 
ATOM     11  C   UNL     1      -4.053   2.703  -9.583  0.00  0.00    +0.004 A 
ATOM     12  C   UNL     1      -3.796   1.352  -9.441  0.00  0.00    +0.047 A 
ATOM     13  C   UNL     1      -3.126   0.888  -8.321  0.00  0.00    +0.138 A 
ATOM     14  C   UNL     1      -2.713   1.785  -7.339  0.00  0.00    +0.072 A 
ATOM     15  C   UNL     1      -2.979   3.139  -7.485  0.00  0.00    +0.027 A 
BRANCH  13  16
ATOM     16  O   UNL     1      -2.873  -0.441  -8.181  0.00  0.00    -0.505 OA
ATOM     17  H   UNL     1      -3.572  -0.928  -7.722  0.00  0.00    +0.292 HD
ENDBRANCH  13  16
ENDBRANCH   3  14
ENDBRANCH   2   8
ENDBRANCH   1   2
BRANCH   1  18
ATOM     18  C   UNL     1      -0.013   1.086   0.008  0.00  0.00    +0.097 C 
BRANCH  18  19
ATOM     19  C   UNL     1      -0.718   1.572   1.248  0.00  0.00    +0.228 A 
ATOM     20  N   UNL     1      -1.682   0.957   1.886  0.00  0.00    -0.191 NA
ATOM     21  C   UNL     1      -1.997   1.758   2.928  0.00  0.00    +0.202 A 
ATOM     22  N   UNL     1      -1.220   2.807   2.857  0.00  0.00    -0.056 NA
ATOM     23  O   UNL     1      -0.481   2.714   1.900  0.00  0.00    -0.338 OA
BRANCH  21  24
ATOM     24  C   UNL     1      -3.036   1.500   3.957  0.00  0.00    +0.023 A 
ATOM     25  C   UNL     1      -3.794   0.332   3.906  0.00  0.00    +0.012 A 
ATOM     26  C   UNL     1      -4.759   0.096   4.864  0.00  0.00    +0.001 A 
ATOM     27  C   UNL     1      -4.973   1.017   5.875  0.00  0.00    +0.012 A 
ATOM     28  C   UNL     1      -4.223   2.177   5.930  0.00  0.00    +0.055 A 
ATOM     29  C   UNL     1      -3.252   2.421   4.979  0.00  0.00    +0.024 A 
BRANCH  28  30
ATOM     30  C   UNL     1      -4.462   3.175   7.033  0.00  0.00    +0.417 C 
ATOM     31  F   UNL     1      -5.482   2.710   7.870  0.00  0.00    -0.166 F 
ATOM     32  F   UNL     1      -3.288   3.339   7.776  0.00  0.00    -0.166 F 
ATOM     33  F   UNL     1      -4.838   4.403   6.478  0.00  0.00    -0.166 F 
ENDBRANCH  28  30
ENDBRANCH  21  24
ENDBRANCH  18  19
ENDBRANCH   1  18
TORSDOF 8
