REMARK  Name = ZINC66806471
REMARK  10 active torsions:
REMARK  status: ('A' for Active; 'I' for Inactive)
REMARK    1  A    between atoms: C_1  and  C_2
REMARK    2  A    between atoms: C_2  and  N_3
REMARK    3  A    between atoms: N_3  and  C_4
REMARK    4  A    between atoms: C_4  and  C_6
REMARK    5  A    between atoms: C_4  and  C_7
REMARK    6  A    between atoms: C_7  and  C_8
REMARK    7  A    between atoms: C_11  and  O_14
REMARK    8  A    between atoms: O_14  and  C_15
REMARK    9  A    between atoms: C_16  and  C_18
REMARK   10  A    between atoms: C_18  and  C_19
REMARK                            x       y       z     vdW  Elec       q    Type
REMARK                         _______ _______ _______ _____ _____    ______ ____
ROOT
ATOM      1  N   UNL     1       0.711  -0.489   1.189  0.00  0.00    -0.299 N 
ATOM      2  C   UNL     1       2.042  -0.696   1.142  0.00  0.00    +0.216 C 
ATOM      3  O   UNL     1       2.628  -1.097   2.124  0.00  0.00    -0.276 OA
ENDROOT
BRANCH   1   5
ATOM      4  C   UNL     1      -0.019   1.526   0.010  0.00  0.00    +0.024 C 
ATOM      5  C   UNL     1       0.002  -0.004   0.002  0.00  0.00    +0.104 C 
ENDBRANCH   1   5
BRANCH   1   6
ATOM      6  C   UNL     1      -0.028  -0.750   2.427  0.00  0.00    +0.077 C 
ATOM      7  C   UNL     1      -0.702   0.539   2.900  0.00  0.00    +0.028 C 
BRANCH   6   8
ATOM      8  C   UNL     1      -1.093  -1.818   2.170  0.00  0.00    +0.057 C 
BRANCH   8   9
ATOM      9  C   UNL     1      -0.423  -3.123   1.823  0.00  0.00    -0.045 A 
ATOM     10  C   UNL     1      -0.131  -3.419   0.504  0.00  0.00    +0.007 A 
ATOM     11  C   UNL     1       0.482  -4.614   0.183  0.00  0.00    +0.046 A 
ATOM     12  C   UNL     1       0.806  -5.518   1.185  0.00  0.00    +0.120 A 
ATOM     13  C   UNL     1       0.512  -5.218   2.507  0.00  0.00    +0.046 A 
ATOM     14  C   UNL     1      -0.097  -4.019   2.824  0.00  0.00    +0.007 A 
BRANCH  12  15
ATOM     15  O   UNL     1       1.409  -6.694   0.872  0.00  0.00    -0.495 OA
ATOM     16  C   UNL     1       1.713  -7.576   1.955  0.00  0.00    +0.277 C 
ENDBRANCH  12  15
ENDBRANCH   8   9
ENDBRANCH   6   8
ENDBRANCH   1   6
BRANCH   2  17
ATOM     17  C   UNL     1       2.801  -0.427  -0.132  0.00  0.00    +0.103 C 
BRANCH  17  18
ATOM     18  C   UNL     1       4.283  -0.740   0.083  0.00  0.00    +0.020 C 
ATOM     19  C   UNL     1       5.069  -0.553  -1.236  0.00  0.00    +0.012 C 
ATOM     20  C   UNL     1       6.405   0.028  -0.716  0.00  0.00    +0.027 C 
ATOM     21  C   UNL     1       6.055   0.673   0.604  0.00  0.00    -0.031 C 
ATOM     22  C   UNL     1       4.897   0.253   1.042  0.00  0.00    -0.027 C 
ENDBRANCH  17  18
ENDBRANCH   2  17
TORSDOF 7
