REMARK  Name = ZINC20180127
REMARK  7 active torsions:
REMARK  status: ('A' for Active; 'I' for Inactive)
REMARK    1  A    between atoms: C_1  and  C_2
REMARK    2  A    between atoms: C_7  and  C_8
REMARK    3  A    between atoms: N_12  and  C_35
REMARK    4  A    between atoms: C_15  and  C_20
REMARK    5  A    between atoms: N_22  and  C_23
REMARK    6  A    between atoms: C_23  and  C_24
REMARK    7  A    between atoms: C_24  and  C_25
REMARK                            x       y       z     vdW  Elec       q    Type
REMARK                         _______ _______ _______ _____ _____    ______ ____
ROOT
ATOM      1  C   UNL     1      -1.259  -0.760   0.011  0.00  0.00    +0.028 C 
ATOM      2  C   UNL     1      -2.440  -0.107   0.128  0.00  0.00    +0.076 C 
ATOM      3  C   UNL     1      -3.726  -0.830   0.251  0.00  0.00    +0.257 C 
ATOM      4  O   UNL     1      -3.841  -1.941  -0.231  0.00  0.00    -0.269 OA
ATOM      5  N   UNL     1      -4.760  -0.273   0.886  0.00  0.00    -0.269 N 
ATOM      6  C   UNL     1      -4.760   0.938   1.568  0.00  0.00    +0.051 A 
ATOM      7  C   UNL     1      -5.754   1.165   2.511  0.00  0.00    +0.037 A 
ATOM      8  C   UNL     1      -5.791   2.366   3.221  0.00  0.00    +0.039 A 
ATOM      9  C   UNL     1      -4.826   3.350   2.989  0.00  0.00    +0.014 A 
ATOM     10  C   UNL     1      -3.840   3.130   2.054  0.00  0.00    +0.017 A 
ATOM     11  C   UNL     1      -3.803   1.935   1.346  0.00  0.00    +0.034 A 
ATOM     12  S   UNL     1      -2.534   1.664   0.151  0.00  0.00    -0.082 S 
ATOM     13  C   UNL     1      -6.023  -1.013   0.861  0.00  0.00    +0.138 C 
ENDROOT
BRANCH   1  20
ATOM     14  C   UNL     1       1.247  -1.678   1.130  0.00  0.00    +0.044 C 
ATOM     15  C   UNL     1       1.193  -0.438   0.276  0.00  0.00    -0.043 A 
ATOM     16  C   UNL     1       2.345   0.275   0.018  0.00  0.00    +0.004 A 
ATOM     17  C   UNL     1       2.298   1.413  -0.767  0.00  0.00    +0.000 A 
ATOM     18  C   UNL     1       1.096   1.847  -1.300  0.00  0.00    +0.001 A 
ATOM     19  C   UNL     1      -0.064   1.146  -1.052  0.00  0.00    +0.008 A 
ATOM     20  C   UNL     1      -0.025  -0.007  -0.259  0.00  0.00    -0.021 A 
ENDBRANCH   1  20
BRANCH   8  21
ATOM     21  C   UNL     1      -6.851   2.597   4.221  0.00  0.00    +0.244 C 
ATOM     22  O   UNL     1      -7.691   1.741   4.425  0.00  0.00    -0.270 OA
ATOM     23  N   UNL     1      -6.889   3.756   4.907  0.00  0.00    -0.311 N 
ATOM     24  H   UNL     1      -6.129   4.529   4.723  0.00  0.00    +0.149 HD
BRANCH  23  25
ATOM     25  C   UNL     1      -7.942   3.985   5.900  0.00  0.00    +0.109 C 
BRANCH  25  26
ATOM     26  C   UNL     1      -7.757   5.367   6.530  0.00  0.00    +0.056 C 
BRANCH  26  27
ATOM     27  C   UNL     1      -8.840   5.603   7.551  0.00  0.00    -0.021 A 
ATOM     28  C   UNL     1      -9.999   6.249   7.350  0.00  0.00    +0.087 A 
ATOM     29  N   UNL     1     -10.732   6.264   8.505  0.00  0.00    -0.360 N 
ATOM     30  H   UNL     1     -11.719   6.749   8.525  0.00  0.00    +0.165 HD
ATOM     31  C   UNL     1     -10.040   5.619   9.506  0.00  0.00    +0.047 A 
ATOM     32  C   UNL     1      -8.825   5.176   8.952  0.00  0.00    +0.003 A 
ATOM     33  C   UNL     1      -7.910   4.481   9.744  0.00  0.00    +0.010 A 
ATOM     34  C   UNL     1      -8.200   4.233  11.057  0.00  0.00    +0.001 A 
ATOM     35  C   UNL     1      -9.398   4.668  11.608  0.00  0.00    +0.002 A 
ATOM     36  C   UNL     1     -10.315   5.356  10.844  0.00  0.00    +0.026 A 
ENDBRANCH  26  27
ENDBRANCH  25  26
ENDBRANCH  23  25
ENDBRANCH   8  21
TORSDOF 5
