REMARK  Name = ZINC12737784
REMARK  7 active torsions:
REMARK  status: ('A' for Active; 'I' for Inactive)
REMARK    1  A    between atoms: C_1  and  C_2
REMARK    2  A    between atoms: C_7  and  S_15
REMARK    3  A    between atoms: S_15  and  C_16
REMARK    4  A    between atoms: C_16  and  C_17
REMARK    5  A    between atoms: C_19  and  C_22
REMARK    6  A    between atoms: C_22  and  C_23
REMARK    7  A    between atoms: C_22  and  C_24
REMARK                            x       y       z     vdW  Elec       q    Type
REMARK                         _______ _______ _______ _____ _____    ______ ____
ROOT
ATOM      1  C   UNL     1      -6.126  12.229   5.834  0.00  0.00    +0.044 C 
ATOM      2  C   UNL     1      -5.402  11.140   5.085  0.00  0.00    -0.038 A 
ATOM      3  C   UNL     1      -5.387  11.133   3.733  0.00  0.00    +0.052 A 
ATOM      4  C   UNL     1      -4.711  10.108   3.030  0.00  0.00    +0.162 A 
ATOM      5  N   UNL     1      -4.557   9.865   1.741  0.00  0.00    -0.129 NA
ATOM      6  N   UNL     1      -3.852   8.802   1.579  0.00  0.00    -0.122 NA
ATOM      7  C   UNL     1      -3.512   8.299   2.746  0.00  0.00    +0.197 A 
ATOM      8  N   UNL     1      -4.049   9.107   3.705  0.00  0.00    -0.270 N 
ATOM      9  C   UNL     1      -4.030   9.077   5.089  0.00  0.00    +0.058 A 
ATOM     10  C   UNL     1      -4.698  10.080   5.813  0.00  0.00    +0.002 A 
ATOM     11  C   UNL     1      -4.683  10.056   7.210  0.00  0.00    +0.010 A 
ATOM     12  C   UNL     1      -4.014   9.047   7.868  0.00  0.00    +0.001 A 
ATOM     13  C   UNL     1      -3.356   8.059   7.151  0.00  0.00    +0.002 A 
ATOM     14  C   UNL     1      -3.361   8.070   5.772  0.00  0.00    +0.027 A 
ENDROOT
BRANCH   7  15
ATOM     15  S   UNL     1      -2.549   6.849   3.019  0.00  0.00    -0.076 S 
BRANCH  15  16
ATOM     16  C   UNL     1      -2.231   6.356   1.307  0.00  0.00    +0.176 C 
BRANCH  16  17
ATOM     17  C   UNL     1      -1.398   5.100   1.293  0.00  0.00    +0.238 A 
ATOM     18  N   UNL     1      -1.844   3.867   1.290  0.00  0.00    -0.195 NA
ATOM     19  C   UNL     1      -0.749   3.086   1.275  0.00  0.00    +0.174 A 
ATOM     20  N   UNL     1       0.288   3.869   1.275  0.00  0.00    -0.061 NA
ATOM     21  O   UNL     1      -0.063   5.030   1.280  0.00  0.00    -0.337 OA
BRANCH  19  22
ATOM     22  C   UNL     1      -0.729   1.579   1.267  0.00  0.00    +0.054 C 
ATOM     23  C   UNL     1      -0.013   1.086   0.008  0.00  0.00    +0.015 C 
ATOM     24  C   UNL     1       0.011   1.072   2.506  0.00  0.00    +0.015 C 
ENDBRANCH  19  22
ENDBRANCH  16  17
ENDBRANCH  15  16
ENDBRANCH   7  15
TORSDOF 4
