REMARK  Name = ZINC39674060
REMARK  8 active torsions:
REMARK  status: ('A' for Active; 'I' for Inactive)
REMARK    1  A    between atoms: C_1  and  C_2
REMARK    2  A    between atoms: C_4  and  C_12
REMARK    3  A    between atoms: C_12  and  C_13
REMARK    4  A    between atoms: C_13  and  N_14
REMARK    5  A    between atoms: C_15  and  C_17
REMARK    6  A    between atoms: C_28  and  C_30
REMARK    7  A    between atoms: C_34  and  O_35
REMARK    8  A    between atoms: O_35  and  C_36
REMARK                            x       y       z     vdW  Elec       q    Type
REMARK                         _______ _______ _______ _____ _____    ______ ____
ROOT
ATOM      1  C   UNL     1      -5.415   3.617   3.648  0.00  0.00    +0.100 C 
ATOM      2  C   UNL     1      -6.842   3.458   3.077  0.00  0.00    +0.121 C 
ATOM      3  N   UNL     1      -7.712   4.176   4.038  0.00  0.00    -0.296 N 
ATOM      4  C   UNL     1      -6.933   5.381   4.412  0.00  0.00    +0.115 C 
ATOM      5  C   UNL     1      -5.479   4.880   4.523  0.00  0.00    -0.004 C 
ATOM      6  C   UNL     1      -5.148   4.537   5.972  0.00  0.00    -0.010 C 
ATOM      7  C   UNL     1      -5.162   5.818   6.811  0.00  0.00    -0.082 C 
ATOM      8  N   UNL     1      -4.178   6.767   6.275  0.00  0.00    +0.379 N 
ATOM      9  C   UNL     1      -4.555   7.163   4.913  0.00  0.00    -0.082 C 
ATOM     10  C   UNL     1      -4.516   5.939   3.994  0.00  0.00    -0.010 C 
ATOM     11  C   UNL     1      -8.936   3.816   4.474  0.00  0.00    +0.251 C 
ATOM     12  O   UNL     1      -9.406   2.742   4.148  0.00  0.00    -0.270 OA
ATOM     13  H   UNL     1      -4.146   7.585   6.865  0.00  0.00    -0.086 HD
ATOM     14  H   UNL     1      -3.268   6.332   6.258  0.00  0.00    -0.086 HD
ENDROOT
BRANCH  11  15
ATOM     15  C   UNL     1      -9.703   4.721   5.343  0.00  0.00    +0.087 A 
ATOM     16  C   UNL     1      -9.634   6.090   5.199  0.00  0.00    +0.063 A 
ATOM     17  S   UNL     1     -10.659   6.683   6.388  0.00  0.00    -0.081 S 
ATOM     18  C   UNL     1     -11.213   5.156   7.114  0.00  0.00    +0.120 A 
ATOM     19  C   UNL     1     -10.569   4.217   6.383  0.00  0.00    +0.158 A 
ATOM     20 CL   UNL     1     -12.317   4.927   8.434  0.00  0.00    -0.072 Cl
BRANCH  19  21
ATOM     21  O   UNL     1     -10.724   2.884   6.617  0.00  0.00    -0.492 OA
ATOM     22  C   UNL     1      -9.827   2.281   7.551  0.00  0.00    +0.277 C 
ENDBRANCH  19  21
ENDBRANCH  11  15
BRANCH   1  24
ATOM     23  N   UNL     1      -3.115   3.547   2.742  0.00  0.00    -0.315 N 
ATOM     24  C   UNL     1      -4.421   3.802   2.531  0.00  0.00    +0.218 C 
ATOM     25  O   UNL     1      -4.796   4.180   1.441  0.00  0.00    -0.275 OA
ATOM     26  H   UNL     1      -2.814   3.244   3.613  0.00  0.00    +0.149 HD
BRANCH  23  27
ATOM     27  C   UNL     1      -2.148   3.727   1.656  0.00  0.00    +0.109 C 
BRANCH  27  28
ATOM     28  C   UNL     1      -0.747   3.372   2.157  0.00  0.00    +0.056 C 
BRANCH  28  32
ATOM     29  C   UNL     1       0.810   5.977   1.507  0.00  0.00    +0.063 C 
ATOM     30  C   UNL     1       0.926   4.679   0.751  0.00  0.00    +0.017 A 
ATOM     31  H   UNL     1       2.315   5.137  -0.731  0.00  0.00    +0.166 HD
ATOM     32  C   UNL     1       0.248   3.557   1.039  0.00  0.00    -0.018 A 
ATOM     33  C   UNL     1       0.658   2.546   0.062  0.00  0.00    +0.003 A 
ATOM     34  C   UNL     1       0.314   1.210  -0.156  0.00  0.00    +0.010 A 
ATOM     35  C   UNL     1       0.891   0.520  -1.184  0.00  0.00    +0.001 A 
ATOM     36  C   UNL     1       1.818   1.135  -2.014  0.00  0.00    +0.002 A 
ATOM     37  C   UNL     1       2.173   2.452  -1.817  0.00  0.00    +0.026 A 
ATOM     38  C   UNL     1       1.597   3.174  -0.776  0.00  0.00    +0.047 A 
ATOM     39  N   UNL     1       1.732   4.471  -0.334  0.00  0.00    -0.358 N 
ENDBRANCH  28  32
ENDBRANCH  27  28
ENDBRANCH  23  27
ENDBRANCH   1  24
TORSDOF 6
