REMARK  Name = ZINC39367706
REMARK  9 active torsions:
REMARK  status: ('A' for Active; 'I' for Inactive)
REMARK    1  A    between atoms: C_1  and  C_2
REMARK    2  A    between atoms: C_2  and  C_3
REMARK    3  A    between atoms: C_3  and  C_5
REMARK    4  A    between atoms: C_3  and  C_6
REMARK    5  A    between atoms: C_11  and  N_12
REMARK    6  A    between atoms: C_13  and  C_15
REMARK    7  A    between atoms: C_15  and  C_17
REMARK    8  A    between atoms: C_15  and  S_18
REMARK    9  A    between atoms: S_18  and  C_19
REMARK                            x       y       z     vdW  Elec       q    Type
REMARK                         _______ _______ _______ _____ _____    ______ ____
ROOT
ATOM      1  C   UNL     1      -1.987  -1.405  -5.348  0.00  0.00    +0.133 C 
ATOM      2  C   UNL     1      -0.953  -1.261  -6.466  0.00  0.00    +0.029 C 
ENDROOT
BRANCH   1   4
ATOM      3  N   UNL     1      -0.653  -1.740  -3.293  0.00  0.00    -0.284 N 
ATOM      4  C   UNL     1      -1.427  -2.279  -4.255  0.00  0.00    +0.230 C 
ATOM      5  O   UNL     1      -1.674  -3.466  -4.241  0.00  0.00    -0.274 OA
ATOM      6  H   UNL     1      -0.503  -0.782  -3.271  0.00  0.00    +0.155 HD
BRANCH   3  12
ATOM      7  C   UNL     1       1.104  -2.165  -1.690  0.00  0.00    -0.023 A 
ATOM      8  C   UNL     1       1.678  -2.977  -0.732  0.00  0.00    +0.006 A 
ATOM      9  C   UNL     1       1.093  -4.187  -0.408  0.00  0.00    +0.000 A 
ATOM     10  C   UNL     1      -0.069  -4.589  -1.042  0.00  0.00    +0.002 A 
ATOM     11  C   UNL     1      -0.648  -3.781  -2.001  0.00  0.00    +0.023 A 
ATOM     12  C   UNL     1      -0.065  -2.563  -2.325  0.00  0.00    +0.037 A 
BRANCH   7  13
ATOM     13  C   UNL     1       1.742  -0.846  -2.043  0.00  0.00    +0.017 C 
ATOM     14  C   UNL     1       3.198  -1.077  -2.453  0.00  0.00    +0.012 C 
BRANCH  13  16
ATOM     15  C   UNL     1       2.229   1.463  -1.220  0.00  0.00    +0.004 C 
ATOM     16  C   UNL     1       1.696   0.083  -0.828  0.00  0.00    +0.004 C 
ENDBRANCH  13  16
ENDBRANCH   7  13
ENDBRANCH   3  12
ENDBRANCH   1   4
BRANCH   1  17
ATOM     17  S   UNL     1      -3.495  -2.162  -6.014  0.00  0.00    -0.098 S 
BRANCH  17  18
ATOM     18  C   UNL     1      -4.120  -0.933  -7.193  0.00  0.00    +0.290 C 
ATOM     19  N   UNL     1      -5.334  -0.286  -6.671  0.00  0.00    -0.147 NA
ATOM     20  N   UNL     1      -6.266  -0.523  -7.441  0.00  0.00    -0.112 NA
ATOM     21  C   UNL     1      -5.912  -1.288  -8.514  0.00  0.00    +0.253 A 
ATOM     22  N   UNL     1      -4.571  -1.586  -8.428  0.00  0.00    -0.274 N 
ATOM     23  C   UNL     1      -4.235  -2.353  -9.514  0.00  0.00    +0.073 A 
ATOM     24  C   UNL     1      -3.058  -2.941  -9.961  0.00  0.00    +0.028 A 
ATOM     25  C   UNL     1      -3.059  -3.671 -11.130  0.00  0.00    +0.002 A 
ATOM     26  C   UNL     1      -4.227  -3.824 -11.866  0.00  0.00    +0.002 A 
ATOM     27  C   UNL     1      -5.394  -3.254 -11.445  0.00  0.00    +0.030 A 
ATOM     28  C   UNL     1      -5.420  -2.507 -10.261  0.00  0.00    +0.091 A 
ATOM     29  N   UNL     1      -6.400  -1.843  -9.604  0.00  0.00    -0.209 NA
ENDBRANCH  17  18
ENDBRANCH   1  17
TORSDOF 6
