REMARK  Name = ZINC45841287
REMARK  8 active torsions:
REMARK  status: ('A' for Active; 'I' for Inactive)
REMARK    1  A    between atoms: C_1  and  C_2
REMARK    2  A    between atoms: C_2  and  C_3
REMARK    3  A    between atoms: C_2  and  C_4
REMARK    4  A    between atoms: C_4  and  C_6
REMARK    5  A    between atoms: C_4  and  N_13
REMARK    6  A    between atoms: C_14  and  C_16
REMARK    7  A    between atoms: C_16  and  N_17
REMARK    8  A    between atoms: C_20  and  N_23
REMARK                            x       y       z     vdW  Elec       q    Type
REMARK                         _______ _______ _______ _____ _____    ______ ____
ROOT
ATOM      1  N   UNL     1      -1.179  -4.652  -2.554  0.00  0.00    +0.386 N 
ATOM      2  C   UNL     1       0.114  -4.235  -3.111  0.00  0.00    -0.076 C 
ATOM      3  C   UNL     1       0.204  -4.663  -4.577  0.00  0.00    +0.006 C 
ATOM      4  C   UNL     1       0.075  -6.186  -4.667  0.00  0.00    +0.089 C 
ATOM      5  C   UNL     1      -1.243  -6.617  -4.018  0.00  0.00    +0.006 C 
ATOM      6  C   UNL     1      -1.280  -6.116  -2.572  0.00  0.00    -0.076 C 
ATOM      7  H   UNL     1      -1.925  -4.258  -3.109  0.00  0.00    -0.081 HD
ENDROOT
BRANCH   4   8
ATOM      8  N   UNL     1       0.085  -6.596  -6.074  0.00  0.00    -0.289 N 
ATOM      9  C   UNL     1       1.010  -7.452  -6.667  0.00  0.00    +0.070 A 
ATOM     10  C   UNL     1       2.116  -8.137  -6.188  0.00  0.00    +0.028 A 
ATOM     11  C   UNL     1       2.856  -8.931  -7.043  0.00  0.00    +0.002 A 
ATOM     12  C   UNL     1       2.498  -9.045  -8.375  0.00  0.00    +0.002 A 
ATOM     13  C   UNL     1       1.397  -8.367  -8.861  0.00  0.00    +0.028 A 
ATOM     14  C   UNL     1       0.648  -7.568  -8.011  0.00  0.00    +0.067 A 
ATOM     15  N   UNL     1      -0.485  -6.779  -8.192  0.00  0.00    -0.306 N 
ATOM     16  H   UNL     1      -0.966  -6.660  -9.026  0.00  0.00    +0.170 HD
ATOM     17  C   UNL     1      -0.802  -6.213  -7.012  0.00  0.00    +0.328 A 
ATOM     18  O   UNL     1      -1.744  -5.467  -6.823  0.00  0.00    -0.247 OA
ENDBRANCH   4   8
BRANCH   1  19
ATOM     19  C   UNL     1      -1.293  -4.171  -1.171  0.00  0.00    +0.019 C 
BRANCH  19  21
ATOM     20  N   UNL     1      -1.413  -1.998   0.005  0.00  0.00    -0.310 N 
ATOM     21  C   UNL     1      -1.314  -2.665  -1.163  0.00  0.00    +0.197 C 
ATOM     22  O   UNL     1      -1.240  -2.051  -2.206  0.00  0.00    -0.278 OA
ATOM     23  H   UNL     1      -1.472  -2.489   0.840  0.00  0.00    +0.149 HD
BRANCH  20  24
ATOM     24  C   UNL     1      -1.433  -0.534   0.013  0.00  0.00    +0.106 C 
BRANCH  24  25
ATOM     25  C   UNL     1      -2.139  -0.048   1.253  0.00  0.00    -0.027 A 
ATOM     26  C   UNL     1      -1.926  -0.682   2.462  0.00  0.00    +0.007 A 
ATOM     27  C   UNL     1      -2.573  -0.237   3.600  0.00  0.00    +0.020 A 
ATOM     28  C   UNL     1      -3.433   0.844   3.528  0.00  0.00    +0.041 A 
ATOM     29  C   UNL     1      -3.645   1.479   2.317  0.00  0.00    +0.020 A 
ATOM     30  C   UNL     1      -2.994   1.036   1.181  0.00  0.00    +0.007 A 
ATOM     31 CL   UNL     1      -4.246   1.404   4.956  0.00  0.00    -0.084 Cl
ENDBRANCH  24  25
BRANCH  24  33
ATOM     32  C   UNL     1      -0.019   1.526   0.010  0.00  0.00    +0.009 C 
ATOM     33  C   UNL     1       0.002  -0.004   0.002  0.00  0.00    +0.008 C 
ATOM     34  C   UNL     1       0.742  -0.511   1.242  0.00  0.00    +0.009 C 
ENDBRANCH  24  33
ENDBRANCH  20  24
ENDBRANCH  19  21
ENDBRANCH   1  19
TORSDOF 6
