REMARK  Name = ZINC21878838
REMARK  9 active torsions:
REMARK  status: ('A' for Active; 'I' for Inactive)
REMARK    1  A    between atoms: C_1  and  C_2
REMARK    2  A    between atoms: C_2  and  C_4
REMARK    3  A    between atoms: C_2  and  S_15
REMARK    4  A    between atoms: N_6  and  C_7
REMARK    5  A    between atoms: C_10  and  S_13
REMARK    6  A    between atoms: S_13  and  C_14
REMARK    7  A    between atoms: S_15  and  C_16
REMARK    8  A    between atoms: C_19  and  C_22
REMARK    9  A    between atoms: N_20  and  N_21
REMARK                            x       y       z     vdW  Elec       q    Type
REMARK                         _______ _______ _______ _____ _____    ______ ____
ROOT
ATOM      1  C   UNL     1       1.486  10.015  -1.067  0.00  0.00    +0.029 C 
ATOM      2  C   UNL     1       2.671   9.651  -0.171  0.00  0.00    +0.137 C 
ENDROOT
BRANCH   2   3
ATOM      3  C   UNL     1       3.686  10.764  -0.203  0.00  0.00    +0.230 C 
ATOM      4  O   UNL     1       4.622  10.710  -0.972  0.00  0.00    -0.274 OA
ATOM      5  N   UNL     1       3.552  11.821   0.623  0.00  0.00    -0.285 N 
ATOM      6  H   UNL     1       2.659  11.914   1.258  0.00  0.00    +0.155 HD
BRANCH   5   7
ATOM      7  C   UNL     1       4.552  12.802   0.673  0.00  0.00    +0.033 A 
ATOM      8  C   UNL     1       5.882  12.447   0.490  0.00  0.00    +0.024 A 
ATOM      9  C   UNL     1       6.867  13.414   0.533  0.00  0.00    +0.016 A 
ATOM     10  C   UNL     1       6.528  14.740   0.772  0.00  0.00    +0.008 A 
ATOM     11  C   UNL     1       5.197  15.094   0.961  0.00  0.00    +0.016 A 
ATOM     12  C   UNL     1       4.213  14.127   0.911  0.00  0.00    +0.024 A 
BRANCH  10  13
ATOM     13  S   UNL     1       7.785  15.973   0.834  0.00  0.00    -0.129 S 
ATOM     14  C   UNL     1       9.319  15.052   0.537  0.00  0.00    +0.090 C 
ENDBRANCH  10  13
ENDBRANCH   5   7
ENDBRANCH   2   3
BRANCH   2  15
ATOM     15  S   UNL     1       3.433   8.123  -0.771  0.00  0.00    -0.072 S 
BRANCH  15  16
ATOM     16  C   UNL     1       2.112   6.991  -0.491  0.00  0.00    +0.209 A 
ATOM     17  N   UNL     1       0.936   7.278   0.019  0.00  0.00    -0.121 NA
ATOM     18  N   UNL     1       0.212   6.218   0.084  0.00  0.00    -0.126 NA
ATOM     19  C   UNL     1       0.882   5.187  -0.380  0.00  0.00    +0.188 A 
ATOM     20  N   UNL     1       2.123   5.650  -0.758  0.00  0.00    -0.223 N 
BRANCH  19  21
ATOM     21  C   UNL     1       0.400   3.799  -0.473  0.00  0.00    +0.058 A 
ATOM     22  C   UNL     1      -0.882   3.321  -0.377  0.00  0.00    +0.019 A 
ATOM     23  C   UNL     1      -1.094   1.967  -0.504  0.00  0.00    +0.008 A 
ATOM     24  C   UNL     1      -0.030   1.147  -0.708  0.00  0.00    +0.046 A 
ATOM     25  S   UNL     1       1.332   2.300  -0.741  0.00  0.00    -0.093 S 
ENDBRANCH  19  21
BRANCH  20  26
ATOM     26  N   UNL     1       3.149   4.923  -1.291  0.00  0.00    -0.295 N 
ATOM     27  H   UNL     1       3.028   3.842  -1.457  0.00  0.00    +0.163 HD
ATOM     28  H   UNL     1       4.096   5.417  -1.554  0.00  0.00    +0.163 HD
ENDBRANCH  20  26
ENDBRANCH  15  16
ENDBRANCH   2  15
TORSDOF 7
