REMARK  Name = ZINC40822347
REMARK  9 active torsions:
REMARK  status: ('A' for Active; 'I' for Inactive)
REMARK    1  A    between atoms: C_1  and  C_2
REMARK    2  A    between atoms: C_6  and  C_7
REMARK    3  A    between atoms: N_9  and  N_10
REMARK    4  A    between atoms: N_10  and  C_11
REMARK    5  A    between atoms: N_10  and  C_17
REMARK    6  A    between atoms: N_27  and  N_28
REMARK    7  A    between atoms: C_29  and  C_31
REMARK    8  A    between atoms: C_35  and  O_37
REMARK    9  A    between atoms: O_37  and  C_38
REMARK                            x       y       z     vdW  Elec       q    Type
REMARK                         _______ _______ _______ _____ _____    ______ ____
ROOT
ATOM      1  C   UNL     1      -1.195   2.300   0.686  0.00  0.00    +0.048 C 
ATOM      2  C   UNL     1      -0.890   0.864   0.348  0.00  0.00    +0.009 A 
ATOM      3  C   UNL     1      -0.894   0.281  -0.925  0.00  0.00    +0.042 A 
ATOM      4  C   UNL     1      -0.561  -1.045  -0.773  0.00  0.00    +0.115 A 
ATOM      5  O   UNL     1      -0.358  -1.272   0.523  0.00  0.00    -0.454 OA
ATOM      6  C   UNL     1      -0.548  -0.130   1.222  0.00  0.00    +0.194 A 
ATOM      7  C   UNL     1      -0.467  -2.005  -1.931  0.00  0.00    +0.075 C 
ATOM      8  C   UNL     1      -1.263  -1.452  -3.116  0.00  0.00    +0.014 C 
ATOM      9  C   UNL     1      -0.826  -0.019  -3.439  0.00  0.00    +0.058 C 
ATOM     10  C   UNL     1      -1.180   0.866  -2.253  0.00  0.00    +0.070 C 
ATOM     11  N   UNL     1      -1.696   2.048  -2.397  0.00  0.00    -0.184 NA
ENDROOT
BRANCH   6  12
ATOM     12  C   UNL     1      -0.413   0.016   2.676  0.00  0.00    +0.296 C 
ATOM     13  O   UNL     1      -0.612   1.096   3.200  0.00  0.00    -0.265 OA
ATOM     14  N   UNL     1      -0.069  -1.046   3.431  0.00  0.00    -0.223 N 
ATOM     15  H   UNL     1       0.090  -1.907   3.014  0.00  0.00    +0.174 HD
BRANCH  14  16
ATOM     16  N   UNL     1       0.060  -0.906   4.819  0.00  0.00    -0.219 N 
BRANCH  16  17
ATOM     17  C   UNL     1      -0.929  -1.411   5.667  0.00  0.00    +0.053 A 
ATOM     18  C   UNL     1      -2.271  -1.244   5.349  0.00  0.00    +0.025 A 
ATOM     19  C   UNL     1      -3.246  -1.745   6.189  0.00  0.00    +0.002 A 
ATOM     20  C   UNL     1      -2.888  -2.413   7.346  0.00  0.00    +0.000 A 
ATOM     21  C   UNL     1      -1.553  -2.581   7.666  0.00  0.00    +0.002 A 
ATOM     22  C   UNL     1      -0.573  -2.087   6.828  0.00  0.00    +0.025 A 
ENDBRANCH  16  17
BRANCH  16  23
ATOM     23  C   UNL     1       1.177  -0.261   5.356  0.00  0.00    +0.053 A 
ATOM     24  C   UNL     1       2.450  -0.573   4.894  0.00  0.00    +0.025 A 
ATOM     25  C   UNL     1       3.552   0.066   5.426  0.00  0.00    +0.002 A 
ATOM     26  C   UNL     1       3.390   1.016   6.418  0.00  0.00    +0.000 A 
ATOM     27  C   UNL     1       2.125   1.329   6.880  0.00  0.00    +0.002 A 
ATOM     28  C   UNL     1       1.018   0.698   6.349  0.00  0.00    +0.025 A 
ENDBRANCH  16  23
ENDBRANCH  14  16
ENDBRANCH   6  12
BRANCH  11  29
ATOM     29  N   UNL     1      -1.946   2.553  -3.679  0.00  0.00    -0.203 N 
ATOM     30  C   UNL     1      -2.482   3.780  -3.828  0.00  0.00    +0.263 C 
ATOM     31  O   UNL     1      -2.748   4.450  -2.849  0.00  0.00    -0.268 OA
ATOM     32  H   UNL     1      -1.734   2.018  -4.461  0.00  0.00    +0.178 HD
BRANCH  30  33
ATOM     33  C   UNL     1      -2.746   4.312  -5.182  0.00  0.00    +0.042 A 
ATOM     34  C   UNL     1      -2.446   3.543  -6.308  0.00  0.00    +0.013 A 
ATOM     35  C   UNL     1      -2.694   4.043  -7.569  0.00  0.00    +0.004 A 
ATOM     36  C   UNL     1      -3.239   5.305  -7.723  0.00  0.00    +0.045 A 
ATOM     37  C   UNL     1      -3.540   6.077  -6.610  0.00  0.00    +0.121 A 
ATOM     38  C   UNL     1      -3.300   5.583  -5.339  0.00  0.00    +0.058 A 
BRANCH  37  39
ATOM     39  O   UNL     1      -4.075   7.316  -6.768  0.00  0.00    -0.495 OA
ATOM     40  C   UNL     1      -4.301   7.760  -8.107  0.00  0.00    +0.277 C 
ENDBRANCH  37  39
ENDBRANCH  30  33
ENDBRANCH  11  29
TORSDOF 7
