REMARK  Name = ZINC27497062
REMARK  13 active torsions:
REMARK  status: ('A' for Active; 'I' for Inactive)
REMARK    1  A    between atoms: C_1  and  C_2
REMARK    2  A    between atoms: C_2  and  C_3
REMARK    3  A    between atoms: C_2  and  C_4
REMARK    4  A    between atoms: C_4  and  C_6
REMARK    5  A    between atoms: C_4  and  N_23
REMARK    6  A    between atoms: N_8  and  C_9
REMARK    7  A    between atoms: C_9  and  C_10
REMARK    8  A    between atoms: C_10  and  C_12
REMARK    9  A    between atoms: C_10  and  N_17
REMARK   10  A    between atoms: N_23  and  S_24
REMARK   11  A    between atoms: S_24  and  C_27
REMARK   12  A    between atoms: C_30  and  O_33
REMARK   13  A    between atoms: O_33  and  C_34
REMARK                            x       y       z     vdW  Elec       q    Type
REMARK                         _______ _______ _______ _____ _____    ______ ____
ROOT
ATOM      1  C   UNL     1       0.995   3.728   0.493  0.00  0.00    +0.232 C 
ATOM      2  O   UNL     1      -0.025   3.717   1.149  0.00  0.00    -0.274 OA
ATOM      3  N   UNL     1       1.978   4.601   0.789  0.00  0.00    -0.315 N 
ATOM      4  H   UNL     1       2.866   4.669   0.144  0.00  0.00    +0.149 HD
ENDROOT
BRANCH   1   5
ATOM      5  C   UNL     1       1.163   2.764  -0.653  0.00  0.00    +0.165 C 
BRANCH   5   7
ATOM      6  C   UNL     1       1.248   2.552  -3.141  0.00  0.00    +0.009 C 
ATOM      7  C   UNL     1       0.994   3.512  -1.977  0.00  0.00    +0.010 C 
ATOM      8  C   UNL     1      -0.430   4.063  -2.073  0.00  0.00    +0.009 C 
ENDBRANCH   5   7
BRANCH   5   9
ATOM      9  N   UNL     1       0.153   1.708  -0.556  0.00  0.00    -0.178 NA
ATOM     10  H   UNL     1      -0.906   1.971  -0.413  0.00  0.00    +0.149 HD
BRANCH   9  11
ATOM     11  S   UNL     1       0.620   0.126  -0.412  0.00  0.00    +0.059 S 
ATOM     12  O   UNL     1      -0.568  -0.633  -0.233  0.00  0.00    -0.153 OA
ATOM     13  O   UNL     1       1.532  -0.126  -1.472  0.00  0.00    -0.153 OA
BRANCH  11  14
ATOM     14  C   UNL     1       1.537  -0.013   1.086  0.00  0.00    +0.105 A 
ATOM     15  C   UNL     1       2.907   0.171   1.075  0.00  0.00    +0.032 A 
ATOM     16  C   UNL     1       3.628   0.069   2.249  0.00  0.00    +0.047 A 
ATOM     17  C   UNL     1       2.977  -0.230   3.438  0.00  0.00    +0.120 A 
ATOM     18  C   UNL     1       1.603  -0.420   3.444  0.00  0.00    +0.047 A 
ATOM     19  C   UNL     1       0.886  -0.311   2.268  0.00  0.00    +0.032 A 
BRANCH  17  20
ATOM     20  O   UNL     1       3.685  -0.337   4.593  0.00  0.00    -0.495 OA
ATOM     21  C   UNL     1       5.096  -0.129   4.511  0.00  0.00    +0.277 C 
ENDBRANCH  17  20
ENDBRANCH  11  14
ENDBRANCH   9  11
ENDBRANCH   5   9
ENDBRANCH   1   5
BRANCH   3  22
ATOM     22  C   UNL     1       1.863   5.460   1.970  0.00  0.00    +0.096 C 
BRANCH  22  23
ATOM     23  C   UNL     1       3.040   6.438   2.006  0.00  0.00    +0.016 C 
BRANCH  23  24
ATOM     24  N   UNL     1       4.301   5.691   1.905  0.00  0.00    +0.387 N 
ATOM     25  C   UNL     1       4.408   4.691   2.975  0.00  0.00    -0.078 C 
ATOM     26  C   UNL     1       5.658   3.837   2.755  0.00  0.00    -0.019 C 
ATOM     27  C   UNL     1       6.894   4.742   2.750  0.00  0.00    -0.004 C 
ATOM     28  C   UNL     1       6.735   5.804   1.658  0.00  0.00    -0.019 C 
ATOM     29  C   UNL     1       5.453   6.601   1.911  0.00  0.00    -0.078 C 
ATOM     30  H   UNL     1       4.302   5.155   0.944  0.00  0.00    -0.081 HD
ENDBRANCH  23  24
BRANCH  23  31
ATOM     31  C   UNL     1       2.930   7.397   0.849  0.00  0.00    +0.093 A 
ATOM     32  C   UNL     1       2.456   8.655   0.913  0.00  0.00    +0.043 A 
ATOM     33  C   UNL     1       2.534   9.188  -0.394  0.00  0.00    +0.041 A 
ATOM     34  C   UNL     1       3.051   8.225  -1.178  0.00  0.00    +0.195 A 
ATOM     35  O   UNL     1       3.294   7.145  -0.418  0.00  0.00    -0.469 OA
ENDBRANCH  23  31
ENDBRANCH  22  23
ENDBRANCH   3  22
TORSDOF 10
