REMARK  Name = ZINC12371973
REMARK  6 active torsions:
REMARK  status: ('A' for Active; 'I' for Inactive)
REMARK    1  A    between atoms: C_1  and  N_2
REMARK    2  A    between atoms: C_11  and  C_25
REMARK    3  A    between atoms: C_13  and  C_21
REMARK    4  A    between atoms: C_13  and  C_23
REMARK    5  A    between atoms: C_14  and  N_20
REMARK    6  A    between atoms: C_15  and  C_18
REMARK                            x       y       z     vdW  Elec       q    Type
REMARK                         _______ _______ _______ _____ _____    ______ ____
ROOT
ATOM      1  C   UNL     1       0.500  -0.660  -1.186  0.00  0.00    +0.105 C 
ATOM      2  N   UNL     1       0.002  -0.004   0.002  0.00  0.00    -0.295 NA
ATOM      3  C   UNL     1       0.734  -0.345   1.249  0.00  0.00    +0.080 C 
ATOM      4  C   UNL     1       0.189   0.662   2.288  0.00  0.00    +0.024 C 
ATOM      5  C   UNL     1      -0.562   1.728   1.456  0.00  0.00    +0.021 C 
ATOM      6  C   UNL     1      -0.018   1.468   0.010  0.00  0.00    +0.065 C 
ATOM      7  C   UNL     1       1.369   2.090   0.000  0.00  0.00    +0.047 C 
ATOM      8  C   UNL     1       1.697   2.864  -1.261  0.00  0.00    +0.068 C 
ATOM      9  C   UNL     1       3.038   3.587  -1.116  0.00  0.00    +0.188 C 
ATOM     10  C   UNL     1       4.108   2.682  -0.592  0.00  0.00    +0.054 C 
ATOM     11  C   UNL     1       3.864   1.538   0.102  0.00  0.00    +0.074 C 
ATOM     12  C   UNL     1       2.467   1.140   0.380  0.00  0.00    -0.026 C 
ATOM     13  C   UNL     1       2.188  -0.017   0.966  0.00  0.00    -0.003 C 
ENDROOT
BRANCH   8  14
ATOM     14  C   UNL     1       1.755   1.977  -2.478  0.00  0.00    -0.039 A 
ATOM     15  C   UNL     1       2.703   0.975  -2.558  0.00  0.00    +0.004 A 
ATOM     16  C   UNL     1       2.754   0.158  -3.672  0.00  0.00    +0.002 A 
ATOM     17  C   UNL     1       1.863   0.350  -4.711  0.00  0.00    +0.020 A 
ATOM     18  C   UNL     1       0.917   1.356  -4.634  0.00  0.00    +0.041 A 
ATOM     19  C   UNL     1       0.863   2.170  -3.516  0.00  0.00    +0.024 A 
ATOM     20 CL   UNL     1      -0.202   1.598  -5.939  0.00  0.00    -0.084 Cl
ENDBRANCH   8  14
BRANCH  10  21
ATOM     21  N   UNL     1       5.411   3.024  -0.824  0.00  0.00    -0.358 N 
ATOM     22  H   UNL     1       6.223   2.381  -0.453  0.00  0.00    +0.142 HD
ATOM     23  H   UNL     1       5.648   3.942  -1.381  0.00  0.00    +0.142 HD
ENDBRANCH  10  21
BRANCH  11  24
ATOM     24  C   UNL     1       4.971   0.747   0.555  0.00  0.00    +0.101 C 
ATOM     25  N   UNL     1       5.847   0.119   0.914  0.00  0.00    -0.191 NA
ENDBRANCH  11  24
BRANCH   9  26
ATOM     26  C   UNL     1       2.888   4.742  -0.220  0.00  0.00    +0.091 C 
ATOM     27  N   UNL     1       2.772   5.635   0.473  0.00  0.00    -0.194 NA
ENDBRANCH   9  26
BRANCH   9  28
ATOM     28  C   UNL     1       3.448   4.077  -2.446  0.00  0.00    +0.091 C 
ATOM     29  N   UNL     1       3.764   4.454  -3.470  0.00  0.00    -0.194 NA
ENDBRANCH   9  28
TORSDOF 5
