REMARK  Name = ZINC03196301
REMARK  11 active torsions:
REMARK  status: ('A' for Active; 'I' for Inactive)
REMARK    1  A    between atoms: C_1  and  C_2
REMARK    2  A    between atoms: C_4  and  N_13
REMARK    3  A    between atoms: N_5  and  C_7
REMARK    4  A    between atoms: N_13  and  P_14
REMARK    5  A    between atoms: C_17  and  C_40
REMARK    6  A    between atoms: N_19  and  C_36
REMARK    7  A    between atoms: C_25  and  C_34
REMARK    8  A    between atoms: C_25  and  C_35
REMARK    9  A    between atoms: N_32  and  C_33
REMARK   10  A    between atoms: C_36  and  C_37
REMARK   11  A    between atoms: C_37  and  C_38
REMARK                            x       y       z     vdW  Elec       q    Type
REMARK                         _______ _______ _______ _____ _____    ______ ____
ROOT
ATOM      1  P   UNL     1      -0.330  -2.723  -3.577  0.00  0.00    +0.074 P 
ATOM      2  S   UNL     1      -1.973  -1.953  -4.002  0.00  0.00    -0.036 S 
ATOM      3  C   UNL     1       1.015  -1.639  -4.183  0.00  0.00    +0.069 A 
ATOM      4  C   UNL     1       1.425  -0.349  -3.971  0.00  0.00    +0.072 A 
ATOM      5  N   UNL     1       2.487  -0.131  -4.713  0.00  0.00    -0.174 NA
ATOM      6  N   UNL     1       2.788  -1.296  -5.429  0.00  0.00    -0.245 N 
ATOM      7  C   UNL     1       1.866  -2.255  -5.103  0.00  0.00    +0.161 A 
ATOM      8  N   UNL     1       1.694  -3.526  -5.493  0.00  0.00    -0.235 NA
ATOM      9  C   UNL     1       0.879  -4.488  -5.252  0.00  0.00    +0.125 C 
ATOM     10  C   UNL     1      -0.226  -4.397  -4.349  0.00  0.00    +0.039 C 
ATOM     11  C   UNL     1      -1.085  -5.407  -4.094  0.00  0.00    +0.032 C 
ATOM     12  C   UNL     1      -1.166  -6.731  -4.825  0.00  0.00    +0.031 C 
ATOM     13  C   UNL     1      -2.288  -7.470  -4.133  0.00  0.00    -0.015 A 
ATOM     14  C   UNL     1      -2.844  -8.714  -4.330  0.00  0.00    +0.006 A 
ATOM     15  C   UNL     1      -3.887  -9.140  -3.526  0.00  0.00    +0.000 A 
ATOM     16  C   UNL     1      -4.367  -8.314  -2.526  0.00  0.00    +0.002 A 
ATOM     17  C   UNL     1      -3.813  -7.067  -2.326  0.00  0.00    +0.024 A 
ATOM     18  C   UNL     1      -2.761  -6.631  -3.132  0.00  0.00    +0.038 A 
ATOM     19  N   UNL     1      -2.046  -5.435  -3.120  0.00  0.00    -0.305 N 
ATOM     20  C   UNL     1      -2.295  -4.338  -2.181  0.00  0.00    +0.135 C 
ATOM     21  C   UNL     1       0.149  -7.500  -4.686  0.00  0.00    +0.022 C 
ATOM     22  C   UNL     1      -1.503  -6.507  -6.301  0.00  0.00    +0.022 C 
ATOM     23  C   UNL     1       0.771   0.647  -3.048  0.00  0.00    +0.068 C 
ENDROOT
BRANCH   1  24
ATOM     24  N   UNL     1      -0.210  -2.872  -1.948  0.00  0.00    -0.297 N 
ATOM     25  H   UNL     1      -0.920  -2.541  -1.377  0.00  0.00    +0.153 HD
BRANCH  24  29
ATOM     26  C   UNL     1       4.134  -5.271  -1.435  0.00  0.00    +0.065 C 
ATOM     27  C   UNL     1       2.852  -4.543  -1.123  0.00  0.00    +0.033 A 
ATOM     28  C   UNL     1       1.932  -4.070  -2.063  0.00  0.00    +0.066 A 
ATOM     29  C   UNL     1       0.912  -3.473  -1.386  0.00  0.00    +0.124 A 
ATOM     30  N   UNL     1       1.192  -3.573  -0.057  0.00  0.00    -0.241 N 
ATOM     31  N   UNL     1       2.410  -4.252   0.074  0.00  0.00    -0.296 N 
ATOM     32  H   UNL     1       2.852  -4.468   0.910  0.00  0.00    +0.187 HD
BRANCH  30  33
ATOM     33  C   UNL     1       0.400  -3.087   0.992  0.00  0.00    +0.065 A 
ATOM     34  C   UNL     1      -0.150  -1.815   0.917  0.00  0.00    +0.028 A 
ATOM     35  C   UNL     1      -0.931  -1.339   1.952  0.00  0.00    +0.002 A 
ATOM     36  C   UNL     1      -1.164  -2.128   3.063  0.00  0.00    +0.000 A 
ATOM     37  C   UNL     1      -0.617  -3.396   3.141  0.00  0.00    +0.002 A 
ATOM     38  C   UNL     1       0.160  -3.880   2.107  0.00  0.00    +0.028 A 
ENDBRANCH  30  33
ENDBRANCH  24  29
ENDBRANCH   1  24
BRANCH   6  39
ATOM     39  C   UNL     1       3.900  -1.462  -6.368  0.00  0.00    +0.160 C 
BRANCH  39  40
ATOM     40  C   UNL     1       5.133  -1.967  -5.615  0.00  0.00    +0.142 C 
BRANCH  40  41
ATOM     41  C   UNL     1       6.250  -2.133  -6.558  0.00  0.00    +0.064 C 
ATOM     42  N   UNL     1       7.113  -2.262  -7.286  0.00  0.00    -0.197 NA
ENDBRANCH  40  41
ENDBRANCH  39  40
ENDBRANCH   6  39
TORSDOF 6
