REMARK  Name = ZINC14979257
REMARK  6 active torsions:
REMARK  status: ('A' for Active; 'I' for Inactive)
REMARK    1  A    between atoms: C_1  and  S_2
REMARK    2  A    between atoms: S_2  and  C_3
REMARK    3  A    between atoms: C_6  and  N_9
REMARK    4  A    between atoms: C_10  and  C_12
REMARK    5  A    between atoms: C_21  and  C_23
REMARK    6  A    between atoms: N_28  and  C_30
REMARK                            x       y       z     vdW  Elec       q    Type
REMARK                         _______ _______ _______ _____ _____    ______ ____
ROOT
ATOM      1  C   UNL     1      -6.079   9.019   2.267  0.00  0.00    +0.082 C 
ATOM      2  C   UNL     1      -6.225   8.921   0.747  0.00  0.00    +0.021 C 
ATOM      3  C   UNL     1      -5.115   8.150   1.460  0.00  0.00    -0.015 C 
ATOM      4  C   UNL     1      -3.678   8.651   1.289  0.00  0.00    +0.026 C 
ATOM      5  C   UNL     1      -3.057   7.961   0.068  0.00  0.00    +0.108 C 
ATOM      6  N   UNL     1      -3.251   6.511   0.195  0.00  0.00    -0.301 N 
ATOM      7  C   UNL     1      -4.612   5.979   0.339  0.00  0.00    +0.108 C 
ATOM      8  C   UNL     1      -5.264   6.629   1.571  0.00  0.00    +0.026 C 
ATOM      9  C   UNL     1      -2.192   5.677   0.173  0.00  0.00    +0.220 C 
ATOM     10  O   UNL     1      -1.066   6.128   0.149  0.00  0.00    -0.275 OA
ENDROOT
BRANCH   9  11
ATOM     11  C   UNL     1      -2.407   4.186   0.178  0.00  0.00    +0.092 C 
ATOM     12  C   UNL     1      -1.319   3.509  -0.660  0.00  0.00    +0.016 C 
ATOM     13  C   UNL     1      -1.510   1.991  -0.600  0.00  0.00    +0.020 C 
ATOM     14  C   UNL     1      -1.465   1.533   0.859  0.00  0.00    +0.106 C 
ATOM     15  N   UNL     1      -2.525   2.208   1.619  0.00  0.00    -0.316 N 
ATOM     16  C   UNL     1      -2.336   3.664   1.615  0.00  0.00    +0.119 C 
BRANCH  15  17
ATOM     17  C   UNL     1      -2.597   1.718   2.917  0.00  0.00    +0.099 A 
ATOM     18  C   UNL     1      -2.776   0.355   3.131  0.00  0.00    +0.042 A 
ATOM     19  C   UNL     1      -2.840  -0.120   4.428  0.00  0.00    +0.005 A 
ATOM     20  C   UNL     1      -2.722   0.788   5.473  0.00  0.00    +0.018 A 
ATOM     21  C   UNL     1      -2.546   2.127   5.188  0.00  0.00    +0.084 A 
ATOM     22  N   UNL     1      -2.479   2.629   3.926  0.00  0.00    -0.350 N 
ATOM     23  H   UNL     1      -2.348   3.631   3.744  0.00  0.00    +0.166 HD
ENDBRANCH  15  17
ENDBRANCH   9  11
BRANCH   1  25
ATOM     24  N   UNL     1      -6.864   8.078   4.416  0.00  0.00    -0.285 N 
ATOM     25  C   UNL     1      -7.109   8.315   3.112  0.00  0.00    +0.221 C 
ATOM     26  O   UNL     1      -8.160   7.962   2.619  0.00  0.00    -0.275 OA
ATOM     27  H   UNL     1      -5.998   8.299   4.795  0.00  0.00    +0.155 HD
BRANCH  24  31
ATOM     28  C   UNL     1      -9.823   6.391   6.823  0.00  0.00    +0.008 A 
ATOM     29  C   UNL     1      -9.709   6.010   5.492  0.00  0.00    +0.016 A 
ATOM     30  C   UNL     1      -8.729   6.568   4.696  0.00  0.00    +0.024 A 
ATOM     31  C   UNL     1      -7.858   7.511   5.225  0.00  0.00    +0.033 A 
ATOM     32  C   UNL     1      -7.968   7.888   6.557  0.00  0.00    +0.024 A 
ATOM     33  C   UNL     1      -8.950   7.334   7.352  0.00  0.00    +0.016 A 
BRANCH  28  35
ATOM     34  C   UNL     1     -10.829   6.469   9.454  0.00  0.00    +0.090 C 
ATOM     35  S   UNL     1     -11.072   5.678   7.840  0.00  0.00    -0.129 S 
ENDBRANCH  28  35
ENDBRANCH  24  31
ENDBRANCH   1  25
TORSDOF 5
