REMARK  Name = ZINC09193548
REMARK  10 active torsions:
REMARK  status: ('A' for Active; 'I' for Inactive)
REMARK    1  A    between atoms: C_1  and  C_2
REMARK    2  A    between atoms: C_2  and  C_3
REMARK    3  A    between atoms: C_2  and  C_4
REMARK    4  A    between atoms: C_2  and  C_5
REMARK    5  A    between atoms: C_10  and  N_11
REMARK    6  A    between atoms: C_12  and  C_14
REMARK    7  A    between atoms: C_14  and  N_15
REMARK    8  A    between atoms: C_18  and  C_22
REMARK    9  A    between atoms: C_18  and  C_29
REMARK   10  A    between atoms: C_22  and  C_23
REMARK                            x       y       z     vdW  Elec       q    Type
REMARK                         _______ _______ _______ _____ _____    ______ ____
ROOT
ATOM      1  N   UNL     1       4.032  -2.968   1.188  0.00  0.00    -0.215 N 
ATOM      2  C   UNL     1       3.853  -1.636   1.052  0.00  0.00    +0.252 C 
ATOM      3  O   UNL     1       4.010  -0.783   1.898  0.00  0.00    -0.272 OA
ATOM      4  C   UNL     1       3.411  -1.431  -0.384  0.00  0.00    +0.142 C 
ATOM      5  N   UNL     1       3.394  -2.794  -0.943  0.00  0.00    -0.281 N 
ATOM      6  C   UNL     1       3.771  -3.621   0.049  0.00  0.00    +0.310 C 
ATOM      7  O   UNL     1       3.863  -4.827  -0.075  0.00  0.00    -0.252 OA
ATOM      8  H   UNL     1       3.157  -3.046  -1.849  0.00  0.00    +0.152 HD
ENDROOT
BRANCH   4   9
ATOM      9  C   UNL     1       2.034  -0.821  -0.433  0.00  0.00    -0.015 A 
ATOM     10  C   UNL     1       0.916  -1.633  -0.404  0.00  0.00    +0.006 A 
ATOM     11  C   UNL     1      -0.347  -1.074  -0.449  0.00  0.00    +0.000 A 
ATOM     12  C   UNL     1      -0.492   0.299  -0.522  0.00  0.00    +0.000 A 
ATOM     13  C   UNL     1       0.626   1.112  -0.551  0.00  0.00    +0.000 A 
ATOM     14  C   UNL     1       1.889   0.552  -0.507  0.00  0.00    +0.006 A 
ENDBRANCH   4   9
BRANCH   1  15
ATOM     15  C   UNL     1       4.463  -3.618   2.428  0.00  0.00    +0.214 C 
BRANCH  15  17
ATOM     16  N   UNL     1       6.593  -4.257   3.512  0.00  0.00    -0.284 N 
ATOM     17  C   UNL     1       5.968  -3.695   2.458  0.00  0.00    +0.235 C 
ATOM     18  O   UNL     1       6.617  -3.252   1.534  0.00  0.00    -0.274 OA
ATOM     19  H   UNL     1       6.082  -4.532   4.289  0.00  0.00    +0.155 HD
BRANCH  16  25
ATOM     20  C   UNL     1       8.612  -5.114   4.523  0.00  0.00    -0.021 A 
ATOM     21  C   UNL     1       9.980  -5.301   4.491  0.00  0.00    +0.006 A 
ATOM     22  C   UNL     1      10.721  -4.811   3.432  0.00  0.00    +0.000 A 
ATOM     23  C   UNL     1      10.095  -4.137   2.399  0.00  0.00    +0.002 A 
ATOM     24  C   UNL     1       8.727  -3.952   2.422  0.00  0.00    +0.023 A 
ATOM     25  C   UNL     1       7.980  -4.443   3.485  0.00  0.00    +0.037 A 
BRANCH  20  27
ATOM     26  C   UNL     1       8.733  -6.364   6.661  0.00  0.00    +0.015 C 
ATOM     27  C   UNL     1       7.805  -5.643   5.681  0.00  0.00    -0.011 C 
ATOM     28  C   UNL     1       7.113  -4.480   6.394  0.00  0.00    +0.015 C 
ATOM     29  C   UNL     1       6.751  -6.623   5.162  0.00  0.00    +0.015 C 
ENDBRANCH  20  27
ENDBRANCH  16  25
ENDBRANCH  15  17
ENDBRANCH   1  15
BRANCH   4  30
ATOM     30  C   UNL     1       4.414  -0.554  -1.136  0.00  0.00    +0.075 C 
BRANCH  30  31
ATOM     31  C   UNL     1       5.753  -1.244  -1.177  0.00  0.00    -0.045 A 
ATOM     32  C   UNL     1       6.675  -1.025  -0.171  0.00  0.00    +0.004 A 
ATOM     33  C   UNL     1       7.902  -1.662  -0.207  0.00  0.00    +0.000 A 
ATOM     34  C   UNL     1       8.210  -2.511  -1.253  0.00  0.00    +0.000 A 
ATOM     35  C   UNL     1       7.289  -2.726  -2.262  0.00  0.00    +0.000 A 
ATOM     36  C   UNL     1       6.061  -2.093  -2.224  0.00  0.00    +0.004 A 
ENDBRANCH  30  31
ENDBRANCH   4  30
TORSDOF 7
