REMARK  Name = ZINC59122074
REMARK  16 active torsions:
REMARK  status: ('A' for Active; 'I' for Inactive)
REMARK    1  A    between atoms: C_1  and  C_2
REMARK    2  A    between atoms: C_2  and  C_3
REMARK    3  A    between atoms: C_3  and  C_4
REMARK    4  A    between atoms: C_4  and  N_5
REMARK    5  A    between atoms: C_6  and  C_23
REMARK    6  A    between atoms: C_9  and  S_10
REMARK    7  A    between atoms: S_10  and  C_11
REMARK    8  A    between atoms: C_11  and  C_12
REMARK    9  A    between atoms: C_12  and  O_13
REMARK   10  A    between atoms: O_13  and  C_14
REMARK   11  A    between atoms: C_20  and  C_22
REMARK   12  A    between atoms: C_23  and  C_25
REMARK   13  A    between atoms: C_23  and  N_27
REMARK   14  A    between atoms: C_25  and  C_26
REMARK   15  A    between atoms: N_27  and  C_28
REMARK   16  A    between atoms: N_27  and  C_29
REMARK                            x       y       z     vdW  Elec       q    Type
REMARK                         _______ _______ _______ _____ _____    ______ ____
ROOT
ATOM      1  N   UNL     1       0.779  -3.140  -1.915  0.00  0.00    -0.307 N 
ATOM      2  C   UNL     1       0.540  -3.055  -3.258  0.00  0.00    +0.120 A 
ATOM      3  N   UNL     1       1.682  -3.210  -3.866  0.00  0.00    -0.135 NA
ATOM      4  N   UNL     1       2.620  -3.386  -3.005  0.00  0.00    -0.123 NA
ATOM      5  C   UNL     1       2.123  -3.347  -1.790  0.00  0.00    +0.192 A 
ENDROOT
BRANCH   1   6
ATOM      6  C   UNL     1      -0.202  -3.027  -0.833  0.00  0.00    +0.125 C 
BRANCH   6   7
ATOM      7  C   UNL     1      -0.328  -1.562  -0.410  0.00  0.00    +0.021 C 
BRANCH   7   9
ATOM      8  C   UNL     1      -1.478   0.022   1.143  0.00  0.00    +0.004 C 
ATOM      9  C   UNL     1      -1.353  -1.443   0.720  0.00  0.00    -0.002 C 
ENDBRANCH   7   9
ENDBRANCH   6   7
ENDBRANCH   1   6
BRANCH   5  10
ATOM     10  S   UNL     1       3.020  -3.532  -0.285  0.00  0.00    -0.084 S 
BRANCH  10  11
ATOM     11  C   UNL     1       4.735  -3.774  -0.823  0.00  0.00    +0.105 C 
BRANCH  11  12
ATOM     12  C   UNL     1       5.634  -3.949   0.403  0.00  0.00    +0.171 C 
BRANCH  12  13
ATOM     13  O   UNL     1       6.985  -4.140  -0.021  0.00  0.00    -0.375 OA
BRANCH  13  14
ATOM     14  C   UNL     1       7.912  -4.314   1.053  0.00  0.00    +0.121 C 
ATOM     15  C   UNL     1       8.027  -5.803   1.390  0.00  0.00    +0.032 C 
ATOM     16  C   UNL     1       8.521  -6.567   0.160  0.00  0.00    +0.003 C 
ATOM     17  C   UNL     1       9.892  -6.031  -0.257  0.00  0.00    +0.000 C 
ATOM     18  C   UNL     1       9.777  -4.543  -0.594  0.00  0.00    +0.006 C 
ATOM     19  C   UNL     1       9.283  -3.779   0.636  0.00  0.00    +0.015 C 
ATOM     20  C   UNL     1       9.168  -2.291   0.299  0.00  0.00    +0.010 C 
ENDBRANCH  13  14
ENDBRANCH  12  13
ENDBRANCH  11  12
ENDBRANCH  10  11
ENDBRANCH   5  10
BRANCH   2  21
ATOM     21  C   UNL     1      -0.797  -2.825  -3.915  0.00  0.00    +0.000 C 
BRANCH  21  22
ATOM     22  N   UNL     1      -0.954  -3.752  -5.044  0.00  0.00    +0.383 N 
ATOM     23  C   UNL     1      -0.872  -5.135  -4.557  0.00  0.00    -0.096 C 
ATOM     24  C   UNL     1      -2.260  -3.532  -5.679  0.00  0.00    -0.096 C 
ATOM     25  H   UNL     1      -0.220  -3.588  -5.718  0.00  0.00    -0.082 HD
ENDBRANCH  21  22
BRANCH  21  26
ATOM     26  C   UNL     1      -0.874  -1.384  -4.423  0.00  0.00    -0.011 C 
ATOM     27  C   UNL     1       0.227  -1.149  -5.459  0.00  0.00    +0.002 C 
ENDBRANCH  21  26
ENDBRANCH   2  21
TORSDOF 11
