REMARK  Name = ZINC31544793
REMARK  10 active torsions:
REMARK  status: ('A' for Active; 'I' for Inactive)
REMARK    1  A    between atoms: C_1  and  C_2
REMARK    2  A    between atoms: C_2  and  C_4
REMARK    3  A    between atoms: C_2  and  N_12
REMARK    4  A    between atoms: N_12  and  C_13
REMARK    5  A    between atoms: C_13  and  C_14
REMARK    6  A    between atoms: C_14  and  C_16
REMARK    7  A    between atoms: C_14  and  O_27
REMARK    8  A    between atoms: C_16  and  P_17
REMARK    9  A    between atoms: P_17  and  C_19
REMARK   10  A    between atoms: C_19  and  C_20
REMARK                            x       y       z     vdW  Elec       q    Type
REMARK                         _______ _______ _______ _____ _____    ______ ____
ROOT
ATOM      1  C   UNL     1       2.100  -0.070  -1.159  0.00  0.00    -0.050 C 
ENDROOT
BRANCH   1   2
ATOM      2  N   UNL     1       0.690  -0.478  -1.207  0.00  0.00    +0.385 N 
ATOM      3  H   UNL     1       0.632  -1.484  -1.254  0.00  0.00    -0.085 HD
ATOM      4  H   UNL     1       0.251  -0.077  -2.022  0.00  0.00    -0.085 HD
BRANCH   2   6
ATOM      5  C   UNL     1      -0.019   1.526   0.010  0.00  0.00    -0.009 C 
ATOM      6  C   UNL     1       0.002  -0.004   0.002  0.00  0.00    -0.044 C 
BRANCH   6   7
ATOM      7  C   UNL     1      -1.412  -0.526   0.013  0.00  0.00    -0.060 A 
ATOM      8  C   UNL     1      -2.141  -0.569  -1.161  0.00  0.00    +0.003 A 
ATOM      9  C   UNL     1      -3.438  -1.046  -1.153  0.00  0.00    +0.021 A 
ATOM     10  C   UNL     1      -4.007  -1.482   0.031  0.00  0.00    +0.059 A 
ATOM     11  C   UNL     1      -3.276  -1.440   1.206  0.00  0.00    +0.059 A 
ATOM     12  C   UNL     1      -1.976  -0.966   1.195  0.00  0.00    +0.023 A 
ATOM     13 CL   UNL     1      -3.989  -1.986   2.692  0.00  0.00    -0.082 Cl
ATOM     14 CL   UNL     1      -5.636  -2.082   0.042  0.00  0.00    -0.082 Cl
ENDBRANCH   6   7
ENDBRANCH   2   6
ENDBRANCH   1   2
BRANCH   1  15
ATOM     15  C   UNL     1       2.816  -0.564  -2.418  0.00  0.00    +0.107 C 
BRANCH  15  16
ATOM     16  O   UNL     1       2.734  -1.989  -2.485  0.00  0.00    -0.393 OA
ATOM     17  H   UNL     1       3.137  -2.442  -1.731  0.00  0.00    +0.210 HD
ENDBRANCH  15  16
BRANCH  15  18
ATOM     18  C   UNL     1       4.285  -0.139  -2.368  0.00  0.00    +0.129 C 
BRANCH  18  19
ATOM     19  P   UNL     1       5.103  -0.596  -3.932  0.00  0.00    +0.240 P 
ATOM     20  O   UNL     1       4.325   0.015  -5.118  0.00  0.00    -0.288 OA
ATOM     21  O   UNL     1       5.127  -2.135  -4.071  0.00  0.00    -0.169 OA
BRANCH  19  22
ATOM     22  C   UNL     1       6.811   0.040  -3.933  0.00  0.00    +0.103 C 
BRANCH  22  23
ATOM     23  C   UNL     1       7.457  -0.234  -5.293  0.00  0.00    -0.002 C 
ATOM     24  C   UNL     1       7.815  -1.718  -5.397  0.00  0.00    +0.004 C 
ATOM     25  C   UNL     1       8.461  -1.992  -6.757  0.00  0.00    +0.000 C 
ATOM     26  C   UNL     1       9.730  -1.150  -6.899  0.00  0.00    +0.000 C 
ATOM     27  C   UNL     1       9.372   0.334  -6.794  0.00  0.00    +0.000 C 
ATOM     28  C   UNL     1       8.726   0.608  -5.434  0.00  0.00    +0.004 C 
ENDBRANCH  22  23
ENDBRANCH  19  22
ENDBRANCH  18  19
ENDBRANCH  15  18
ENDBRANCH   1  15
TORSDOF 9
