REMARK  Name = ZINC32753272
REMARK  6 active torsions:
REMARK  status: ('A' for Active; 'I' for Inactive)
REMARK    1  A    between atoms: C_4  and  O_7
REMARK    2  A    between atoms: O_7  and  C_8
REMARK    3  A    between atoms: C_13  and  N_14
REMARK    4  A    between atoms: N_14  and  C_15
REMARK    5  A    between atoms: C_15  and  C_16
REMARK    6  A    between atoms: N_18  and  N_19
REMARK                            x       y       z     vdW  Elec       q    Type
REMARK                         _______ _______ _______ _____ _____    ______ ____
ROOT
ATOM      1  C   UNL     1      -1.170   1.668   0.145  0.00  0.00    +0.247 C 
ATOM      2  O   UNL     1      -1.198   2.880   0.144  0.00  0.00    -0.273 OA
ATOM      3  N   UNL     1       0.013   1.021   0.170  0.00  0.00    -0.222 N 
ATOM      4  H   UNL     1       0.038  -0.079   0.175  0.00  0.00    +0.174 HD
ENDROOT
BRANCH   3   5
ATOM      5  N   UNL     1       1.209   1.750   0.189  0.00  0.00    -0.137 N 
ATOM      6  C   UNL     1       1.990   1.898   1.279  0.00  0.00    +0.263 C 
ATOM      7  O   UNL     1       1.797   1.443   2.386  0.00  0.00    -0.271 OA
ATOM      8  C   UNL     1       3.155   2.749   0.829  0.00  0.00    +0.114 C 
ATOM      9  C   UNL     1       4.464   1.984   0.987  0.00  0.00    +0.035 C 
ATOM     10  C   UNL     1       5.627   2.852   0.500  0.00  0.00    +0.003 C 
ATOM     11  C   UNL     1       5.672   4.146   1.314  0.00  0.00    +0.000 C 
ATOM     12  C   UNL     1       4.362   4.914   1.126  0.00  0.00    +0.003 C 
ATOM     13  C   UNL     1       3.194   4.055   1.615  0.00  0.00    +0.035 C 
ATOM     14  N   UNL     1       2.879   3.010  -0.590  0.00  0.00    -0.284 N 
ATOM     15  C   UNL     1       1.723   2.380  -0.875  0.00  0.00    +0.326 C 
ATOM     16  O   UNL     1       1.203   2.386  -1.973  0.00  0.00    -0.251 OA
ATOM     17  H   UNL     1       3.575   3.622  -1.182  0.00  0.00    +0.151 HD
ENDBRANCH   3   5
BRANCH   1  18
ATOM     18  C   UNL     1      -2.457   0.884   0.118  0.00  0.00    +0.199 C 
BRANCH  18  19
ATOM     19  N   UNL     1      -3.592   1.810   0.095  0.00  0.00    -0.333 N 
ATOM     20  H   UNL     1      -3.416   2.896   0.098  0.00  0.00    +0.147 HD
BRANCH  19  26
ATOM     21  C   UNL     1      -5.981   2.192   0.051  0.00  0.00    +0.149 A 
ATOM     22  C   UNL     1      -7.273   1.694   0.018  0.00  0.00    +0.048 A 
ATOM     23  C   UNL     1      -7.489   0.329   0.014  0.00  0.00    +0.004 A 
ATOM     24  C   UNL     1      -6.416  -0.544   0.037  0.00  0.00    +0.002 A 
ATOM     25  C   UNL     1      -5.124  -0.056   0.064  0.00  0.00    +0.026 A 
ATOM     26  C   UNL     1      -4.900   1.313   0.068  0.00  0.00    +0.070 A 
BRANCH  21  27
ATOM     27  O   UNL     1      -5.768   3.535   0.060  0.00  0.00    -0.454 OA
BRANCH  27  31
ATOM     28  C   UNL     1      -4.827   5.374  -3.511  0.00  0.00    +0.000 A 
ATOM     29  C   UNL     1      -4.803   6.099  -2.334  0.00  0.00    +0.004 A 
ATOM     30  C   UNL     1      -5.118   5.486  -1.137  0.00  0.00    +0.046 A 
ATOM     31  C   UNL     1      -5.458   4.141  -1.116  0.00  0.00    +0.129 A 
ATOM     32  C   UNL     1      -5.476   3.414  -2.298  0.00  0.00    +0.046 A 
ATOM     33  C   UNL     1      -5.166   4.033  -3.493  0.00  0.00    +0.004 A 
ENDBRANCH  27  31
ENDBRANCH  21  27
ENDBRANCH  19  26
ENDBRANCH  18  19
ENDBRANCH   1  18
TORSDOF 6
