REMARK  Name = ZINC13499405
REMARK  12 active torsions:
REMARK  status: ('A' for Active; 'I' for Inactive)
REMARK    1  A    between atoms: C_1  and  C_2
REMARK    2  A    between atoms: C_2  and  C_3
REMARK    3  A    between atoms: C_3  and  C_4
REMARK    4  A    between atoms: C_4  and  C_6
REMARK    5  A    between atoms: C_4  and  N_17
REMARK    6  A    between atoms: N_10  and  C_11
REMARK    7  A    between atoms: N_17  and  C_18
REMARK    8  A    between atoms: N_17  and  C_22
REMARK    9  A    between atoms: C_18  and  C_19
REMARK   10  A    between atoms: C_19  and  C_20
REMARK   11  A    between atoms: C_20  and  O_21
REMARK   12  A    between atoms: C_22  and  C_23
REMARK                            x       y       z     vdW  Elec       q    Type
REMARK                         _______ _______ _______ _____ _____    ______ ____
ROOT
ATOM      1  N   UNL     1      -0.707  -2.883  -1.707  0.00  0.00    -0.288 NA
ENDROOT
BRANCH   1   2
ATOM      2  C   UNL     1       0.411  -1.985  -1.385  0.00  0.00    +0.127 C 
BRANCH   2   3
ATOM      3  C   UNL     1       1.106  -2.475  -0.141  0.00  0.00    +0.169 A 
ATOM      4  N   UNL     1       1.283  -3.723   0.217  0.00  0.00    -0.112 NA
ATOM      5  N   UNL     1       1.919  -3.730   1.338  0.00  0.00    -0.023 NA
ATOM      6  N   UNL     1       2.152  -2.518   1.704  0.00  0.00    -0.044 NA
ATOM      7  N   UNL     1       1.671  -1.715   0.816  0.00  0.00    -0.225 N 
BRANCH   7   8
ATOM      8  C   UNL     1       1.727  -0.251   0.845  0.00  0.00    +0.111 C 
ATOM      9  C   UNL     1       3.182   0.206   0.734  0.00  0.00    +0.027 C 
ATOM     10  C   UNL     1       3.240   1.735   0.764  0.00  0.00    +0.002 C 
ATOM     11  C   UNL     1       2.645   2.242   2.079  0.00  0.00    +0.000 C 
ATOM     12  C   UNL     1       1.190   1.784   2.190  0.00  0.00    +0.002 C 
ATOM     13  C   UNL     1       1.132   0.256   2.160  0.00  0.00    +0.027 C 
ENDBRANCH   7   8
ENDBRANCH   2   3
BRANCH   2  14
ATOM     14  C   UNL     1       1.402  -1.967  -2.550  0.00  0.00    +0.026 C 
BRANCH  14  16
ATOM     15  C   UNL     1       1.747  -1.248  -4.918  0.00  0.00    +0.004 C 
ATOM     16  C   UNL     1       0.723  -1.381  -3.789  0.00  0.00    -0.001 C 
ENDBRANCH  14  16
ENDBRANCH   2  14
ENDBRANCH   1   2
BRANCH   1  17
ATOM     17  C   UNL     1      -0.251  -4.277  -1.802  0.00  0.00    +0.087 C 
BRANCH  17  18
ATOM     18  C   UNL     1      -1.313  -5.112  -2.520  0.00  0.00    +0.043 C 
BRANCH  18  19
ATOM     19  C   UNL     1      -0.887  -6.582  -2.526  0.00  0.00    +0.157 C 
BRANCH  19  20
ATOM     20  O   UNL     1      -1.879  -7.362  -3.197  0.00  0.00    -0.395 OA
ATOM     21  H   UNL     1      -1.675  -8.306  -3.239  0.00  0.00    +0.209 HD
ENDBRANCH  19  20
ENDBRANCH  18  19
ENDBRANCH  17  18
ENDBRANCH   1  17
BRANCH   1  22
ATOM     22  C   UNL     1      -1.790  -2.750  -0.724  0.00  0.00    +0.125 C 
BRANCH  22  23
ATOM     23  C   UNL     1      -2.564  -1.487  -0.998  0.00  0.00    +0.031 A 
ATOM     24  C   UNL     1      -3.683  -1.533  -1.766  0.00  0.00    +0.020 A 
ATOM     25  C   UNL     1      -4.413  -0.290  -2.014  0.00  0.00    +0.003 A 
ATOM     26  C   UNL     1      -5.572  -0.277  -2.799  0.00  0.00    +0.059 A 
ATOM     27  C   UNL     1      -6.240   0.909  -3.014  0.00  0.00    +0.163 A 
ATOM     28  C   UNL     1      -5.765   2.097  -2.451  0.00  0.00    +0.164 A 
ATOM     29  C   UNL     1      -4.618   2.094  -1.675  0.00  0.00    +0.075 A 
ATOM     30  C   UNL     1      -3.933   0.908  -1.449  0.00  0.00    +0.053 A 
ATOM     31  N   UNL     1      -2.789   0.886  -0.677  0.00  0.00    -0.322 N 
ATOM     32  H   UNL     1      -2.459   1.712  -0.289  0.00  0.00    +0.169 HD
ATOM     33  C   UNL     1      -2.128  -0.263  -0.452  0.00  0.00    +0.254 A 
ATOM     34  O   UNL     1      -1.123  -0.245   0.239  0.00  0.00    -0.268 OA
ATOM     35  O   UNL     1      -6.423   3.271  -2.652  0.00  0.00    -0.485 OA
ATOM     36  C   UNL     1      -7.355   3.309  -3.737  0.00  0.00    +0.270 C 
ATOM     37  C   UNL     1      -8.223   2.046  -3.671  0.00  0.00    +0.270 C 
ATOM     38  O   UNL     1      -7.365   0.906  -3.783  0.00  0.00    -0.485 OA
ENDBRANCH  22  23
ENDBRANCH   1  22
TORSDOF 11
