REMARK  Name = ZINC09790144
REMARK  9 active torsions:
REMARK  status: ('A' for Active; 'I' for Inactive)
REMARK    1  A    between atoms: C_1  and  C_2
REMARK    2  A    between atoms: C_2  and  C_3
REMARK    3  A    between atoms: C_2  and  N_4
REMARK    4  A    between atoms: C_9  and  C_19
REMARK    5  A    between atoms: C_11  and  C_13
REMARK    6  A    between atoms: N_21  and  C_22
REMARK    7  A    between atoms: C_22  and  C_23
REMARK    8  A    between atoms: C_23  and  C_25
REMARK    9  A    between atoms: C_23  and  N_62
REMARK                            x       y       z     vdW  Elec       q    Type
REMARK                         _______ _______ _______ _____ _____    ______ ____
ROOT
ATOM      1  N   UNL     1       1.199   3.000   2.883  0.00  0.00    -0.244 N 
ATOM      2  C   UNL     1       0.379   2.044   3.427  0.00  0.00    +0.160 A 
ATOM      3  C   UNL     1      -0.395   2.698   4.408  0.00  0.00    +0.051 A 
ATOM      4  C   UNL     1       0.001   4.052   4.415  0.00  0.00    +0.145 A 
ATOM      5  N   UNL     1       0.937   4.216   3.524  0.00  0.00    -0.177 NA
ATOM      6  C   UNL     1      -1.344   1.953   5.145  0.00  0.00    +0.051 A 
ATOM      7  C   UNL     1      -1.469   0.597   4.862  0.00  0.00    +0.042 A 
ATOM      8  C   UNL     1      -0.663   0.027   3.873  0.00  0.00    +0.074 A 
ATOM      9  N   UNL     1       0.217   0.750   3.200  0.00  0.00    -0.228 NA
ENDROOT
BRANCH   8  10
ATOM     10  C   UNL     1      -0.796  -1.419   3.572  0.00  0.00    +0.000 A 
ATOM     11  C   UNL     1      -1.714  -2.198   4.274  0.00  0.00    +0.010 A 
ATOM     12  C   UNL     1      -1.837  -3.542   3.986  0.00  0.00    +0.001 A 
ATOM     13  C   UNL     1      -1.045  -4.118   3.009  0.00  0.00    +0.000 A 
ATOM     14  C   UNL     1      -0.129  -3.351   2.312  0.00  0.00    +0.001 A 
ATOM     15  C   UNL     1      -0.001  -2.005   2.589  0.00  0.00    +0.010 A 
ENDBRANCH   8  10
BRANCH   6  16
ATOM     16  C   UNL     1      -2.178   2.595   6.184  0.00  0.00    +0.245 C 
ATOM     17  O   UNL     1      -2.052   3.781   6.416  0.00  0.00    -0.270 OA
ATOM     18  N   UNL     1      -3.076   1.865   6.874  0.00  0.00    -0.312 N 
ATOM     19  H   UNL     1      -3.176   0.918   6.689  0.00  0.00    +0.149 HD
BRANCH  18  20
ATOM     20  C   UNL     1      -3.901   2.501   7.903  0.00  0.00    +0.097 C 
BRANCH  20  21
ATOM     21  C   UNL     1      -4.830   1.458   8.529  0.00  0.00    +0.016 C 
BRANCH  21  26
ATOM     22  C   UNL     1      -2.943   0.806   9.922  0.00  0.00    -0.078 C 
ATOM     23  C   UNL     1      -2.577  -0.459  10.740  0.00  0.00    -0.020 C 
ATOM     24  C   UNL     1      -3.950  -1.132  10.967  0.00  0.00    -0.020 C 
ATOM     25  C   UNL     1      -4.859  -0.577   9.855  0.00  0.00    -0.078 C 
ATOM     26  N   UNL     1      -4.023   0.315   9.052  0.00  0.00    +0.387 N 
ATOM     27  H   UNL     1      -3.622  -0.203   8.261  0.00  0.00    -0.081 HD
ENDBRANCH  21  26
BRANCH  21  28
ATOM     28  C   UNL     1      -5.591   2.083   9.670  0.00  0.00    +0.093 A 
ATOM     29  C   UNL     1      -6.896   2.409   9.660  0.00  0.00    +0.043 A 
ATOM     30  C   UNL     1      -7.190   2.962  10.928  0.00  0.00    +0.041 A 
ATOM     31  C   UNL     1      -6.045   2.948  11.633  0.00  0.00    +0.195 A 
ATOM     32  O   UNL     1      -5.080   2.415  10.867  0.00  0.00    -0.469 OA
ENDBRANCH  21  28
ENDBRANCH  20  21
ENDBRANCH  18  20
ENDBRANCH   6  16
BRANCH   1  34
ATOM     33  C   UNL     1       3.578   3.146   2.334  0.00  0.00    +0.032 C 
ATOM     34  C   UNL     1       2.183   2.783   1.820  0.00  0.00    +0.103 C 
ATOM     35  C   UNL     1       1.838   3.664   0.618  0.00  0.00    +0.032 C 
ENDBRANCH   1  34
TORSDOF 7
