REMARK  Name = ZINC36909420
REMARK  11 active torsions:
REMARK  status: ('A' for Active; 'I' for Inactive)
REMARK    1  A    between atoms: C_1  and  C_2
REMARK    2  A    between atoms: C_2  and  C_4
REMARK    3  A    between atoms: N_12  and  C_13
REMARK    4  A    between atoms: C_13  and  C_14
REMARK    5  A    between atoms: C_14  and  N_15
REMARK    6  A    between atoms: N_15  and  C_16
REMARK    7  A    between atoms: N_15  and  C_19
REMARK    8  A    between atoms: C_16  and  C_17
REMARK    9  A    between atoms: C_16  and  C_18
REMARK   10  A    between atoms: C_19  and  C_20
REMARK   11  A    between atoms: C_19  and  C_21
REMARK                            x       y       z     vdW  Elec       q    Type
REMARK                         _______ _______ _______ _____ _____    ______ ____
ROOT
ATOM      1  C   UNL     1       1.322   2.326  -2.161  0.00  0.00    +0.128 A 
ATOM      2  N   UNL     1       0.702   3.234  -1.464  0.00  0.00    -0.231 NA
ATOM      3  C   UNL     1       0.866   2.984  -0.140  0.00  0.00    +0.089 A 
ATOM      4  C   UNL     1       0.427   3.623   1.023  0.00  0.00    +0.030 A 
ATOM      5  C   UNL     1       0.766   3.118   2.246  0.00  0.00    +0.002 A 
ATOM      6  C   UNL     1       1.543   1.973   2.349  0.00  0.00    +0.002 A 
ATOM      7  C   UNL     1       1.987   1.326   1.215  0.00  0.00    +0.028 A 
ATOM      8  C   UNL     1       1.653   1.825  -0.037  0.00  0.00    +0.069 A 
ATOM      9  N   UNL     1       1.921   1.429  -1.332  0.00  0.00    -0.328 N 
ENDROOT
BRANCH   1  11
ATOM     10  C   UNL     1       2.328   3.341  -4.187  0.00  0.00    +0.033 C 
ATOM     11  C   UNL     1       1.365   2.273  -3.666  0.00  0.00    +0.143 C 
ATOM     12 CL   UNL     1      -0.285   2.579  -4.326  0.00  0.00    -0.114 Cl
ENDBRANCH   1  11
BRANCH   9  13
ATOM     13  C   UNL     1       2.706   0.261  -1.738  0.00  0.00    +0.105 C 
BRANCH  13  14
ATOM     14  C   UNL     1       4.177   0.658  -1.875  0.00  0.00    -0.056 C 
BRANCH  14  15
ATOM     15  N   UNL     1       4.938  -0.466  -2.436  0.00  0.00    +0.384 N 
ATOM     16  H   UNL     1       4.453  -0.832  -3.241  0.00  0.00    -0.081 HD
BRANCH  15  17
ATOM     17  C   UNL     1       6.273  -0.002  -2.838  0.00  0.00    -0.074 C 
ATOM     18  C   UNL     1       7.115  -1.197  -3.287  0.00  0.00    -0.014 C 
ATOM     19  C   UNL     1       6.140   0.991  -3.995  0.00  0.00    -0.014 C 
ENDBRANCH  15  17
BRANCH  15  20
ATOM     20  C   UNL     1       5.072  -1.521  -1.423  0.00  0.00    -0.074 C 
ATOM     21  C   UNL     1       5.466  -0.895  -0.084  0.00  0.00    -0.014 C 
ATOM     22  C   UNL     1       3.737  -2.253  -1.270  0.00  0.00    -0.014 C 
ENDBRANCH  15  20
ENDBRANCH  14  15
ENDBRANCH  13  14
ENDBRANCH   9  13
TORSDOF 6
