REMARK  Name = ZINC33810266
REMARK  7 active torsions:
REMARK  status: ('A' for Active; 'I' for Inactive)
REMARK    1  A    between atoms: C_1  and  C_2
REMARK    2  A    between atoms: C_2  and  C_3
REMARK    3  A    between atoms: C_6  and  C_9
REMARK    4  A    between atoms: C_14  and  S_18
REMARK    5  A    between atoms: S_18  and  C_19
REMARK    6  A    between atoms: C_19  and  C_20
REMARK    7  A    between atoms: C_23  and  C_26
REMARK                            x       y       z     vdW  Elec       q    Type
REMARK                         _______ _______ _______ _____ _____    ______ ____
ROOT
ATOM      1  C   UNL     1       1.260  -2.152  -0.029  0.00  0.00    +0.092 C 
ATOM      2  C   UNL     1       1.197  -0.654  -0.013  0.00  0.00    +0.069 A 
ATOM      3  C   UNL     1       0.002  -0.004   0.002  0.00  0.00    +0.135 A 
ATOM      4  N   UNL     1      -0.017   1.366   0.010  0.00  0.00    -0.208 NA
ATOM      5  C   UNL     1       1.153   2.065   0.002  0.00  0.00    +0.171 A 
ATOM      6  N   UNL     1       2.316   1.447  -0.010  0.00  0.00    -0.302 N 
ATOM      7  C   UNL     1       2.386   0.107  -0.017  0.00  0.00    +0.258 A 
ATOM      8  O   UNL     1       3.473  -0.452  -0.025  0.00  0.00    -0.267 OA
ATOM      9  N   UNL     1      -1.174  -0.717   0.014  0.00  0.00    -0.302 N 
ATOM     10  C   UNL     1      -1.188  -2.030   0.400  0.00  0.00    +0.017 C 
ATOM     11  C   UNL     1      -0.052  -2.760   0.398  0.00  0.00    +0.024 C 
ATOM     12  C   UNL     1      -0.059  -4.110   0.790  0.00  0.00    +0.162 C 
ATOM     13  O   UNL     1       0.984  -4.734   0.795  0.00  0.00    -0.292 OA
ATOM     14  C   UNL     1      -1.332  -4.797   1.203  0.00  0.00    +0.080 C 
ATOM     15  C   UNL     1      -2.512  -4.129   0.491  0.00  0.00    +0.014 C 
ATOM     16  C   UNL     1      -2.501  -2.637   0.829  0.00  0.00    +0.051 C 
ATOM     17  H   UNL     1      -2.114  -0.233  -0.289  0.00  0.00    +0.153 HD
ATOM     18  H   UNL     1       3.249   2.030  -0.015  0.00  0.00    +0.171 HD
ENDROOT
BRANCH   1  22
ATOM     19  C   UNL     1       2.187  -3.468  -3.986  0.00  0.00    -0.048 A 
ATOM     20  C   UNL     1       3.049  -3.753  -2.943  0.00  0.00    +0.004 A 
ATOM     21  C   UNL     1       2.749  -3.327  -1.663  0.00  0.00    +0.005 A 
ATOM     22  C   UNL     1       1.587  -2.616  -1.425  0.00  0.00    -0.035 A 
ATOM     23  C   UNL     1       0.723  -2.336  -2.467  0.00  0.00    +0.005 A 
ATOM     24  C   UNL     1       1.026  -2.757  -3.748  0.00  0.00    +0.004 A 
BRANCH  19  26
ATOM     25  C   UNL     1       1.921  -5.324  -5.609  0.00  0.00    +0.009 C 
ATOM     26  C   UNL     1       2.515  -3.932  -5.382  0.00  0.00    +0.032 C 
ENDBRANCH  19  26
ENDBRANCH   1  22
BRANCH   5  27
ATOM     27  S   UNL     1       1.109   3.826   0.008  0.00  0.00    -0.083 S 
BRANCH  27  28
ATOM     28  C   UNL     1       2.883   4.185  -0.005  0.00  0.00    +0.112 C 
BRANCH  28  29
ATOM     29  C   UNL     1       3.094   5.677  -0.002  0.00  0.00    -0.037 A 
ATOM     30  C   UNL     1       3.186   6.365  -1.198  0.00  0.00    +0.005 A 
ATOM     31  C   UNL     1       3.375   7.734  -1.195  0.00  0.00    +0.003 A 
ATOM     32  C   UNL     1       3.481   8.415   0.004  0.00  0.00    -0.050 A 
ATOM     33  C   UNL     1       3.393   7.727   1.199  0.00  0.00    +0.003 A 
ATOM     34  C   UNL     1       3.200   6.358   1.196  0.00  0.00    +0.005 A 
ATOM     35  C   UNL     1       3.692   9.907   0.007  0.00  0.00    +0.044 C 
ENDBRANCH  28  29
ENDBRANCH  27  28
ENDBRANCH   5  27
TORSDOF 5
