REMARK  Name = ZINC16606337
REMARK  10 active torsions:
REMARK  status: ('A' for Active; 'I' for Inactive)
REMARK    1  A    between atoms: C_1  and  C_2
REMARK    2  A    between atoms: C_3  and  C_34
REMARK    3  A    between atoms: C_7  and  C_8
REMARK    4  A    between atoms: C_11  and  C_13
REMARK    5  A    between atoms: C_13  and  N_14
REMARK    6  A    between atoms: C_15  and  C_17
REMARK    7  A    between atoms: N_19  and  C_20
REMARK    8  A    between atoms: N_26  and  C_27
REMARK    9  A    between atoms: C_34  and  O_36
REMARK   10  A    between atoms: O_36  and  C_37
REMARK                            x       y       z     vdW  Elec       q    Type
REMARK                         _______ _______ _______ _____ _____    ______ ____
ROOT
ATOM      1  C   UNL     1       2.352  -2.303  -0.166  0.00  0.00    +0.130 A 
ATOM      2  C   UNL     1       2.572  -3.664  -0.062  0.00  0.00    +0.049 A 
ATOM      3  C   UNL     1       3.956  -3.834   0.083  0.00  0.00    +0.047 A 
ATOM      4  C   UNL     1       4.514  -2.602   0.072  0.00  0.00    +0.123 A 
ATOM      5  O   UNL     1       3.549  -1.685  -0.077  0.00  0.00    -0.459 OA
ENDROOT
BRANCH   1  12
ATOM      6  C   UNL     1      -0.898   2.871  -0.268  0.00  0.00    +0.062 C 
ATOM      7  C   UNL     1       0.126   1.765  -0.279  0.00  0.00    +0.031 C 
ATOM      8  C   UNL     1       1.495   1.952  -0.278  0.00  0.00    +0.125 C 
ATOM      9  C   UNL     1       2.105   0.613  -0.298  0.00  0.00    +0.216 C 
ATOM     10  O   UNL     1       3.295   0.343  -0.303  0.00  0.00    -0.285 OA
ATOM     11  C   UNL     1       1.013  -0.299  -0.309  0.00  0.00    +0.090 C 
ATOM     12  C   UNL     1       1.100  -1.673  -0.328  0.00  0.00    +0.074 C 
ATOM     13  N   UNL     1      -0.157   0.451  -0.297  0.00  0.00    -0.269 N 
BRANCH  13  14
ATOM     14  C   UNL     1      -1.451  -0.087  -0.302  0.00  0.00    +0.039 A 
ATOM     15  C   UNL     1      -1.846  -0.937  -1.326  0.00  0.00    +0.026 A 
ATOM     16  C   UNL     1      -3.119  -1.471  -1.326  0.00  0.00    +0.040 A 
ATOM     17  C   UNL     1      -4.006  -1.149  -0.312  0.00  0.00    +0.124 A 
ATOM     18  C   UNL     1      -3.616  -0.296   0.707  0.00  0.00    +0.040 A 
ATOM     19  C   UNL     1      -2.341   0.235   0.714  0.00  0.00    +0.026 A 
ATOM     20  F   UNL     1      -5.254  -1.668  -0.317  0.00  0.00    -0.205 F 
ENDBRANCH  13  14
BRANCH   8  21
ATOM     21  C   UNL     1       2.203   3.237  -0.262  0.00  0.00    +0.344 C 
ATOM     22  O   UNL     1       1.574   4.278  -0.247  0.00  0.00    -0.245 OA
BRANCH  21  23
ATOM     23  O   UNL     1       3.551   3.264  -0.264  0.00  0.00    -0.464 OA
ATOM     24  C   UNL     1       4.184   4.571  -0.247  0.00  0.00    +0.280 C 
ENDBRANCH  21  23
ENDBRANCH   8  21
ENDBRANCH   1  12
BRANCH   4  25
ATOM     25  C   UNL     1       5.986  -2.308   0.206  0.00  0.00    +0.179 C 
BRANCH  25  26
ATOM     26  N   UNL     1       6.604  -2.288  -1.122  0.00  0.00    -0.300 N 
ATOM     27  C   UNL     1       7.923  -2.043  -1.248  0.00  0.00    +0.300 C 
ATOM     28  O   UNL     1       8.599  -1.838  -0.262  0.00  0.00    -0.265 OA
ATOM     29  H   UNL     1       6.063  -2.452  -1.911  0.00  0.00    +0.150 HD
BRANCH  27  30
ATOM     30  C   UNL     1       8.553  -2.023  -2.602  0.00  0.00    +0.303 C 
ATOM     31  O   UNL     1       7.876  -2.228  -3.589  0.00  0.00    -0.265 OA
ATOM     32  N   UNL     1       9.872  -1.778  -2.729  0.00  0.00    -0.278 N 
ATOM     33  H   UNL     1      10.427  -1.693  -1.938  0.00  0.00    +0.155 HD
BRANCH  32  34
ATOM     34  C   UNL     1      10.440  -1.645  -3.998  0.00  0.00    +0.034 A 
ATOM     35  C   UNL     1      11.738  -2.081  -4.229  0.00  0.00    +0.023 A 
ATOM     36  C   UNL     1      12.294  -1.953  -5.487  0.00  0.00    +0.002 A 
ATOM     37  C   UNL     1      11.564  -1.383  -6.513  0.00  0.00    +0.000 A 
ATOM     38  C   UNL     1      10.273  -0.943  -6.285  0.00  0.00    +0.002 A 
ATOM     39  C   UNL     1       9.708  -1.072  -5.032  0.00  0.00    +0.023 A 
ENDBRANCH  32  34
ENDBRANCH  27  30
ENDBRANCH  25  26
ENDBRANCH   4  25
TORSDOF 8
