REMARK  Name = ZINC04854753
REMARK  7 active torsions:
REMARK  status: ('A' for Active; 'I' for Inactive)
REMARK    1  A    between atoms: C_4  and  C_7
REMARK    2  A    between atoms: C_7  and  C_9
REMARK    3  A    between atoms: C_12  and  O_30
REMARK    4  A    between atoms: C_13  and  C_16
REMARK    5  A    between atoms: C_14  and  O_15
REMARK    6  A    between atoms: C_16  and  C_18
REMARK    7  A    between atoms: C_16  and  N_54
REMARK                            x       y       z     vdW  Elec       q    Type
REMARK                         _______ _______ _______ _____ _____    ______ ____
ROOT
ATOM      1  C   UNL     1      -1.725   5.563  -0.127  0.00  0.00    +0.064 A 
ATOM      2  C   UNL     1      -2.992   5.037   0.151  0.00  0.00    +0.019 A 
ATOM      3  C   UNL     1      -4.038   5.875   0.408  0.00  0.00    +0.046 A 
ATOM      4  C   UNL     1      -3.856   7.255   0.396  0.00  0.00    +0.122 A 
ATOM      5  C   UNL     1      -2.607   7.793   0.121  0.00  0.00    +0.027 A 
ATOM      6  C   UNL     1      -1.535   6.955  -0.136  0.00  0.00    +0.133 A 
ENDROOT
BRANCH   1   7
ATOM      7  C   UNL     1      -0.595   4.662  -0.403  0.00  0.00    +0.197 C 
ATOM      8  O   UNL     1       0.528   5.114  -0.527  0.00  0.00    -0.287 OA
BRANCH   7  12
ATOM      9  C   UNL     1      -1.254   0.481  -0.769  0.00  0.00    +0.000 A 
ATOM     10  C   UNL     1      -2.228   1.371  -1.186  0.00  0.00    +0.001 A 
ATOM     11  C   UNL     1      -2.023   2.730  -1.065  0.00  0.00    +0.012 A 
ATOM     12  C   UNL     1      -0.824   3.207  -0.531  0.00  0.00    +0.022 A 
ATOM     13  C   UNL     1       0.157   2.304  -0.117  0.00  0.00    +0.012 A 
ATOM     14  C   UNL     1      -0.063   0.947  -0.239  0.00  0.00    +0.001 A 
ENDBRANCH   7  12
ENDBRANCH   1   7
BRANCH   6  15
ATOM     15  O   UNL     1      -0.310   7.475  -0.399  0.00  0.00    -0.506 OA
ATOM     16  H   UNL     1      -0.112   7.556  -1.342  0.00  0.00    +0.292 HD
ENDBRANCH   6  15
BRANCH   4  17
ATOM     17  O   UNL     1      -4.904   8.078   0.654  0.00  0.00    -0.506 OA
ATOM     18  H   UNL     1      -4.970   8.353   1.578  0.00  0.00    +0.292 HD
ENDBRANCH   4  17
BRANCH   5  19
ATOM     19  C   UNL     1      -2.415   9.288   0.110  0.00  0.00    +0.002 C 
BRANCH  19  20
ATOM     20  C   UNL     1      -3.092   9.871  -1.104  0.00  0.00    -0.038 A 
ATOM     21  C   UNL     1      -4.428  10.224  -1.048  0.00  0.00    +0.004 A 
ATOM     22  C   UNL     1      -5.047  10.764  -2.160  0.00  0.00    +0.000 A 
ATOM     23  C   UNL     1      -4.335  10.941  -3.331  0.00  0.00    +0.001 A 
ATOM     24  C   UNL     1      -3.001  10.585  -3.389  0.00  0.00    +0.020 A 
ATOM     25  C   UNL     1      -2.378  10.049  -2.276  0.00  0.00    +0.043 A 
ATOM     26 CL   UNL     1      -0.703   9.601  -2.348  0.00  0.00    -0.083 Cl
ENDBRANCH  19  20
BRANCH  19  32
ATOM     27  C   UNL     1      -2.807  11.321   1.363  0.00  0.00    -0.078 C 
ATOM     28  C   UNL     1      -3.556  11.907   2.563  0.00  0.00    -0.019 C 
ATOM     29  C   UNL     1      -3.028  11.267   3.850  0.00  0.00    -0.004 C 
ATOM     30  C   UNL     1      -3.201   9.748   3.763  0.00  0.00    -0.019 C 
ATOM     31  C   UNL     1      -2.463   9.225   2.529  0.00  0.00    -0.078 C 
ATOM     32  N   UNL     1      -3.034   9.861   1.323  0.00  0.00    +0.387 N 
ATOM     33  H   UNL     1      -4.044   9.681   1.299  0.00  0.00    -0.080 HD
ENDBRANCH  19  32
ENDBRANCH   5  19
TORSDOF 7
