REMARK  Name = ZINC16229480
REMARK  8 active torsions:
REMARK  status: ('A' for Active; 'I' for Inactive)
REMARK    1  A    between atoms: C_1  and  C_2
REMARK    2  A    between atoms: C_5  and  N_9
REMARK    3  A    between atoms: C_6  and  O_8
REMARK    4  A    between atoms: C_10  and  C_12
REMARK    5  A    between atoms: C_12  and  C_13
REMARK    6  A    between atoms: C_13  and  C_14
REMARK    7  A    between atoms: C_15  and  C_28
REMARK    8  A    between atoms: N_18  and  C_21
REMARK                            x       y       z     vdW  Elec       q    Type
REMARK                         _______ _______ _______ _____ _____    ______ ____
ROOT
ATOM      1  C   UNL     1       2.456   1.000   0.010  0.00  0.00    +0.051 C 
ENDROOT
BRANCH   1   2
ATOM      2  C   UNL     1       3.751   1.770   0.015  0.00  0.00    +0.040 A 
ATOM      3  C   UNL     1       4.479   2.089   1.104  0.00  0.00    +0.038 A 
ATOM      4  N   UNL     1       5.583   2.784   0.698  0.00  0.00    -0.294 N 
ATOM      5  H   UNL     1       6.280   3.134   1.275  0.00  0.00    +0.187 HD
ATOM      6  N   UNL     1       5.532   2.910  -0.697  0.00  0.00    -0.219 N 
ATOM      7  C   UNL     1       4.412   2.291  -1.123  0.00  0.00    +0.275 A 
ATOM      8  O   UNL     1       4.037   2.196  -2.278  0.00  0.00    -0.266 OA
ATOM      9  C   UNL     1       4.136   1.735   2.528  0.00  0.00    +0.065 C 
BRANCH   6  10
ATOM     10  C   UNL     1       6.473   3.560  -1.503  0.00  0.00    +0.067 A 
ATOM     11  C   UNL     1       6.299   3.603  -2.880  0.00  0.00    +0.030 A 
ATOM     12  C   UNL     1       7.226   4.250  -3.673  0.00  0.00    +0.040 A 
ATOM     13  C   UNL     1       8.336   4.846  -3.097  0.00  0.00    +0.124 A 
ATOM     14  C   UNL     1       8.515   4.799  -1.724  0.00  0.00    +0.040 A 
ATOM     15  C   UNL     1       7.587   4.159  -0.927  0.00  0.00    +0.030 A 
ATOM     16  F   UNL     1       9.245   5.473  -3.875  0.00  0.00    -0.205 F 
ENDBRANCH   6  10
ENDBRANCH   1   2
BRANCH   1  17
ATOM     17  C   UNL     1       1.280   1.979   0.020  0.00  0.00    +0.101 C 
BRANCH  17  19
ATOM     18  N   UNL     1      -1.191   1.867   0.018  0.00  0.00    -0.283 N 
ATOM     19  C   UNL     1      -0.015   1.208   0.016  0.00  0.00    +0.218 C 
ATOM     20  O   UNL     1       0.001  -0.005   0.006  0.00  0.00    -0.275 OA
ATOM     21  H   UNL     1      -1.205   2.834   0.091  0.00  0.00    +0.155 HD
BRANCH  18  26
ATOM     22  C   UNL     1      -6.061  -1.023  -0.400  0.00  0.00    +0.044 C 
ATOM     23  C   UNL     1      -4.769  -0.255  -0.290  0.00  0.00    -0.047 A 
ATOM     24  C   UNL     1      -3.698  -0.799   0.395  0.00  0.00    +0.005 A 
ATOM     25  C   UNL     1      -2.512  -0.098   0.498  0.00  0.00    +0.027 A 
ATOM     26  C   UNL     1      -2.393   1.154  -0.086  0.00  0.00    +0.075 A 
ATOM     27  C   UNL     1      -3.474   1.704  -0.771  0.00  0.00    +0.138 A 
ATOM     28  C   UNL     1      -4.658   0.993  -0.875  0.00  0.00    +0.050 A 
BRANCH  27  29
ATOM     29  O   UNL     1      -3.365   2.934  -1.341  0.00  0.00    -0.505 OA
ATOM     30  H   UNL     1      -3.048   2.918  -2.255  0.00  0.00    +0.292 HD
ENDBRANCH  27  29
ENDBRANCH  18  26
ENDBRANCH  17  19
ENDBRANCH   1  17
TORSDOF 6
