REMARK  Name = ZINC08937726
REMARK  8 active torsions:
REMARK  status: ('A' for Active; 'I' for Inactive)
REMARK    1  A    between atoms: C_1  and  C_2
REMARK    2  A    between atoms: C_8  and  N_10
REMARK    3  A    between atoms: C_14  and  C_16
REMARK    4  A    between atoms: C_16  and  N_17
REMARK    5  A    between atoms: C_20  and  C_24
REMARK    6  A    between atoms: C_20  and  C_25
REMARK    7  A    between atoms: C_28  and  O_31
REMARK    8  A    between atoms: O_31  and  C_32
REMARK                            x       y       z     vdW  Elec       q    Type
REMARK                         _______ _______ _______ _____ _____    ______ ____
ROOT
ATOM      1  N   UNL     1       0.677   8.466   2.280  0.00  0.00    -0.215 N 
ATOM      2  C   UNL     1       0.079   7.827   1.255  0.00  0.00    +0.251 C 
ATOM      3  O   UNL     1       0.427   7.819   0.094  0.00  0.00    -0.272 OA
ATOM      4  C   UNL     1      -1.120   7.122   1.857  0.00  0.00    +0.135 C 
ATOM      5  N   UNL     1      -1.056   7.478   3.285  0.00  0.00    -0.281 N 
ATOM      6  C   UNL     1       0.030   8.264   3.433  0.00  0.00    +0.310 C 
ATOM      7  O   UNL     1       0.380   8.738   4.496  0.00  0.00    -0.252 OA
ATOM      8  C   UNL     1      -2.418   7.637   1.232  0.00  0.00    +0.047 C 
ATOM      9  H   UNL     1      -1.673   7.200   3.980  0.00  0.00    +0.152 HD
ENDROOT
BRANCH   4  10
ATOM     10  C   UNL     1      -1.003   5.630   1.677  0.00  0.00    -0.015 A 
ATOM     11  C   UNL     1      -1.531   4.776   2.628  0.00  0.00    +0.010 A 
ATOM     12  C   UNL     1      -1.425   3.409   2.465  0.00  0.00    +0.046 A 
ATOM     13  C   UNL     1      -0.787   2.892   1.346  0.00  0.00    +0.127 A 
ATOM     14  C   UNL     1      -0.253   3.751   0.396  0.00  0.00    +0.046 A 
ATOM     15  C   UNL     1      -0.367   5.117   0.561  0.00  0.00    +0.010 A 
BRANCH  13  16
ATOM     16  O   UNL     1      -0.682   1.547   1.184  0.00  0.00    -0.434 OA
BRANCH  16  17
ATOM     17  C   UNL     1      -0.013   1.086   0.008  0.00  0.00    +0.541 C 
ATOM     18  F   UNL     1       1.300   1.570  -0.002  0.00  0.00    -0.166 F 
ATOM     19  F   UNL     1      -0.689   1.549  -1.125  0.00  0.00    -0.166 F 
ENDBRANCH  16  17
ENDBRANCH  13  16
ENDBRANCH   4  10
BRANCH   1  20
ATOM     20  C   UNL     1       1.888   9.281   2.147  0.00  0.00    +0.214 C 
BRANCH  20  25
ATOM     21  N   UNL     1       3.072  13.855   1.264  0.00  0.00    -0.296 N 
ATOM     22  C   UNL     1       2.116  12.920   1.427  0.00  0.00    +0.306 C 
ATOM     23  O   UNL     1       0.944  13.227   1.337  0.00  0.00    -0.252 OA
ATOM     24  N   UNL     1       2.460  11.643   1.690  0.00  0.00    -0.239 N 
ATOM     25  C   UNL     1       1.504  10.708   1.853  0.00  0.00    +0.238 C 
ATOM     26  O   UNL     1       0.334  11.014   1.763  0.00  0.00    -0.274 OA
ATOM     27  H   UNL     1       4.008  13.610   1.336  0.00  0.00    +0.151 HD
ATOM     28  H   UNL     1       3.396  11.398   1.762  0.00  0.00    +0.159 HD
BRANCH  21  35
ATOM     29  C   UNL     1       4.034  16.008   2.946  0.00  0.00    +0.009 C 
ATOM     30  C   UNL     1       3.818  16.178   1.441  0.00  0.00    +0.006 C 
ATOM     31  C   UNL     1       5.110  15.834   0.698  0.00  0.00    +0.005 C 
ATOM     32  C   UNL     1       4.893  16.004  -0.807  0.00  0.00    +0.000 C 
ATOM     33  C   UNL     1       3.774  15.069  -1.270  0.00  0.00    +0.002 C 
ATOM     34  C   UNL     1       2.482  15.412  -0.527  0.00  0.00    +0.022 C 
ATOM     35  C   UNL     1       2.699  15.243   0.978  0.00  0.00    +0.077 C 
ENDBRANCH  21  35
ENDBRANCH  20  25
ENDBRANCH   1  20
TORSDOF 6
