REMARK  Name = ZINC04569006
REMARK  4 active torsions:
REMARK  status: ('A' for Active; 'I' for Inactive)
REMARK    1  A    between atoms: C_1  and  C_2
REMARK    2  A    between atoms: C_7  and  N_8
REMARK    3  A    between atoms: C_9  and  C_11
REMARK    4  A    between atoms: N_29  and  C_32
REMARK                            x       y       z     vdW  Elec       q    Type
REMARK                         _______ _______ _______ _____ _____    ______ ____
ROOT
ATOM      1  C   UNL     1      -3.014   3.194   2.250  0.00  0.00    +0.169 C 
ATOM      2  C   UNL     1      -2.853   1.698   2.546  0.00  0.00    +0.052 C 
ATOM      3  C   UNL     1      -1.987   1.526   3.766  0.00  0.00    -0.001 A 
ATOM      4  C   UNL     1      -2.557   1.691   5.018  0.00  0.00    +0.007 A 
ATOM      5  C   UNL     1      -1.792   1.541   6.158  0.00  0.00    +0.001 A 
ATOM      6  C   UNL     1      -0.450   1.226   6.054  0.00  0.00    +0.004 A 
ATOM      7  C   UNL     1       0.124   1.060   4.810  0.00  0.00    +0.046 A 
ATOM      8  C   UNL     1      -0.644   1.208   3.660  0.00  0.00    +0.127 A 
ATOM      9  O   UNL     1      -0.050   1.033   2.452  0.00  0.00    -0.468 OA
ATOM     10  C   UNL     1      -0.726   1.550   1.298  0.00  0.00    +0.184 C 
ATOM     11  C   UNL     1      -2.172   1.052   1.328  0.00  0.00    +0.061 C 
ATOM     12  C   UNL     1      -2.904   1.516   0.066  0.00  0.00    +0.010 C 
ATOM     13  C   UNL     1      -2.191   0.978  -1.175  0.00  0.00    +0.001 C 
ATOM     14  C   UNL     1      -0.758   1.516  -1.205  0.00  0.00    +0.006 C 
ATOM     15  C   UNL     1      -0.018   1.037   0.044  0.00  0.00    +0.069 C 
ATOM     16  N   UNL     1      -0.698   3.007   1.332  0.00  0.00    -0.266 N 
ATOM     17  C   UNL     1      -1.710   3.759   1.769  0.00  0.00    +0.231 C 
ATOM     18  O   UNL     1      -1.567   4.964   1.781  0.00  0.00    -0.275 OA
ATOM     19  C   UNL     1       0.512   3.686   0.861  0.00  0.00    +0.136 C 
ENDROOT
BRANCH   1  21
ATOM     20  N   UNL     1      -4.749   4.131   3.744  0.00  0.00    -0.285 N 
ATOM     21  C   UNL     1      -3.441   3.910   3.506  0.00  0.00    +0.230 C 
ATOM     22  O   UNL     1      -2.607   4.287   4.302  0.00  0.00    -0.275 OA
ATOM     23  H   UNL     1      -5.418   3.780   3.136  0.00  0.00    +0.155 HD
BRANCH  20  30
ATOM     24  C   UNL     1      -7.240   5.503   3.652  0.00  0.00    +0.045 C 
ATOM     25  C   UNL     1      -6.348   5.550   4.866  0.00  0.00    -0.029 A 
ATOM     26  C   UNL     1      -6.735   6.270   5.980  0.00  0.00    +0.005 A 
ATOM     27  C   UNL     1      -5.915   6.319   7.092  0.00  0.00    +0.000 A 
ATOM     28  C   UNL     1      -4.709   5.643   7.096  0.00  0.00    +0.002 A 
ATOM     29  C   UNL     1      -4.319   4.917   5.988  0.00  0.00    +0.023 A 
ATOM     30  C   UNL     1      -5.141   4.866   4.869  0.00  0.00    +0.036 A 
ENDBRANCH  20  30
ENDBRANCH   1  21
TORSDOF 2
