REMARK  Name = ZINC40139296
REMARK  6 active torsions:
REMARK  status: ('A' for Active; 'I' for Inactive)
REMARK    1  A    between atoms: C_4  and  C_7
REMARK    2  A    between atoms: C_7  and  C_9
REMARK    3  A    between atoms: C_7  and  N_18
REMARK    4  A    between atoms: N_11  and  C_12
REMARK    5  A    between atoms: N_21  and  C_22
REMARK    6  A    between atoms: C_27  and  N_28
REMARK                            x       y       z     vdW  Elec       q    Type
REMARK                         _______ _______ _______ _____ _____    ______ ____
ROOT
ATOM      1  C   UNL     1       3.716  -1.003  -0.272  0.00  0.00    +0.191 C 
ENDROOT
BRANCH   1   5
ATOM      2  C   UNL     1       0.041   1.172  -0.349  0.00  0.00    +0.000 A 
ATOM      3  C   UNL     1       1.245   1.849  -0.388  0.00  0.00    +0.000 A 
ATOM      4  C   UNL     1       2.435   1.145  -0.362  0.00  0.00    +0.006 A 
ATOM      5  C   UNL     1       2.420  -0.236  -0.298  0.00  0.00    -0.018 A 
ATOM      6  C   UNL     1       1.215  -0.913  -0.258  0.00  0.00    +0.006 A 
ATOM      7  C   UNL     1       0.025  -0.209  -0.285  0.00  0.00    +0.000 A 
ENDBRANCH   1   5
BRANCH   1   8
ATOM      8  N   UNL     1       3.604  -2.120   0.670  0.00  0.00    -0.284 N 
ATOM      9  C   UNL     1       3.844  -1.922   1.982  0.00  0.00    +0.305 C 
ATOM     10  O   UNL     1       4.153  -0.817   2.383  0.00  0.00    -0.252 OA
ATOM     11  N   UNL     1       3.740  -2.949   2.848  0.00  0.00    -0.267 N 
ATOM     12  H   UNL     1       3.357  -3.001   0.350  0.00  0.00    +0.151 HD
ATOM     13  H   UNL     1       3.575  -3.847   2.518  0.00  0.00    +0.156 HD
BRANCH  11  14
ATOM     14  C   UNL     1       3.871  -2.721   4.222  0.00  0.00    +0.065 A 
ATOM     15  C   UNL     1       3.586  -1.469   4.750  0.00  0.00    +0.025 A 
ATOM     16  C   UNL     1       3.716  -1.248   6.107  0.00  0.00    +0.002 A 
ATOM     17  C   UNL     1       4.130  -2.271   6.940  0.00  0.00    +0.002 A 
ATOM     18  C   UNL     1       4.415  -3.519   6.417  0.00  0.00    +0.034 A 
ATOM     19  C   UNL     1       4.281  -3.749   5.062  0.00  0.00    +0.147 A 
BRANCH  19  20
ATOM     20  N   UNL     1       4.581  -5.087   4.504  0.00  0.00    +0.058 N 
ATOM     21  O   UNL     1       4.844  -6.005   5.244  0.00  0.00    -0.126 OA
ATOM     22  O   UNL     1       4.562  -5.261   3.308  0.00  0.00    -0.126 OA
ENDBRANCH  19  20
ENDBRANCH  11  14
ENDBRANCH   1   8
BRANCH   1  23
ATOM     23  C   UNL     1       4.013  -1.536  -1.650  0.00  0.00    +0.242 C 
ATOM     24  O   UNL     1       4.120  -2.731  -1.828  0.00  0.00    -0.273 OA
ATOM     25  N   UNL     1       4.159  -0.685  -2.684  0.00  0.00    -0.284 N 
ATOM     26  H   UNL     1       4.007   0.265  -2.557  0.00  0.00    +0.155 HD
BRANCH  25  27
ATOM     27  C   UNL     1       4.531  -1.170  -3.943  0.00  0.00    +0.033 A 
ATOM     28  C   UNL     1       5.359  -0.415  -4.763  0.00  0.00    +0.023 A 
ATOM     29  C   UNL     1       5.724  -0.897  -6.005  0.00  0.00    +0.002 A 
ATOM     30  C   UNL     1       5.267  -2.131  -6.431  0.00  0.00    +0.000 A 
ATOM     31  C   UNL     1       4.442  -2.885  -5.617  0.00  0.00    +0.002 A 
ATOM     32  C   UNL     1       4.078  -2.411  -4.371  0.00  0.00    +0.023 A 
ENDBRANCH  25  27
ENDBRANCH   1  23
TORSDOF 6
