REMARK  Name = ZINC13299207
REMARK  7 active torsions:
REMARK  status: ('A' for Active; 'I' for Inactive)
REMARK    1  A    between atoms: C_1  and  N_2
REMARK    2  A    between atoms: N_2  and  C_3
REMARK    3  A    between atoms: N_2  and  C_16
REMARK    4  A    between atoms: C_3  and  C_4
REMARK    5  A    between atoms: C_9  and  N_10
REMARK    6  A    between atoms: N_19  and  C_24
REMARK    7  A    between atoms: C_29  and  C_30
REMARK                            x       y       z     vdW  Elec       q    Type
REMARK                         _______ _______ _______ _____ _____    ______ ____
ROOT
ATOM      1  C   UNL     1       4.971   4.893  -0.154  0.00  0.00    +0.074 A 
ATOM      2  C   UNL     1       3.800   5.077   0.613  0.00  0.00    +0.158 A 
ATOM      3  N   UNL     1       2.817   4.225   0.529  0.00  0.00    -0.170 NA
ATOM      4  N   UNL     1       2.900   3.108  -0.308  0.00  0.00    -0.195 N 
ATOM      5  C   UNL     1       3.999   2.893  -1.058  0.00  0.00    +0.292 A 
ATOM      6  O   UNL     1       4.062   1.919  -1.791  0.00  0.00    -0.264 OA
ATOM      7  C   UNL     1       5.069   3.797  -0.992  0.00  0.00    +0.129 A 
ATOM      8 CL   UNL     1       6.496   3.544  -1.948  0.00  0.00    -0.076 Cl
ENDROOT
BRANCH   4   9
ATOM      9  C   UNL     1       1.834   2.211  -0.372  0.00  0.00    +0.083 A 
ATOM     10  C   UNL     1       2.044   0.860  -0.132  0.00  0.00    +0.029 A 
ATOM     11  C   UNL     1       0.987  -0.026  -0.196  0.00  0.00    +0.002 A 
ATOM     12  C   UNL     1      -0.287   0.422  -0.504  0.00  0.00    +0.001 A 
ATOM     13  C   UNL     1      -0.515   1.761  -0.740  0.00  0.00    +0.017 A 
ATOM     14  C   UNL     1       0.544   2.670  -0.679  0.00  0.00    +0.089 A 
BRANCH  14  15
ATOM     15  C   UNL     1       0.308   4.103  -0.936  0.00  0.00    +0.389 C 
ATOM     16  O   UNL     1       1.232   4.890  -0.882  0.00  0.00    -0.241 OA
ATOM     17  O   UNL     1      -0.932   4.539  -1.231  0.00  0.00    -0.241 OA
ENDBRANCH  14  15
ENDBRANCH   4   9
BRANCH   1  19
ATOM     18  C   UNL     1       5.597   7.126  -0.551  0.00  0.00    +0.129 C 
ATOM     19  N   UNL     1       6.012   5.803  -0.067  0.00  0.00    -0.326 N 
BRANCH  19  20
ATOM     20  C   UNL     1       6.529   5.882   1.305  0.00  0.00    +0.141 C 
BRANCH  20  21
ATOM     21  C   UNL     1       7.892   6.526   1.292  0.00  0.00    -0.009 A 
ATOM     22  C   UNL     1       8.509   6.814   0.091  0.00  0.00    +0.007 A 
ATOM     23  C   UNL     1       9.758   7.406   0.078  0.00  0.00    +0.000 A 
ATOM     24  C   UNL     1      10.395   7.711   1.268  0.00  0.00    +0.002 A 
ATOM     25  C   UNL     1       9.784   7.425   2.472  0.00  0.00    +0.023 A 
ATOM     26  C   UNL     1       8.526   6.835   2.489  0.00  0.00    +0.034 A 
BRANCH  26  27
ATOM     27  N   UNL     1       7.903   6.549   3.706  0.00  0.00    -0.330 N 
ATOM     28  C   UNL     1       7.653   7.777   4.470  0.00  0.00    +0.105 C 
ATOM     29  C   UNL     1       6.842   7.443   5.725  0.00  0.00    +0.019 C 
ATOM     30  C   UNL     1       7.622   6.439   6.578  0.00  0.00    +0.003 C 
ATOM     31  C   UNL     1       7.912   5.188   5.743  0.00  0.00    +0.019 C 
ATOM     32  C   UNL     1       8.691   5.588   4.488  0.00  0.00    +0.105 C 
ENDBRANCH  26  27
ENDBRANCH  20  21
ENDBRANCH  19  20
ENDBRANCH   1  19
TORSDOF 6
