REMARK  Name = ZINC38650642
REMARK  13 active torsions:
REMARK  status: ('A' for Active; 'I' for Inactive)
REMARK    1  A    between atoms: C_1  and  C_2
REMARK    2  A    between atoms: C_2  and  C_3
REMARK    3  A    between atoms: C_3  and  O_4
REMARK    4  A    between atoms: O_4  and  C_5
REMARK    5  A    between atoms: C_8  and  C_11
REMARK    6  A    between atoms: C_16  and  O_25
REMARK    7  A    between atoms: C_20  and  N_24
REMARK    8  A    between atoms: C_21  and  C_22
REMARK    9  A    between atoms: O_25  and  C_26
REMARK   10  A    between atoms: C_26  and  C_28
REMARK   11  A    between atoms: C_31  and  O_34
REMARK   12  A    between atoms: O_34  and  C_35
REMARK   13  A    between atoms: C_35  and  C_36
REMARK                            x       y       z     vdW  Elec       q    Type
REMARK                         _______ _______ _______ _____ _____    ______ ____
ROOT
ATOM      1  C   UNL     1       3.199  -4.473  -5.631  0.00  0.00    +0.098 C 
ATOM      2  C   UNL     1       4.353  -5.306  -5.141  0.00  0.00    +0.008 A 
ATOM      3  C   UNL     1       5.563  -4.695  -4.859  0.00  0.00    +0.012 A 
ATOM      4  C   UNL     1       6.632  -5.444  -4.409  0.00  0.00    +0.047 A 
ATOM      5  C   UNL     1       6.496  -6.814  -4.236  0.00  0.00    +0.135 A 
ATOM      6  C   UNL     1       5.286  -7.429  -4.517  0.00  0.00    +0.093 A 
ATOM      7  C   UNL     1       4.212  -6.674  -4.970  0.00  0.00    +0.138 A 
ATOM      8  O   UNL     1       3.035  -7.291  -5.240  0.00  0.00    -0.441 OA
ATOM      9  C   UNL     1       2.127  -6.687  -6.025  0.00  0.00    +0.199 C 
ATOM     10  C   UNL     1       2.151  -5.354  -6.248  0.00  0.00    +0.098 C 
ENDROOT
BRANCH   1  14
ATOM     11  C   UNL     1       1.497  -2.337  -2.345  0.00  0.00    +0.121 A 
ATOM     12  C   UNL     1       2.024  -1.644  -3.425  0.00  0.00    +0.046 A 
ATOM     13  C   UNL     1       2.574  -2.337  -4.486  0.00  0.00    +0.008 A 
ATOM     14  C   UNL     1       2.599  -3.719  -4.472  0.00  0.00    -0.034 A 
ATOM     15  C   UNL     1       2.074  -4.412  -3.397  0.00  0.00    +0.008 A 
ATOM     16  C   UNL     1       1.528  -3.724  -2.331  0.00  0.00    +0.046 A 
BRANCH  11  17
ATOM     17  O   UNL     1       0.955  -1.658  -1.299  0.00  0.00    -0.492 OA
BRANCH  17  18
ATOM     18  C   UNL     1       0.957  -0.231  -1.382  0.00  0.00    +0.229 C 
BRANCH  18  20
ATOM     19  C   UNL     1       0.314   1.881  -0.211  0.00  0.00    +0.007 C 
ATOM     20  C   UNL     1       0.312   0.353  -0.123  0.00  0.00    +0.038 C 
ENDBRANCH  18  20
ENDBRANCH  17  18
ENDBRANCH  11  17
ENDBRANCH   1  14
BRANCH   9  21
ATOM     21  N   UNL     1       1.146  -7.445  -6.614  0.00  0.00    -0.328 N 
ATOM     22  H   UNL     1       1.116  -8.403  -6.462  0.00  0.00    +0.145 HD
ATOM     23  H   UNL     1       0.484  -7.024  -7.184  0.00  0.00    +0.145 HD
ENDBRANCH   9  21
BRANCH  10  24
ATOM     24  C   UNL     1       1.153  -4.772  -7.095  0.00  0.00    +0.101 C 
ATOM     25  N   UNL     1       0.362  -4.310  -7.766  0.00  0.00    -0.191 NA
ENDBRANCH  10  24
BRANCH   5  26
ATOM     26  O   UNL     1       7.547  -7.552  -3.793  0.00  0.00    -0.422 OA
BRANCH  26  27
ATOM     27  C   UNL     1       8.129  -8.408  -4.656  0.00  0.00    +0.344 C 
ATOM     28  O   UNL     1       7.780  -8.428  -5.820  0.00  0.00    -0.245 OA
BRANCH  27  29
ATOM     29  C   UNL     1       9.188  -9.321  -4.189  0.00  0.00    +0.060 A 
ATOM     30  C   UNL     1       9.587  -9.304  -2.849  0.00  0.00    +0.018 A 
ATOM     31  C   UNL     1      10.576 -10.159  -2.416  0.00  0.00    +0.046 A 
ATOM     32  C   UNL     1      11.178 -11.037  -3.310  0.00  0.00    +0.121 A 
ATOM     33  C   UNL     1      10.785 -11.057  -4.643  0.00  0.00    +0.046 A 
ATOM     34  C   UNL     1       9.793 -10.210  -5.083  0.00  0.00    +0.018 A 
BRANCH  32  35
ATOM     35  O   UNL     1      12.153 -11.877  -2.880  0.00  0.00    -0.492 OA
BRANCH  35  36
ATOM     36  C   UNL     1      12.729 -12.754  -3.850  0.00  0.00    +0.225 C 
ATOM     37  C   UNL     1      13.801 -13.618  -3.184  0.00  0.00    +0.048 C 
ENDBRANCH  35  36
ENDBRANCH  32  35
ENDBRANCH  27  29
ENDBRANCH  26  27
ENDBRANCH   5  26
TORSDOF 11
