REMARK  Name = ZINC22530000
REMARK  9 active torsions:
REMARK  status: ('A' for Active; 'I' for Inactive)
REMARK    1  A    between atoms: C_1  and  C_2
REMARK    2  A    between atoms: C_7  and  N_8
REMARK    3  A    between atoms: C_9  and  C_29
REMARK    4  A    between atoms: C_12  and  S_13
REMARK    5  A    between atoms: S_13  and  C_14
REMARK    6  A    between atoms: C_14  and  C_16
REMARK    7  A    between atoms: C_14  and  C_17
REMARK    8  A    between atoms: N_19  and  C_20
REMARK    9  A    between atoms: C_23  and  C_26
REMARK                            x       y       z     vdW  Elec       q    Type
REMARK                         _______ _______ _______ _____ _____    ______ ____
ROOT
ATOM      1  N   UNL     1       0.481   0.032   0.006  0.00  0.00    -0.270 N 
ATOM      2  C   UNL     1       0.390  -0.803   1.099  0.00  0.00    +0.171 A 
ATOM      3  N   UNL     1       0.214  -2.020   0.640  0.00  0.00    -0.128 NA
ATOM      4  N   UNL     1       0.189  -2.007  -0.645  0.00  0.00    -0.122 NA
ATOM      5  C   UNL     1       0.342  -0.779  -1.088  0.00  0.00    +0.197 A 
ENDROOT
BRANCH   1  12
ATOM      6  C   UNL     1      -1.821   1.704   0.052  0.00  0.00    +0.046 C 
ATOM      7  C   UNL     1      -0.425   2.272   0.036  0.00  0.00    -0.026 A 
ATOM      8  C   UNL     1      -0.235   3.640   0.048  0.00  0.00    +0.005 A 
ATOM      9  C   UNL     1       1.045   4.162   0.027  0.00  0.00    +0.000 A 
ATOM     10  C   UNL     1       2.139   3.316  -0.001  0.00  0.00    +0.002 A 
ATOM     11  C   UNL     1       1.955   1.947  -0.007  0.00  0.00    +0.026 A 
ATOM     12  C   UNL     1       0.671   1.420   0.013  0.00  0.00    +0.053 A 
ENDBRANCH   1  12
BRANCH   2  13
ATOM     13  C   UNL     1       0.474  -0.403   2.519  0.00  0.00    +0.038 A 
ATOM     14  C   UNL     1       0.060  -1.278   3.531  0.00  0.00    +0.014 A 
ATOM     15  C   UNL     1       0.160  -0.855   4.845  0.00  0.00    +0.020 A 
ATOM     16  C   UNL     1       0.660   0.407   5.114  0.00  0.00    +0.111 A 
ATOM     17  N   UNL     1       1.042   1.210   4.140  0.00  0.00    -0.263 NA
ATOM     18  C   UNL     1       0.972   0.851   2.875  0.00  0.00    +0.122 A 
ENDBRANCH   2  13
BRANCH   5  19
ATOM     19  S   UNL     1       0.366  -0.271  -2.775  0.00  0.00    -0.073 S 
BRANCH  19  20
ATOM     20  C   UNL     1       0.127  -1.870  -3.588  0.00  0.00    +0.137 C 
ATOM     21  C   UNL     1      -1.258  -2.418  -3.238  0.00  0.00    +0.029 C 
BRANCH  20  22
ATOM     22  C   UNL     1       0.237  -1.696  -5.081  0.00  0.00    +0.230 C 
ATOM     23  O   UNL     1       0.091  -0.599  -5.575  0.00  0.00    -0.274 OA
ATOM     24  N   UNL     1       0.496  -2.760  -5.866  0.00  0.00    -0.285 N 
ATOM     25  H   UNL     1       0.714  -3.739  -5.412  0.00  0.00    +0.155 HD
BRANCH  24  26
ATOM     26  C   UNL     1       0.489  -2.622  -7.253  0.00  0.00    +0.033 A 
ATOM     27  C   UNL     1      -0.393  -1.731  -7.857  0.00  0.00    +0.024 A 
ATOM     28  C   UNL     1      -0.400  -1.588  -9.226  0.00  0.00    +0.015 A 
ATOM     29  C   UNL     1       0.473  -2.346 -10.011  0.00  0.00    +0.037 A 
ATOM     30  C   UNL     1       1.354  -3.244  -9.402  0.00  0.00    +0.015 A 
ATOM     31  C   UNL     1       1.359  -3.378  -8.031  0.00  0.00    +0.024 A 
BRANCH  29  32
ATOM     32  C   UNL     1       0.465  -2.199 -11.479  0.00  0.00    +0.242 C 
ATOM     33  O   UNL     1       1.225  -2.860 -12.161  0.00  0.00    -0.270 OA
ATOM     34  N   UNL     1      -0.385  -1.333 -12.065  0.00  0.00    -0.325 N 
ATOM     35  H   UNL     1      -0.391  -1.223 -13.160  0.00  0.00    +0.145 HD
ATOM     36  H   UNL     1      -1.073  -0.735 -11.449  0.00  0.00    +0.145 HD
ENDBRANCH  29  32
ENDBRANCH  24  26
ENDBRANCH  20  22
ENDBRANCH  19  20
ENDBRANCH   5  19
TORSDOF 7
