REMARK  Name = ZINC39730771
REMARK  6 active torsions:
REMARK  status: ('A' for Active; 'I' for Inactive)
REMARK    1  A    between atoms: C_1  and  C_2
REMARK    2  A    between atoms: N_10  and  N_14
REMARK    3  A    between atoms: C_15  and  C_17
REMARK    4  A    between atoms: C_17  and  S_18
REMARK    5  A    between atoms: S_18  and  C_19
REMARK    6  A    between atoms: C_23  and  C_25
REMARK                            x       y       z     vdW  Elec       q    Type
REMARK                         _______ _______ _______ _____ _____    ______ ____
ROOT
ATOM      1  N   UNL     1       3.303  -5.678  -0.062  0.00  0.00    -0.223 N 
ATOM      2  C   UNL     1       3.812  -6.196  -1.197  0.00  0.00    +0.240 C 
ATOM      3  O   UNL     1       3.841  -5.528  -2.209  0.00  0.00    -0.273 OA
ATOM      4  H   UNL     1       3.280  -6.212   0.747  0.00  0.00    +0.174 HD
ENDROOT
BRANCH   1  14
ATOM      5  C   UNL     1      -0.019   1.526   0.010  0.00  0.00    +0.007 C 
ATOM      6  C   UNL     1       0.002  -0.004   0.002  0.00  0.00    -0.014 C 
ATOM      7  C   UNL     1       0.716  -0.497  -1.258  0.00  0.00    +0.006 C 
ATOM      8  C   UNL     1       0.727  -2.028  -1.271  0.00  0.00    +0.035 C 
ATOM      9  C   UNL     1       1.442  -2.543  -0.027  0.00  0.00    +0.114 C 
ATOM     10  C   UNL     1       0.753  -2.041   1.238  0.00  0.00    +0.035 C 
ATOM     11  C   UNL     1       0.742  -0.510   1.242  0.00  0.00    +0.006 C 
ATOM     12  C   UNL     1       1.495  -4.053  -0.035  0.00  0.00    +0.263 C 
ATOM     13  O   UNL     1       0.556  -4.821  -0.030  0.00  0.00    -0.271 OA
ATOM     14  N   UNL     1       2.807  -4.367  -0.051  0.00  0.00    -0.137 N 
ATOM     15  C   UNL     1       3.576  -3.272  -0.053  0.00  0.00    +0.326 C 
ATOM     16  O   UNL     1       4.791  -3.300  -0.065  0.00  0.00    -0.251 OA
ATOM     17  N   UNL     1       2.853  -2.136  -0.039  0.00  0.00    -0.284 N 
ATOM     18  H   UNL     1       3.196  -1.229  -0.038  0.00  0.00    +0.151 HD
ENDBRANCH   1  14
BRANCH   2  19
ATOM     19  C   UNL     1       4.345  -7.605  -1.210  0.00  0.00    +0.171 C 
BRANCH  19  20
ATOM     20  S   UNL     1       4.955  -8.007  -2.870  0.00  0.00    -0.087 S 
BRANCH  20  21
ATOM     21  C   UNL     1       5.554  -9.712  -2.717  0.00  0.00    +0.339 C 
ATOM     22  N   UNL     1       4.468 -10.600  -2.269  0.00  0.00    -0.219 N 
ATOM     23  N   UNL     1       4.896 -11.127  -1.042  0.00  0.00    -0.145 NA
ATOM     24  C   UNL     1       6.076 -10.657  -0.737  0.00  0.00    +0.238 C 
ATOM     25  O   UNL     1       6.546  -9.804  -1.685  0.00  0.00    -0.443 OA
ATOM     26  H   UNL     1       3.632 -10.782  -2.727  0.00  0.00    +0.173 HD
BRANCH  24  27
ATOM     27  C   UNL     1       6.777 -10.993   0.429  0.00  0.00    +0.043 C 
ATOM     28  C   UNL     1       6.364 -11.864   1.440  0.00  0.00    +0.008 A 
ATOM     29  C   UNL     1       5.197 -12.636   1.615  0.00  0.00    +0.010 A 
ATOM     30  C   UNL     1       5.061 -13.410   2.722  0.00  0.00    +0.001 A 
ATOM     31  C   UNL     1       6.054 -13.465   3.702  0.00  0.00    +0.002 A 
ATOM     32  C   UNL     1       7.201 -12.750   3.599  0.00  0.00    +0.026 A 
ATOM     33  C   UNL     1       7.414 -11.917   2.470  0.00  0.00    +0.043 A 
ATOM     34  N   UNL     1       8.425 -11.137   2.140  0.00  0.00    -0.380 N 
ATOM     35  C   UNL     1       8.140 -10.495   0.853  0.00  0.00    +0.154 C 
ATOM     36  H   UNL     1       9.230 -11.010   2.665  0.00  0.00    +0.160 HD
ENDBRANCH  24  27
ENDBRANCH  20  21
ENDBRANCH  19  20
ENDBRANCH   2  19
TORSDOF 5
