REMARK  Name = ZINC01756806
REMARK  5 active torsions:
REMARK  status: ('A' for Active; 'I' for Inactive)
REMARK    1  A    between atoms: C_1  and  C_2
REMARK    2  A    between atoms: C_2  and  C_3
REMARK    3  A    between atoms: C_2  and  C_4
REMARK    4  A    between atoms: C_2  and  C_5
REMARK    5  A    between atoms: N_14  and  C_16
REMARK                            x       y       z     vdW  Elec       q    Type
REMARK                         _______ _______ _______ _____ _____    ______ ____
ROOT
ATOM      1  C   UNL     1       1.538   0.453  -1.475  0.00  0.00    -0.005 C 
ATOM      2  C   UNL     1       1.274  -0.987  -1.032  0.00  0.00    +0.007 C 
ATOM      3  C   UNL     1       1.584  -1.941  -2.189  0.00  0.00    +0.043 C 
ATOM      4  C   UNL     1       3.043  -1.781  -2.604  0.00  0.00    +0.101 C 
ATOM      5  C   UNL     1       3.323  -0.343  -3.031  0.00  0.00    +0.043 C 
ATOM      6  C   UNL     1       3.008   0.605  -1.872  0.00  0.00    +0.007 C 
ATOM      7  N   UNL     1       3.371  -2.711  -3.691  0.00  0.00    -0.306 N 
ATOM      8  C   UNL     1       4.341  -3.522  -3.227  0.00  0.00    +0.153 C 
ATOM      9  S   UNL     1       5.059  -4.782  -4.136  0.00  0.00    -0.017 S 
ATOM     10  N   UNL     1       4.675  -3.220  -1.964  0.00  0.00    -0.214 N 
ATOM     11  N   UNL     1       3.935  -2.169  -1.499  0.00  0.00    -0.211 NA
ATOM     12  H   UNL     1       2.967  -2.737  -4.573  0.00  0.00    +0.150 HD
ATOM     13  H   UNL     1       3.405  -2.434  -0.682  0.00  0.00    +0.147 HD
ENDROOT
BRANCH  10  14
ATOM     14  C   UNL     1       5.652  -3.892  -1.221  0.00  0.00    +0.052 A 
ATOM     15  C   UNL     1       6.904  -4.131  -1.773  0.00  0.00    +0.026 A 
ATOM     16  C   UNL     1       7.866  -4.794  -1.037  0.00  0.00    +0.022 A 
ATOM     17  C   UNL     1       7.584  -5.220   0.249  0.00  0.00    +0.041 A 
ATOM     18  C   UNL     1       6.338  -4.983   0.801  0.00  0.00    +0.022 A 
ATOM     19  C   UNL     1       5.373  -4.316   0.071  0.00  0.00    +0.026 A 
ATOM     20 CL   UNL     1       8.796  -6.053   1.171  0.00  0.00    -0.084 Cl
ENDBRANCH  10  14
BRANCH   1  22
ATOM     21  C   UNL     1       1.482   2.848  -0.766  0.00  0.00    +0.011 C 
ATOM     22  C   UNL     1       1.220   1.407  -0.323  0.00  0.00    -0.035 C 
ATOM     23  C   UNL     1       2.110   1.073   0.877  0.00  0.00    +0.011 C 
ATOM     24  C   UNL     1      -0.250   1.255   0.075  0.00  0.00    +0.011 C 
ENDBRANCH   1  22
TORSDOF 2
