REMARK  Name = ZINC21325403
REMARK  9 active torsions:
REMARK  status: ('A' for Active; 'I' for Inactive)
REMARK    1  A    between atoms: C_1  and  C_2
REMARK    2  A    between atoms: C_2  and  C_27
REMARK    3  A    between atoms: N_3  and  N_4
REMARK    4  A    between atoms: C_8  and  S_11
REMARK    5  A    between atoms: N_9  and  N_10
REMARK    6  A    between atoms: S_11  and  C_12
REMARK    7  A    between atoms: C_12  and  C_13
REMARK    8  A    between atoms: N_15  and  C_16
REMARK    9  A    between atoms: C_17  and  C_25
REMARK                            x       y       z     vdW  Elec       q    Type
REMARK                         _______ _______ _______ _____ _____    ______ ____
ROOT
ATOM      1  N   UNL     1      -4.411  13.129  -7.407  0.00  0.00    -0.204 N 
ATOM      2  C   UNL     1      -4.027  12.228  -6.425  0.00  0.00    +0.254 A 
ATOM      3  N   UNL     1      -3.832  12.505  -5.158  0.00  0.00    -0.109 NA
ATOM      4  N   UNL     1      -3.460  11.320  -4.509  0.00  0.00    -0.119 NA
ATOM      5  C   UNL     1      -3.431  10.360  -5.402  0.00  0.00    +0.210 A 
ATOM      6  N   UNL     1      -3.784  10.895  -6.608  0.00  0.00    -0.211 N 
ATOM      7  H   UNL     1      -4.546  12.788  -8.444  0.00  0.00    +0.178 HD
ENDROOT
BRANCH   1  10
ATOM      8  C   UNL     1      -5.172  14.851  -9.420  0.00  0.00    +0.068 C 
ATOM      9  C   UNL     1      -4.988  15.319  -7.999  0.00  0.00    +0.070 C 
ATOM     10  N   UNL     1      -4.627  14.473  -7.078  0.00  0.00    -0.184 NA
BRANCH   9  11
ATOM     11  C   UNL     1      -5.214  16.726  -7.654  0.00  0.00    +0.035 A 
ATOM     12  C   UNL     1      -5.101  17.353  -6.426  0.00  0.00    +0.017 A 
ATOM     13  C   UNL     1      -5.369  18.701  -6.352  0.00  0.00    +0.008 A 
ATOM     14  C   UNL     1      -5.733  19.369  -7.477  0.00  0.00    +0.046 A 
ATOM     15  S   UNL     1      -5.700  18.080  -8.712  0.00  0.00    -0.095 S 
ENDBRANCH   9  11
ENDBRANCH   1  10
BRANCH   6  16
ATOM     16  N   UNL     1      -3.878  10.216  -7.790  0.00  0.00    -0.294 N 
ATOM     17  H   UNL     1      -3.659   9.139  -7.825  0.00  0.00    +0.163 HD
ATOM     18  H   UNL     1      -4.173  10.748  -8.707  0.00  0.00    +0.163 HD
ENDBRANCH   6  16
BRANCH   5  19
ATOM     19  S   UNL     1      -3.017   8.675  -5.097  0.00  0.00    -0.075 S 
BRANCH  19  20
ATOM     20  C   UNL     1      -2.653   8.627  -3.320  0.00  0.00    +0.173 C 
BRANCH  20  21
ATOM     21  C   UNL     1      -2.279   7.222  -2.922  0.00  0.00    +0.228 C 
ATOM     22  O   UNL     1      -2.260   6.341  -3.755  0.00  0.00    -0.275 OA
ATOM     23  N   UNL     1      -1.965   6.946  -1.641  0.00  0.00    -0.278 N 
ATOM     24  H   UNL     1      -1.982   7.746  -0.886  0.00  0.00    +0.155 HD
BRANCH  23  25
ATOM     25  C   UNL     1      -1.621   5.653  -1.274  0.00  0.00    +0.090 A 
ATOM     26  C   UNL     1      -1.271   5.177  -0.019  0.00  0.00    +0.084 A 
ATOM     27  C   UNL     1      -0.951   3.765   0.100  0.00  0.00    -0.018 A 
ATOM     28  C   UNL     1      -1.032   3.059  -1.049  0.00  0.00    -0.004 A 
ATOM     29  S   UNL     1      -1.524   4.240  -2.273  0.00  0.00    -0.077 S 
ATOM     30  C   UNL     1      -0.761   1.597  -1.232  0.00  0.00    +0.043 C 
ATOM     31  C   UNL     1      -0.013   1.086   0.008  0.00  0.00    +0.005 C 
ATOM     32  C   UNL     1      -0.735   1.583   1.264  0.00  0.00    +0.005 C 
ATOM     33  C   UNL     1      -0.551   3.094   1.407  0.00  0.00    +0.037 C 
BRANCH  26  34
ATOM     34  C   UNL     1      -1.226   6.046   1.118  0.00  0.00    +0.102 C 
ATOM     35  N   UNL     1      -1.191   6.736   2.020  0.00  0.00    -0.191 NA
ENDBRANCH  26  34
ENDBRANCH  23  25
ENDBRANCH  20  21
ENDBRANCH  19  20
ENDBRANCH   5  19
TORSDOF 8
