REMARK  Name = ZINC36313441
REMARK  18 active torsions:
REMARK  status: ('A' for Active; 'I' for Inactive)
REMARK    1  A    between atoms: C_1  and  C_2
REMARK    2  A    between atoms: C_2  and  C_3
REMARK    3  A    between atoms: C_3  and  C_4
REMARK    4  A    between atoms: C_4  and  O_6
REMARK    5  A    between atoms: O_6  and  C_7
REMARK    6  A    between atoms: C_7  and  C_8
REMARK    7  A    between atoms: C_8  and  C_10
REMARK    8  A    between atoms: C_8  and  O_36
REMARK    9  A    between atoms: C_10  and  N_11
REMARK   10  A    between atoms: N_11  and  C_12
REMARK   11  A    between atoms: N_11  and  C_17
REMARK   12  A    between atoms: C_12  and  C_13
REMARK   13  A    between atoms: C_13  and  C_14
REMARK   14  A    between atoms: C_14  and  C_15
REMARK   15  A    between atoms: C_14  and  C_16
REMARK   16  A    between atoms: C_17  and  C_18
REMARK   17  A    between atoms: C_19  and  C_29
REMARK   18  A    between atoms: C_22  and  N_23
REMARK                            x       y       z     vdW  Elec       q    Type
REMARK                         _______ _______ _______ _____ _____    ______ ____
ROOT
ATOM      1  C   UNL     1       2.921  -9.516   5.273  0.00  0.00    -0.035 C 
ENDROOT
BRANCH   1   2
ATOM      2  C   UNL     1       3.309  -8.956   6.617  0.00  0.00    +0.025 A 
ATOM      3  C   UNL     1       4.535  -8.335   6.935  0.00  0.00    +0.119 A 
ATOM      4  N   UNL     1       4.494  -7.981   8.199  0.00  0.00    -0.076 NA
ATOM      5  O   UNL     1       3.237  -8.369   8.721  0.00  0.00    -0.339 OA
ATOM      6  C   UNL     1       2.537  -8.953   7.733  0.00  0.00    +0.222 A 
BRANCH   3   7
ATOM      7  C   UNL     1       5.671  -8.119   6.004  0.00  0.00    +0.039 A 
ATOM      8  C   UNL     1       5.431  -7.799   4.670  0.00  0.00    +0.013 A 
ATOM      9  C   UNL     1       6.491  -7.599   3.809  0.00  0.00    +0.001 A 
ATOM     10  C   UNL     1       7.791  -7.717   4.268  0.00  0.00    +0.003 A 
ATOM     11  C   UNL     1       8.038  -8.035   5.590  0.00  0.00    +0.039 A 
ATOM     12  C   UNL     1       6.984  -8.231   6.464  0.00  0.00    +0.133 A 
ATOM     13  F   UNL     1       7.225  -8.537   7.758  0.00  0.00    -0.205 F 
ENDBRANCH   3   7
BRANCH   6  14
ATOM     14  N   UNL     1       1.257  -9.466   7.837  0.00  0.00    -0.295 N 
ATOM     15  C   UNL     1       1.030 -10.860   8.249  0.00  0.00    +0.136 C 
ATOM     16  C   UNL     1       0.001 -10.868   9.385  0.00  0.00    +0.179 C 
ATOM     17  O   UNL     1      -1.154 -10.130   8.978  0.00  0.00    -0.377 OA
ATOM     18  C   UNL     1      -0.902  -8.748   8.711  0.00  0.00    +0.179 C 
ATOM     19  C   UNL     1       0.081  -8.631   7.546  0.00  0.00    +0.136 C 
ENDBRANCH   6  14
ENDBRANCH   1   2
BRANCH   1  20
ATOM     20  N   UNL     1       1.711  -8.839   4.790  0.00  0.00    +0.384 N 
ATOM     21  H   UNL     1       0.962  -8.974   5.454  0.00  0.00    -0.081 HD
BRANCH  20  22
ATOM     22  C   UNL     1       1.320  -9.401   3.491  0.00  0.00    -0.043 C 
BRANCH  22  23
ATOM     23  C   UNL     1       0.948 -10.875   3.663  0.00  0.00    +0.136 C 
BRANCH  23  24
ATOM     24  O   UNL     1      -0.168 -10.984   4.549  0.00  0.00    -0.390 OA
ATOM     25  H   UNL     1      -0.982 -10.587   4.207  0.00  0.00    +0.210 HD
ENDBRANCH  23  24
BRANCH  23  26
ATOM     26  C   UNL     1       0.579 -11.471   2.303  0.00  0.00    +0.261 C 
BRANCH  26  27
ATOM     27  O   UNL     1       0.344 -12.873   2.446  0.00  0.00    -0.462 OA
BRANCH  27  28
ATOM     28  C   UNL     1       0.008 -13.550   1.336  0.00  0.00    +0.307 C 
ATOM     29  O   UNL     1      -0.083 -12.972   0.280  0.00  0.00    -0.251 OA
BRANCH  28  30
ATOM     30  C   UNL     1      -0.255 -15.033   1.409  0.00  0.00    +0.120 C 
BRANCH  30  32
ATOM     31  C   UNL     1      -0.882 -17.060   0.091  0.00  0.00    +0.004 C 
ATOM     32  C   UNL     1      -0.615 -15.555   0.017  0.00  0.00    +0.008 C 
ENDBRANCH  30  32
ENDBRANCH  28  30
ENDBRANCH  27  28
ENDBRANCH  26  27
ENDBRANCH  23  26
ENDBRANCH  22  23
ENDBRANCH  20  22
BRANCH  20  33
ATOM     33  C   UNL     1       1.979  -7.402   4.642  0.00  0.00    -0.078 C 
BRANCH  33  34
ATOM     34  C   UNL     1       0.683  -6.676   4.278  0.00  0.00    -0.016 C 
BRANCH  34  35
ATOM     35  C   UNL     1       0.965  -5.181   4.112  0.00  0.00    -0.019 C 
ATOM     36  C   UNL     1       1.898  -4.968   2.917  0.00  0.00    +0.007 C 
ATOM     37  C   UNL     1      -0.350  -4.438   3.871  0.00  0.00    +0.007 C 
ENDBRANCH  34  35
ENDBRANCH  33  34
ENDBRANCH  20  33
ENDBRANCH   1  20
TORSDOF 15
