REMARK  Name = ZINC25406829
REMARK  10 active torsions:
REMARK  status: ('A' for Active; 'I' for Inactive)
REMARK    1  A    between atoms: C_1  and  C_2
REMARK    2  A    between atoms: C_2  and  N_3
REMARK    3  A    between atoms: N_14  and  N_15
REMARK    4  A    between atoms: C_16  and  C_18
REMARK    5  A    between atoms: C_18  and  C_20
REMARK    6  A    between atoms: C_18  and  N_23
REMARK    7  A    between atoms: C_20  and  C_21
REMARK    8  A    between atoms: C_20  and  C_22
REMARK    9  A    between atoms: N_23  and  S_24
REMARK   10  A    between atoms: S_24  and  C_27
REMARK                            x       y       z     vdW  Elec       q    Type
REMARK                         _______ _______ _______ _____ _____    ______ ____
ROOT
ATOM      1  N   UNL     1      -0.759   1.002   2.487  0.00  0.00    -0.233 N 
ATOM      2  C   UNL     1      -1.094   1.123   1.187  0.00  0.00    +0.248 C 
ATOM      3  O   UNL     1      -2.249   1.324   0.874  0.00  0.00    -0.273 OA
ATOM      4  H   UNL     1       0.297   0.895   2.775  0.00  0.00    +0.173 HD
ENDROOT
BRANCH   1  16
ATOM      5  N   UNL     1      -2.413   0.902   5.726  0.00  0.00    -0.280 N 
ATOM      6  C   UNL     1      -2.124   0.783   7.043  0.00  0.00    +0.263 A 
ATOM      7  O   UNL     1      -3.004   0.794   7.885  0.00  0.00    -0.267 OA
ATOM      8  C   UNL     1      -0.712   0.641   7.419  0.00  0.00    +0.065 A 
ATOM      9  C   UNL     1      -0.312   0.512   8.748  0.00  0.00    +0.015 A 
ATOM     10  C   UNL     1       1.017   0.382   9.043  0.00  0.00    +0.001 A 
ATOM     11  C   UNL     1       1.971   0.377   8.033  0.00  0.00    +0.002 A 
ATOM     12  C   UNL     1       1.607   0.501   6.722  0.00  0.00    +0.028 A 
ATOM     13  C   UNL     1       0.256   0.636   6.389  0.00  0.00    +0.080 A 
ATOM     14  N   UNL     1      -0.150   0.757   5.103  0.00  0.00    -0.214 NA
ATOM     15  C   UNL     1      -1.416   0.888   4.794  0.00  0.00    +0.216 A 
ATOM     16  N   UNL     1      -1.757   1.012   3.471  0.00  0.00    -0.234 N 
ATOM     17  H   UNL     1      -2.813   1.119   3.182  0.00  0.00    +0.173 HD
BRANCH   5  19
ATOM     18  C   UNL     1      -4.408  -0.338   5.044  0.00  0.00    +0.027 C 
ATOM     19  C   UNL     1      -3.806   1.046   5.297  0.00  0.00    +0.125 C 
ENDBRANCH   5  19
ENDBRANCH   1  16
BRANCH   2  20
ATOM     20  C   UNL     1      -0.034   1.010   0.122  0.00  0.00    +0.166 C 
BRANCH  20  21
ATOM     21  C   UNL     1       0.875   2.240   0.174  0.00  0.00    +0.010 C 
ATOM     22  C   UNL     1       1.992   2.092  -0.861  0.00  0.00    +0.009 C 
ATOM     23  C   UNL     1       0.055   3.494  -0.135  0.00  0.00    +0.009 C 
ENDBRANCH  20  21
BRANCH  20  24
ATOM     24  N   UNL     1      -0.671   0.929  -1.195  0.00  0.00    -0.178 NA
ATOM     25  H   UNL     1      -1.401   1.693  -1.500  0.00  0.00    +0.149 HD
BRANCH  24  26
ATOM     26  S   UNL     1      -0.486  -0.430  -2.122  0.00  0.00    +0.059 S 
ATOM     27  O   UNL     1      -1.206  -0.202  -3.326  0.00  0.00    -0.153 OA
ATOM     28  O   UNL     1       0.900  -0.745  -2.111  0.00  0.00    -0.153 OA
BRANCH  26  29
ATOM     29  C   UNL     1      -1.308  -1.746  -1.286  0.00  0.00    +0.106 A 
ATOM     30  C   UNL     1      -0.601  -2.527  -0.373  0.00  0.00    +0.029 A 
ATOM     31  C   UNL     1      -1.207  -3.547   0.293  0.00  0.00    +0.010 A 
ATOM     32  C   UNL     1      -2.563  -3.828   0.050  0.00  0.00    -0.018 A 
ATOM     33  C   UNL     1      -3.221  -4.878   0.714  0.00  0.00    +0.008 A 
ATOM     34  C   UNL     1      -4.534  -5.120   0.454  0.00  0.00    +0.001 A 
ATOM     35  C   UNL     1      -5.240  -4.343  -0.463  0.00  0.00    +0.001 A 
ATOM     36  C   UNL     1      -4.635  -3.319  -1.125  0.00  0.00    +0.008 A 
ATOM     37  C   UNL     1      -3.280  -3.038  -0.882  0.00  0.00    -0.016 A 
ATOM     38  C   UNL     1      -2.622  -1.989  -1.546  0.00  0.00    +0.037 A 
ENDBRANCH  26  29
ENDBRANCH  24  26
ENDBRANCH  20  24
ENDBRANCH   2  20
TORSDOF 7
