REMARK  Name = ZINC39794291
REMARK  9 active torsions:
REMARK  status: ('A' for Active; 'I' for Inactive)
REMARK    1  A    between atoms: C_1  and  C_2
REMARK    2  A    between atoms: C_3  and  C_28
REMARK    3  A    between atoms: C_5  and  N_11
REMARK    4  A    between atoms: C_6  and  C_7
REMARK    5  A    between atoms: C_7  and  O_9
REMARK    6  A    between atoms: O_9  and  C_10
REMARK    7  A    between atoms: C_12  and  C_14
REMARK    8  A    between atoms: C_16  and  C_20
REMARK    9  A    between atoms: C_18  and  C_19
REMARK                            x       y       z     vdW  Elec       q    Type
REMARK                         _______ _______ _______ _____ _____    ______ ____
ROOT
ATOM      1  N   UNL     1       0.054  -3.118   2.080  0.00  0.00    -0.275 N 
ATOM      2  C   UNL     1       0.070  -4.427   1.758  0.00  0.00    +0.252 C 
ATOM      3  O   UNL     1       0.070  -4.766   0.590  0.00  0.00    -0.270 OA
ATOM      4  H   UNL     1       0.054  -2.848   3.011  0.00  0.00    +0.156 HD
ENDROOT
BRANCH   1   9
ATOM      5  C   UNL     1      -0.018   1.503   0.010  0.00  0.00    +0.045 C 
ATOM      6  C   UNL     1       0.002  -0.004   0.002  0.00  0.00    -0.025 A 
ATOM      7  C   UNL     1       0.006  -0.712  -1.142  0.00  0.00    -0.008 A 
ATOM      8  S   UNL     1       0.032  -2.400  -0.580  0.00  0.00    -0.078 S 
ATOM      9  C   UNL     1       0.036  -2.159   1.081  0.00  0.00    +0.087 A 
ATOM     10  C   UNL     1       0.024  -0.778   1.223  0.00  0.00    +0.091 A 
ATOM     11  C   UNL     1      -0.007  -0.199  -2.559  0.00  0.00    +0.052 C 
BRANCH  10  12
ATOM     12  C   UNL     1       0.028  -0.139   2.540  0.00  0.00    +0.342 C 
ATOM     13  O   UNL     1      -1.024   0.112   3.097  0.00  0.00    -0.245 OA
BRANCH  12  14
ATOM     14  O   UNL     1       1.198   0.171   3.136  0.00  0.00    -0.464 OA
ATOM     15  C   UNL     1       1.127   0.793   4.420  0.00  0.00    +0.280 C 
ENDBRANCH  12  14
ENDBRANCH  10  12
ENDBRANCH   1   9
BRANCH   2  16
ATOM     16  C   UNL     1       0.089  -5.447   2.822  0.00  0.00    +0.078 A 
ATOM     17  C   UNL     1       0.085  -5.216   4.270  0.00  0.00    +0.063 A 
ATOM     18  C   UNL     1       0.107  -6.445   4.842  0.00  0.00    +0.136 A 
ATOM     19  O   UNL     1       0.122  -7.376   3.870  0.00  0.00    -0.459 OA
ATOM     20  C   UNL     1       0.107  -6.804   2.662  0.00  0.00    +0.115 A 
ATOM     21  C   UNL     1       0.113  -7.534   1.344  0.00  0.00    +0.087 C 
BRANCH  18  22
ATOM     22  C   UNL     1       0.112  -6.719   6.295  0.00  0.00    +0.020 A 
ATOM     23  C   UNL     1       0.089  -5.662   7.206  0.00  0.00    +0.031 A 
ATOM     24  C   UNL     1       0.094  -5.924   8.562  0.00  0.00    +0.043 A 
ATOM     25  C   UNL     1       0.123  -7.231   9.018  0.00  0.00    +0.040 A 
ATOM     26  C   UNL     1       0.147  -8.283   8.118  0.00  0.00    +0.043 A 
ATOM     27  C   UNL     1       0.135  -8.034   6.760  0.00  0.00    +0.031 A 
ATOM     28 CL   UNL     1       0.184  -9.919   8.699  0.00  0.00    -0.083 Cl
ATOM     29 CL   UNL     1       0.066  -4.611   9.698  0.00  0.00    -0.083 Cl
ENDBRANCH  18  22
ENDBRANCH   2  16
TORSDOF 5
