REMARK  Name = ZINC39612190
REMARK  11 active torsions:
REMARK  status: ('A' for Active; 'I' for Inactive)
REMARK    1  A    between atoms: C_1  and  C_2
REMARK    2  A    between atoms: C_2  and  C_3
REMARK    3  A    between atoms: C_3  and  N_4
REMARK    4  A    between atoms: C_8  and  C_10
REMARK    5  A    between atoms: C_10  and  O_11
REMARK    6  A    between atoms: O_11  and  C_12
REMARK    7  A    between atoms: C_12  and  C_14
REMARK    8  A    between atoms: C_14  and  C_16
REMARK    9  A    between atoms: C_14  and  N_27
REMARK   10  A    between atoms: C_16  and  C_17
REMARK   11  A    between atoms: C_28  and  C_30
REMARK                            x       y       z     vdW  Elec       q    Type
REMARK                         _______ _______ _______ _____ _____    ______ ____
ROOT
ATOM      1  C   UNL     1      -6.574  -8.655   0.018  0.00  0.00    +0.186 C 
ENDROOT
BRANCH   1   2
ATOM      2  N   UNL     1      -6.477 -10.117   0.010  0.00  0.00    -0.298 N 
ATOM      3  C   UNL     1      -7.483 -10.861   0.508  0.00  0.00    +0.246 C 
ATOM      4  O   UNL     1      -8.471 -10.320   0.966  0.00  0.00    -0.270 OA
ATOM      5  H   UNL     1      -5.689 -10.549  -0.355  0.00  0.00    +0.150 HD
BRANCH   3   6
ATOM      6  C   UNL     1      -7.386 -12.336   0.500  0.00  0.00    +0.055 A 
ATOM      7  C   UNL     1      -6.250 -12.961  -0.019  0.00  0.00    +0.014 A 
ATOM      8  C   UNL     1      -6.166 -14.337  -0.024  0.00  0.00    +0.001 A 
ATOM      9  C   UNL     1      -7.203 -15.100   0.483  0.00  0.00    +0.001 A 
ATOM     10  C   UNL     1      -8.331 -14.489   0.999  0.00  0.00    +0.021 A 
ATOM     11  C   UNL     1      -8.427 -13.111   1.016  0.00  0.00    +0.053 A 
ATOM     12 CL   UNL     1      -9.841 -12.345   1.671  0.00  0.00    -0.083 Cl
ENDBRANCH   3   6
ENDBRANCH   1   2
BRANCH   1  13
ATOM     13  C   UNL     1      -5.189  -8.060   0.008  0.00  0.00    +0.328 C 
ATOM     14  O   UNL     1      -4.221  -8.783  -0.005  0.00  0.00    -0.249 OA
BRANCH  13  15
ATOM     15  O   UNL     1      -5.031  -6.727   0.014  0.00  0.00    -0.454 OA
BRANCH  15  16
ATOM     16  C   UNL     1      -3.691  -6.232   0.004  0.00  0.00    +0.328 C 
BRANCH  16  21
ATOM     17  N   UNL     1      -1.413  -1.998   0.005  0.00  0.00    -0.299 N 
ATOM     18  C   UNL     1      -2.571  -2.688   0.012  0.00  0.00    +0.306 C 
ATOM     19  O   UNL     1      -3.632  -2.095   0.025  0.00  0.00    -0.252 OA
ATOM     20  N   UNL     1      -2.553  -4.036   0.005  0.00  0.00    -0.237 N 
ATOM     21  C   UNL     1      -3.711  -4.726   0.012  0.00  0.00    +0.258 C 
ATOM     22  O   UNL     1      -4.769  -4.134   0.025  0.00  0.00    -0.272 OA
ATOM     23  H   UNL     1      -0.567  -2.472  -0.006  0.00  0.00    +0.150 HD
ATOM     24  H   UNL     1      -1.707  -4.509  -0.006  0.00  0.00    +0.159 HD
BRANCH  17  25
ATOM     25  C   UNL     1      -1.433  -0.534   0.013  0.00  0.00    +0.105 C 
BRANCH  25  27
ATOM     26  C   UNL     1      -0.019   1.526   0.010  0.00  0.00    +0.005 C 
ATOM     27  C   UNL     1       0.002  -0.004   0.002  0.00  0.00    +0.015 C 
ENDBRANCH  25  27
ENDBRANCH  17  25
ENDBRANCH  16  21
ENDBRANCH  15  16
ENDBRANCH  13  15
ENDBRANCH   1  13
BRANCH   1  28
ATOM     28  C   UNL     1      -7.339  -8.187  -1.221  0.00  0.00    +0.071 C 
BRANCH  28  29
ATOM     29  C   UNL     1      -8.761  -8.681  -1.150  0.00  0.00    -0.020 A 
ATOM     30  C   UNL     1      -9.245  -9.802  -1.706  0.00  0.00    +0.087 A 
ATOM     31  N   UNL     1     -10.580  -9.921  -1.429  0.00  0.00    -0.360 N 
ATOM     32  H   UNL     1     -11.147 -10.650  -1.724  0.00  0.00    +0.165 HD
ATOM     33  C   UNL     1     -10.998  -8.852  -0.669  0.00  0.00    +0.047 A 
ATOM     34  C   UNL     1      -9.875  -8.031  -0.456  0.00  0.00    +0.003 A 
ATOM     35  C   UNL     1     -10.000  -6.862   0.297  0.00  0.00    +0.010 A 
ATOM     36  C   UNL     1     -11.213  -6.522   0.826  0.00  0.00    +0.001 A 
ATOM     37  C   UNL     1     -12.323  -7.330   0.621  0.00  0.00    +0.002 A 
ATOM     38  C   UNL     1     -12.224  -8.484  -0.126  0.00  0.00    +0.026 A 
ENDBRANCH  28  29
ENDBRANCH   1  28
TORSDOF 10
