REMARK  Name = ZINC13129617
REMARK  7 active torsions:
REMARK  status: ('A' for Active; 'I' for Inactive)
REMARK    1  A    between atoms: C_1  and  N_2
REMARK    2  A    between atoms: C_6  and  S_7
REMARK    3  A    between atoms: S_7  and  C_8
REMARK    4  A    between atoms: C_8  and  C_10
REMARK    5  A    between atoms: C_8  and  C_16
REMARK    6  A    between atoms: N_18  and  C_19
REMARK    7  A    between atoms: C_22  and  N_26
REMARK                            x       y       z     vdW  Elec       q    Type
REMARK                         _______ _______ _______ _____ _____    ______ ____
ROOT
ATOM      1  C   UNL     1      -0.790   4.104  -0.020  0.00  0.00    +0.170 C 
ENDROOT
BRANCH   1   2
ATOM      2  C   UNL     1      -1.867   5.128   0.229  0.00  0.00    -0.025 A 
ATOM      3  C   UNL     1      -2.941   5.225  -0.635  0.00  0.00    +0.005 A 
ATOM      4  C   UNL     1      -3.932   6.162  -0.404  0.00  0.00    +0.000 A 
ATOM      5  C   UNL     1      -3.843   7.006   0.687  0.00  0.00    +0.000 A 
ATOM      6  C   UNL     1      -2.766   6.912   1.548  0.00  0.00    +0.000 A 
ATOM      7  C   UNL     1      -1.778   5.973   1.319  0.00  0.00    +0.005 A 
ENDBRANCH   1   2
BRANCH   1   8
ATOM      8  C   UNL     1      -0.159   4.356  -1.365  0.00  0.00    +0.235 C 
ATOM      9  O   UNL     1      -0.796   4.902  -2.241  0.00  0.00    -0.274 OA
ATOM     10  N   UNL     1       1.113   3.974  -1.595  0.00  0.00    -0.283 N 
ATOM     11  H   UNL     1       1.645   3.600  -0.875  0.00  0.00    +0.155 HD
BRANCH  10  12
ATOM     12  C   UNL     1       1.666   4.116  -2.873  0.00  0.00    +0.048 A 
ATOM     13  C   UNL     1       1.296   5.186  -3.676  0.00  0.00    +0.026 A 
ATOM     14  C   UNL     1       1.843   5.324  -4.937  0.00  0.00    +0.034 A 
ATOM     15  C   UNL     1       2.760   4.397  -5.400  0.00  0.00    +0.127 A 
ATOM     16  C   UNL     1       3.131   3.331  -4.603  0.00  0.00    +0.049 A 
ATOM     17  C   UNL     1       2.591   3.190  -3.338  0.00  0.00    +0.041 A 
ATOM     18 BR   UNL     1       3.106   1.735  -2.246  0.00  0.00    -0.048 Br
BRANCH  15  19
ATOM     19  N   UNL     1       3.344   4.549  -6.751  0.00  0.00    +0.056 N 
ATOM     20  O   UNL     1       3.018   5.488  -7.454  0.00  0.00    -0.126 OA
ATOM     21  O   UNL     1       4.152   3.733  -7.160  0.00  0.00    -0.126 OA
ENDBRANCH  15  19
ENDBRANCH  10  12
ENDBRANCH   1   8
BRANCH   1  22
ATOM     22  S   UNL     1      -1.516   2.446   0.005  0.00  0.00    -0.068 S 
BRANCH  22  28
ATOM     23  C   UNL     1      -3.158   0.101   1.661  0.00  0.00    +0.152 C 
ATOM     24  N   UNL     1      -2.627   1.304   2.306  0.00  0.00    -0.312 N 
ATOM     25  C   UNL     1      -2.714   1.639   3.629  0.00  0.00    +0.225 A 
ATOM     26  N   UNL     1      -2.113   2.785   3.780  0.00  0.00    -0.137 NA
ATOM     27  N   UNL     1      -1.655   3.195   2.651  0.00  0.00    -0.123 NA
ATOM     28  C   UNL     1      -1.941   2.324   1.711  0.00  0.00    +0.192 A 
ENDBRANCH  22  28
ENDBRANCH   1  22
TORSDOF 6
