REMARK  Name = ZINC39966741
REMARK  11 active torsions:
REMARK  status: ('A' for Active; 'I' for Inactive)
REMARK    1  A    between atoms: C_1  and  C_2
REMARK    2  A    between atoms: C_2  and  C_3
REMARK    3  A    between atoms: C_2  and  N_4
REMARK    4  A    between atoms: C_5  and  C_7
REMARK    5  A    between atoms: C_10  and  N_13
REMARK    6  A    between atoms: C_14  and  C_16
REMARK    7  A    between atoms: C_16  and  S_17
REMARK    8  A    between atoms: S_17  and  C_18
REMARK    9  A    between atoms: C_21  and  C_26
REMARK   10  A    between atoms: N_22  and  C_23
REMARK   11  A    between atoms: C_23  and  C_24
REMARK                            x       y       z     vdW  Elec       q    Type
REMARK                         _______ _______ _______ _____ _____    ______ ____
ROOT
ATOM      1  S   UNL     1      -8.714  -6.970  -1.749  0.00  0.00    -0.077 S 
ENDROOT
BRANCH   1   2
ATOM      2  C   UNL     1     -10.426  -7.363  -1.893  0.00  0.00    +0.193 A 
ATOM      3  N   UNL     1     -11.433  -6.580  -1.585  0.00  0.00    -0.122 NA
ATOM      4  N   UNL     1     -12.546  -7.181  -1.813  0.00  0.00    -0.128 NA
ATOM      5  C   UNL     1     -12.317  -8.386  -2.282  0.00  0.00    +0.166 A 
ATOM      6  N   UNL     1     -10.953  -8.538  -2.353  0.00  0.00    -0.298 N 
BRANCH   5   7
ATOM      7  C   UNL     1     -13.335  -9.387  -2.666  0.00  0.00    +0.030 A 
ATOM      8  C   UNL     1     -13.235 -10.045  -3.857  0.00  0.00    +0.057 A 
ATOM      9  S   UNL     1     -14.673 -11.102  -3.814  0.00  0.00    -0.101 S 
ATOM     10  C   UNL     1     -15.296 -10.605  -2.228  0.00  0.00    -0.006 A 
ATOM     11  C   UNL     1     -14.411  -9.672  -1.800  0.00  0.00    -0.026 A 
ATOM     12  C   UNL     1     -14.576  -8.951  -0.465  0.00  0.00    +0.036 C 
ATOM     13  C   UNL     1     -15.360  -9.827   0.505  0.00  0.00    +0.005 C 
ATOM     14  C   UNL     1     -16.860  -9.565   0.378  0.00  0.00    +0.001 C 
ATOM     15  C   UNL     1     -17.340  -9.937  -1.022  0.00  0.00    +0.005 C 
ATOM     16  C   UNL     1     -16.511 -11.117  -1.524  0.00  0.00    +0.043 C 
ENDBRANCH   5   7
BRANCH   6  17
ATOM     17  C   UNL     1     -10.216  -9.715  -2.821  0.00  0.00    +0.152 C 
BRANCH  17  18
ATOM     18  C   UNL     1      -9.859 -10.585  -1.643  0.00  0.00    -0.013 C 
ATOM     19  C   UNL     1     -10.211 -11.847  -1.630  0.00  0.00    +0.005 C 
ENDBRANCH  17  18
ENDBRANCH   6  17
ENDBRANCH   1   2
BRANCH   1  20
ATOM     20  C   UNL     1      -8.706  -5.282  -1.084  0.00  0.00    +0.173 C 
BRANCH  20  22
ATOM     21  N   UNL     1      -7.031  -3.586  -0.425  0.00  0.00    -0.285 N 
ATOM     22  C   UNL     1      -7.283  -4.818  -0.909  0.00  0.00    +0.227 C 
ATOM     23  O   UNL     1      -6.365  -5.553  -1.204  0.00  0.00    -0.275 OA
ATOM     24  H   UNL     1      -7.762  -3.025  -0.122  0.00  0.00    +0.155 HD
BRANCH  21  28
ATOM     25  C   UNL     1      -3.113  -2.184  -0.235  0.00  0.00    +0.037 A 
ATOM     26  C   UNL     1      -3.502  -3.037  -1.271  0.00  0.00    +0.015 A 
ATOM     27  C   UNL     1      -4.797  -3.499  -1.331  0.00  0.00    +0.024 A 
ATOM     28  C   UNL     1      -5.719  -3.117  -0.361  0.00  0.00    +0.033 A 
ATOM     29  C   UNL     1      -5.335  -2.267   0.672  0.00  0.00    +0.024 A 
ATOM     30  C   UNL     1      -4.040  -1.806   0.741  0.00  0.00    +0.015 A 
BRANCH  25  32
ATOM     31  N   UNL     1      -0.832  -2.052  -1.108  0.00  0.00    -0.309 N 
ATOM     32  C   UNL     1      -1.725  -1.687  -0.167  0.00  0.00    +0.244 C 
ATOM     33  O   UNL     1      -1.387  -0.949   0.738  0.00  0.00    -0.270 OA
ATOM     34  H   UNL     1      -1.101  -2.641  -1.830  0.00  0.00    +0.149 HD
BRANCH  31  36
ATOM     35  C   UNL     1       1.473  -2.534  -1.771  0.00  0.00    +0.027 C 
ATOM     36  C   UNL     1       0.546  -1.559  -1.041  0.00  0.00    +0.067 C 
ATOM     37  C   UNL     1       0.629  -0.184  -1.706  0.00  0.00    +0.027 C 
ENDBRANCH  31  36
ENDBRANCH  25  32
ENDBRANCH  21  28
ENDBRANCH  20  22
ENDBRANCH   1  20
TORSDOF 9
