REMARK  Name = ZINC39630906
REMARK  12 active torsions:
REMARK  status: ('A' for Active; 'I' for Inactive)
REMARK    1  A    between atoms: C_1  and  C_2
REMARK    2  A    between atoms: C_2  and  C_3
REMARK    3  A    between atoms: C_2  and  C_4
REMARK    4  A    between atoms: C_2  and  C_34
REMARK    5  A    between atoms: C_4  and  N_5
REMARK    6  A    between atoms: C_6  and  C_8
REMARK    7  A    between atoms: C_19  and  C_21
REMARK    8  A    between atoms: C_26  and  S_27
REMARK    9  A    between atoms: S_27  and  C_28
REMARK   10  A    between atoms: C_34  and  N_35
REMARK   11  A    between atoms: N_35  and  C_36
REMARK   12  A    between atoms: N_35  and  C_37
REMARK                            x       y       z     vdW  Elec       q    Type
REMARK                         _______ _______ _______ _____ _____    ______ ____
ROOT
ATOM      1  C   UNL     1      -3.061   0.086   3.728  0.00  0.00    +0.100 C 
ATOM      2  C   UNL     1      -3.025   1.620   3.910  0.00  0.00    +0.121 C 
ATOM      3  N   UNL     1      -4.431   2.052   3.730  0.00  0.00    -0.296 N 
ATOM      4  C   UNL     1      -5.229   1.001   4.406  0.00  0.00    +0.115 C 
ATOM      5  C   UNL     1      -4.508  -0.316   4.058  0.00  0.00    -0.004 C 
ATOM      6  C   UNL     1      -5.164  -0.970   2.845  0.00  0.00    -0.010 C 
ATOM      7  C   UNL     1      -6.583  -1.413   3.215  0.00  0.00    -0.082 C 
ATOM      8  N   UNL     1      -6.526  -2.359   4.336  0.00  0.00    +0.379 N 
ATOM      9  C   UNL     1      -5.979  -1.695   5.525  0.00  0.00    -0.082 C 
ATOM     10  C   UNL     1      -4.535  -1.264   5.253  0.00  0.00    -0.010 C 
ATOM     11  C   UNL     1      -4.882   3.152   3.095  0.00  0.00    +0.249 C 
ATOM     12  O   UNL     1      -4.103   3.876   2.505  0.00  0.00    -0.270 OA
ATOM     13  H   UNL     1      -7.455  -2.696   4.538  0.00  0.00    -0.086 HD
ATOM     14  H   UNL     1      -5.935  -3.139   4.086  0.00  0.00    -0.086 HD
ENDROOT
BRANCH  11  15
ATOM     15  C   UNL     1      -6.319   3.477   3.116  0.00  0.00    +0.069 A 
ATOM     16  C   UNL     1      -7.095   3.205   4.249  0.00  0.00    +0.017 A 
ATOM     17  C   UNL     1      -8.440   3.530   4.219  0.00  0.00    +0.020 A 
ATOM     18  C   UNL     1      -8.976   4.109   3.082  0.00  0.00    +0.112 A 
ATOM     19  N   UNL     1      -8.229   4.358   2.024  0.00  0.00    -0.248 NA
ATOM     20  C   UNL     1      -6.935   4.072   2.001  0.00  0.00    +0.114 A 
BRANCH  20  21
ATOM     21  S   UNL     1      -5.984   4.432   0.563  0.00  0.00    -0.069 S 
BRANCH  21  22
ATOM     22  C   UNL     1      -7.109   5.285  -0.491  0.00  0.00    +0.014 A 
ATOM     23  C   UNL     1      -7.139   6.674  -0.499  0.00  0.00    +0.015 A 
ATOM     24  C   UNL     1      -8.022   7.340  -1.326  0.00  0.00    +0.001 A 
ATOM     25  C   UNL     1      -8.877   6.625  -2.145  0.00  0.00    +0.000 A 
ATOM     26  C   UNL     1      -8.851   5.242  -2.139  0.00  0.00    +0.001 A 
ATOM     27  C   UNL     1      -7.965   4.570  -1.319  0.00  0.00    +0.015 A 
ENDBRANCH  21  22
ENDBRANCH  20  21
ENDBRANCH  11  15
BRANCH   1  29
ATOM     28  N   UNL     1      -2.114  -1.453   2.039  0.00  0.00    -0.315 N 
ATOM     29  C   UNL     1      -2.725  -0.282   2.306  0.00  0.00    +0.218 C 
ATOM     30  O   UNL     1      -3.005   0.476   1.401  0.00  0.00    -0.275 OA
ATOM     31  H   UNL     1      -1.891  -2.059   2.762  0.00  0.00    +0.149 HD
BRANCH  28  32
ATOM     32  C   UNL     1      -1.788  -1.810   0.656  0.00  0.00    +0.108 C 
BRANCH  32  34
ATOM     33  C   UNL     1       0.180  -3.123   1.460  0.00  0.00    +0.010 C 
ATOM     34  C   UNL     1      -1.105  -3.179   0.631  0.00  0.00    -0.034 C 
ATOM     35  C   UNL     1      -2.047  -4.230   1.221  0.00  0.00    +0.010 C 
BRANCH  34  36
ATOM     36  C   UNL     1      -0.764  -3.552  -0.813  0.00  0.00    -0.072 C 
BRANCH  36  37
ATOM     37  N   UNL     1      -0.129  -4.877  -0.840  0.00  0.00    +0.376 N 
ATOM     38  C   UNL     1      -1.166  -5.916  -0.894  0.00  0.00    -0.097 C 
ATOM     39  C   UNL     1       0.734  -4.983  -2.024  0.00  0.00    -0.097 C 
ATOM     40  H   UNL     1       0.427  -5.000  -0.006  0.00  0.00    -0.083 HD
ENDBRANCH  36  37
ENDBRANCH  34  36
ENDBRANCH  32  34
ENDBRANCH  28  32
ENDBRANCH   1  29
TORSDOF 8
