REMARK  Name = ZINC09113791
REMARK  5 active torsions:
REMARK  status: ('A' for Active; 'I' for Inactive)
REMARK    1  A    between atoms: C_1  and  C_2
REMARK    2  A    between atoms: C_8  and  N_10
REMARK    3  A    between atoms: C_11  and  C_13
REMARK    4  A    between atoms: C_13  and  N_14
REMARK    5  A    between atoms: C_15  and  C_17
REMARK                            x       y       z     vdW  Elec       q    Type
REMARK                         _______ _______ _______ _____ _____    ______ ____
ROOT
ATOM      1  N   UNL     1       0.870   0.699  -5.961  0.00  0.00    -0.303 N 
ATOM      2  C   UNL     1       0.437   1.121  -7.166  0.00  0.00    +0.244 C 
ATOM      3  O   UNL     1      -0.725   1.446  -7.314  0.00  0.00    -0.270 OA
ATOM      4  H   UNL     1       1.797   0.440  -5.843  0.00  0.00    +0.150 HD
ENDROOT
BRANCH   2   5
ATOM      5  C   UNL     1       1.375   1.190  -8.306  0.00  0.00    +0.037 A 
ATOM      6  C   UNL     1       2.720   0.819  -8.126  0.00  0.00    +0.013 A 
ATOM      7  C   UNL     1       3.599   0.869  -9.159  0.00  0.00    +0.009 A 
ATOM      8  C   UNL     1       3.172   1.306 -10.426  0.00  0.00    -0.018 A 
ATOM      9  C   UNL     1       4.065   1.371 -11.509  0.00  0.00    +0.008 A 
ATOM     10  C   UNL     1       3.623   1.798 -12.724  0.00  0.00    +0.001 A 
ATOM     11  C   UNL     1       2.295   2.172 -12.913  0.00  0.00    +0.001 A 
ATOM     12  C   UNL     1       1.401   2.124 -11.888  0.00  0.00    +0.008 A 
ATOM     13  C   UNL     1       1.821   1.688 -10.618  0.00  0.00    -0.017 A 
ATOM     14  C   UNL     1       0.924   1.625  -9.541  0.00  0.00    +0.021 A 
ENDBRANCH   2   5
BRANCH   1  15
ATOM     15  C   UNL     1      -0.060   0.631  -4.831  0.00  0.00    +0.200 C 
BRANCH  15  17
ATOM     16  N   UNL     1       0.010  -0.012  -2.444  0.00  0.00    -0.311 N 
ATOM     17  C   UNL     1       0.669   0.132  -3.610  0.00  0.00    +0.230 C 
ATOM     18  O   UNL     1       1.849  -0.140  -3.677  0.00  0.00    -0.274 OA
ATOM     19  H   UNL     1      -0.934   0.205  -2.390  0.00  0.00    +0.149 HD
BRANCH  16  26
ATOM     20  C   UNL     1      -0.019   1.526   0.010  0.00  0.00    +0.009 C 
ATOM     21  C   UNL     1       0.002  -0.004   0.002  0.00  0.00    +0.006 C 
ATOM     22  C   UNL     1       0.742  -0.511   1.242  0.00  0.00    +0.005 C 
ATOM     23  C   UNL     1       0.763  -2.041   1.233  0.00  0.00    +0.000 C 
ATOM     24  C   UNL     1       1.479  -2.534  -0.026  0.00  0.00    +0.002 C 
ATOM     25  C   UNL     1       0.739  -2.027  -1.265  0.00  0.00    +0.022 C 
ATOM     26  C   UNL     1       0.718  -0.497  -1.257  0.00  0.00    +0.076 C 
ENDBRANCH  16  26
ENDBRANCH  15  17
ENDBRANCH   1  15
TORSDOF 4
