REMARK  Name = ZINC63237358
REMARK  11 active torsions:
REMARK  status: ('A' for Active; 'I' for Inactive)
REMARK    1  A    between atoms: C_1  and  C_2
REMARK    2  A    between atoms: C_2  and  O_3
REMARK    3  A    between atoms: O_3  and  C_4
REMARK    4  A    between atoms: C_4  and  C_6
REMARK    5  A    between atoms: C_8  and  N_17
REMARK    6  A    between atoms: C_18  and  C_20
REMARK    7  A    between atoms: C_20  and  O_21
REMARK    8  A    between atoms: O_21  and  C_22
REMARK    9  A    between atoms: C_22  and  C_24
REMARK   10  A    between atoms: C_24  and  C_25
REMARK   11  A    between atoms: C_25  and  C_26
REMARK                            x       y       z     vdW  Elec       q    Type
REMARK                         _______ _______ _______ _____ _____    ______ ____
ROOT
ATOM      1  N   UNL     1      -2.609  -1.859   2.427  0.00  0.00    -0.299 N 
ATOM      2  C   UNL     1      -2.728  -0.800   3.252  0.00  0.00    +0.252 C 
ATOM      3  O   UNL     1      -3.637  -0.012   3.101  0.00  0.00    -0.272 OA
ATOM      4  H   UNL     1      -1.881  -2.489   2.547  0.00  0.00    +0.150 HD
ENDROOT
BRANCH   1   6
ATOM      5  C   UNL     1      -2.881  -2.427   0.017  0.00  0.00    +0.155 C 
ATOM      6  C   UNL     1      -3.579  -2.058   1.347  0.00  0.00    +0.153 C 
ATOM      7  S   UNL     1      -4.553  -3.603   1.589  0.00  0.00    -0.106 S 
ATOM      8  C   UNL     1      -3.579  -4.685   0.569  0.00  0.00    -0.013 C 
ATOM      9  C   UNL     1      -2.776  -3.921  -0.159  0.00  0.00    -0.044 C 
ATOM     10  C   UNL     1      -1.784  -4.538  -1.143  0.00  0.00    +0.032 C 
ATOM     11  C   UNL     1      -1.579  -6.010  -0.791  0.00  0.00    +0.005 C 
ATOM     12  C   UNL     1      -2.941  -6.706  -0.692  0.00  0.00    +0.005 C 
ATOM     13  C   UNL     1      -3.662  -6.186   0.551  0.00  0.00    +0.042 C 
BRANCH   5  14
ATOM     14  C   UNL     1      -1.496  -1.832   0.006  0.00  0.00    +0.317 C 
ATOM     15  O   UNL     1      -0.578  -2.429   0.517  0.00  0.00    -0.250 OA
BRANCH  14  16
ATOM     16  O   UNL     1      -1.283  -0.638  -0.569  0.00  0.00    -0.464 OA
BRANCH  16  18
ATOM     17  C   UNL     1       0.101   1.226  -1.241  0.00  0.00    +0.048 C 
ATOM     18  C   UNL     1       0.054  -0.135  -0.542  0.00  0.00    +0.229 C 
ENDBRANCH  16  18
ENDBRANCH  14  16
ENDBRANCH   5  14
ENDBRANCH   1   6
BRANCH   2  19
ATOM     19  C   UNL     1      -1.729  -0.595   4.362  0.00  0.00    +0.327 C 
BRANCH  19  20
ATOM     20  O   UNL     1      -2.066   0.587   5.093  0.00  0.00    -0.455 OA
BRANCH  20  21
ATOM     21  C   UNL     1      -1.269   0.914   6.123  0.00  0.00    +0.308 C 
ATOM     22  O   UNL     1      -0.318   0.220   6.395  0.00  0.00    -0.251 OA
BRANCH  21  23
ATOM     23  C   UNL     1      -1.562   2.146   6.939  0.00  0.00    +0.125 C 
BRANCH  23  24
ATOM     24  C   UNL     1      -0.511   2.288   8.043  0.00  0.00    +0.044 C 
BRANCH  24  25
ATOM     25  C   UNL     1      -0.803   3.520   8.859  0.00  0.00    -0.041 C 
ATOM     26  C   UNL     1      -1.497   3.582  10.019  0.00  0.00    -0.001 A 
ATOM     27  C   UNL     1      -2.163   2.559  10.834  0.00  0.00    +0.010 A 
ATOM     28  C   UNL     1      -2.792   2.934  11.971  0.00  0.00    +0.001 A 
ATOM     29  C   UNL     1      -2.824   4.272  12.389  0.00  0.00    +0.002 A 
ATOM     30  C   UNL     1      -2.236   5.267  11.693  0.00  0.00    +0.026 A 
ATOM     31  C   UNL     1      -1.545   4.987  10.482  0.00  0.00    +0.043 A 
ATOM     32  N   UNL     1      -0.906   5.764   9.641  0.00  0.00    -0.380 N 
ATOM     33  C   UNL     1      -0.374   4.937   8.552  0.00  0.00    +0.144 C 
ATOM     34  H   UNL     1      -0.799   6.724   9.727  0.00  0.00    +0.160 HD
ENDBRANCH  24  25
ENDBRANCH  23  24
ENDBRANCH  21  23
ENDBRANCH  20  21
ENDBRANCH  19  20
ENDBRANCH   2  19
TORSDOF 10
