REMARK  Name = ZINC09339278
REMARK  3 active torsions:
REMARK  status: ('A' for Active; 'I' for Inactive)
REMARK    1  A    between atoms: C_1  and  C_2
REMARK    2  A    between atoms: C_4  and  C_13
REMARK    3  A    between atoms: C_5  and  C_12
REMARK                            x       y       z     vdW  Elec       q    Type
REMARK                         _______ _______ _______ _____ _____    ______ ____
ROOT
ATOM      1  C   UNL     1       4.867   1.526   0.619  0.00  0.00    +0.191 C 
ATOM      2  N   UNL     1       6.189   0.961   0.319  0.00  0.00    -0.322 N 
ATOM      3  C   UNL     1       7.309   1.765   0.494  0.00  0.00    +0.041 A 
ATOM      4  C   UNL     1       8.544   1.238   0.831  0.00  0.00    +0.024 A 
ATOM      5  C   UNL     1       9.625   2.082   0.998  0.00  0.00    +0.002 A 
ATOM      6  C   UNL     1       9.483   3.451   0.831  0.00  0.00    +0.001 A 
ATOM      7  C   UNL     1       8.259   3.992   0.494  0.00  0.00    +0.015 A 
ATOM      8  C   UNL     1       7.162   3.153   0.321  0.00  0.00    +0.058 A 
ATOM      9  C   UNL     1       5.834   3.677  -0.047  0.00  0.00    +0.247 C 
ATOM     10  O   UNL     1       5.713   4.819  -0.446  0.00  0.00    -0.270 OA
ATOM     11  N   UNL     1       4.755   2.875   0.066  0.00  0.00    -0.289 N 
ATOM     12  H   UNL     1       6.278   0.048   0.006  0.00  0.00    +0.148 HD
ATOM     13  H   UNL     1       3.888   3.200  -0.226  0.00  0.00    +0.151 HD
ENDROOT
BRANCH   1  17
ATOM     14  C   UNL     1       3.479   3.070   5.273  0.00  0.00    +0.064 C 
ATOM     15  C   UNL     1       4.063   2.270   4.138  0.00  0.00    +0.023 A 
ATOM     16  C   UNL     1       4.012   2.598   2.831  0.00  0.00    +0.030 A 
ATOM     17  C   UNL     1       4.676   1.582   2.113  0.00  0.00    +0.012 A 
ATOM     18  C   UNL     1       5.104   0.668   3.007  0.00  0.00    +0.029 A 
ATOM     19  N   UNL     1       4.736   1.086   4.255  0.00  0.00    -0.297 N 
ATOM     20  C   UNL     1       4.999   0.414   5.447  0.00  0.00    +0.178 A 
ATOM     21  N   UNL     1       5.632  -0.726   5.633  0.00  0.00    -0.231 NA
ATOM     22  C   UNL     1       5.800  -1.226   6.841  0.00  0.00    +0.121 A 
ATOM     23  C   UNL     1       5.293  -0.545   7.898  0.00  0.00    +0.068 A 
ATOM     24  S   UNL     1       4.568   0.862   7.069  0.00  0.00    -0.058 S 
ATOM     25  C   UNL     1       5.861  -0.595   2.685  0.00  0.00    +0.064 C 
ENDBRANCH   1  17
TORSDOF 1
