REMARK  Name = ZINC64055331
REMARK  9 active torsions:
REMARK  status: ('A' for Active; 'I' for Inactive)
REMARK    1  A    between atoms: C_1  and  N_2
REMARK    2  A    between atoms: N_2  and  C_3
REMARK    3  A    between atoms: N_2  and  C_4
REMARK    4  A    between atoms: C_7  and  N_10
REMARK    5  A    between atoms: C_11  and  C_13
REMARK    6  A    between atoms: C_13  and  S_14
REMARK    7  A    between atoms: S_14  and  C_15
REMARK    8  A    between atoms: C_18  and  C_26
REMARK    9  A    between atoms: N_19  and  C_20
REMARK                            x       y       z     vdW  Elec       q    Type
REMARK                         _______ _______ _______ _____ _____    ______ ____
ROOT
ATOM      1  C   UNL     1     -10.046  -2.867   0.527  0.00  0.00    +0.197 A 
ATOM      2  N   UNL     1     -10.042  -4.192   0.532  0.00  0.00    -0.122 NA
ATOM      3  N   UNL     1     -11.242  -4.639   0.643  0.00  0.00    -0.128 NA
ATOM      4  C   UNL     1     -12.093  -3.625   0.716  0.00  0.00    +0.168 A 
ATOM      5  N   UNL     1     -11.343  -2.462   0.649  0.00  0.00    -0.270 N 
ENDROOT
BRANCH   4   6
ATOM      6  C   UNL     1     -13.488  -3.713   0.843  0.00  0.00    +0.025 C 
ATOM      7  C   UNL     1     -14.256  -4.875   0.924  0.00  0.00    +0.006 A 
ATOM      8  C   UNL     1     -13.917  -6.245   0.907  0.00  0.00    +0.010 A 
ATOM      9  C   UNL     1     -14.895  -7.181   1.005  0.00  0.00    +0.001 A 
ATOM     10  C   UNL     1     -16.240  -6.825   1.123  0.00  0.00    +0.002 A 
ATOM     11  C   UNL     1     -16.638  -5.529   1.146  0.00  0.00    +0.026 A 
ATOM     12  C   UNL     1     -15.672  -4.494   1.049  0.00  0.00    +0.043 A 
ATOM     13  N   UNL     1     -15.799  -3.181   1.047  0.00  0.00    -0.380 N 
ATOM     14  C   UNL     1     -14.473  -2.567   0.928  0.00  0.00    +0.152 C 
ATOM     15  H   UNL     1     -16.637  -2.698   1.118  0.00  0.00    +0.160 HD
ENDBRANCH   4   6
BRANCH   5  16
ATOM     16  C   UNL     1     -11.817  -1.145   0.693  0.00  0.00    +0.050 A 
ATOM     17  C   UNL     1     -12.420  -0.662   1.847  0.00  0.00    +0.026 A 
ATOM     18  C   UNL     1     -12.887   0.638   1.888  0.00  0.00    +0.002 A 
ATOM     19  C   UNL     1     -12.754   1.457   0.782  0.00  0.00    +0.000 A 
ATOM     20  C   UNL     1     -12.153   0.978  -0.368  0.00  0.00    +0.002 A 
ATOM     21  C   UNL     1     -11.680  -0.318  -0.414  0.00  0.00    +0.026 A 
ENDBRANCH   5  16
BRANCH   1  22
ATOM     22  S   UNL     1      -8.635  -1.821   0.394  0.00  0.00    -0.076 S 
BRANCH  22  23
ATOM     23  C   UNL     1      -7.243  -2.976   0.263  0.00  0.00    +0.173 C 
BRANCH  23  25
ATOM     24  N   UNL     1      -4.783  -2.854   0.031  0.00  0.00    -0.285 N 
ATOM     25  C   UNL     1      -5.956  -2.200   0.142  0.00  0.00    +0.227 C 
ATOM     26  O   UNL     1      -5.977  -0.988   0.144  0.00  0.00    -0.275 OA
ATOM     27  H   UNL     1      -4.772  -3.821  -0.047  0.00  0.00    +0.155 HD
BRANCH  24  31
ATOM     28  C   UNL     1      -1.199  -0.722   0.028  0.00  0.00    +0.029 A 
ATOM     29  C   UNL     1      -2.275  -0.270   0.780  0.00  0.00    +0.025 A 
ATOM     30  C   UNL     1      -3.462  -0.976   0.781  0.00  0.00    +0.025 A 
ATOM     31  C   UNL     1      -3.579  -2.138   0.030  0.00  0.00    +0.034 A 
ATOM     32  C   UNL     1      -2.503  -2.590  -0.722  0.00  0.00    +0.025 A 
ATOM     33  C   UNL     1      -1.318  -1.880  -0.729  0.00  0.00    +0.025 A 
BRANCH  28  35
ATOM     34  C   UNL     1       1.137  -0.480  -0.772  0.00  0.00    +0.129 C 
ATOM     35  N   UNL     1       0.004  -0.006   0.027  0.00  0.00    -0.336 N 
ATOM     36  C   UNL     1       0.129   1.216   0.825  0.00  0.00    +0.129 C 
ENDBRANCH  28  35
ENDBRANCH  24  31
ENDBRANCH  23  25
ENDBRANCH  22  23
ENDBRANCH   1  22
TORSDOF 7
