REMARK  Name = ZINC22521943
REMARK  11 active torsions:
REMARK  status: ('A' for Active; 'I' for Inactive)
REMARK    1  A    between atoms: C_1  and  C_2
REMARK    2  A    between atoms: C_2  and  C_3
REMARK    3  A    between atoms: C_8  and  N_9
REMARK    4  A    between atoms: C_10  and  C_12
REMARK    5  A    between atoms: C_12  and  O_13
REMARK    6  A    between atoms: O_13  and  C_14
REMARK    7  A    between atoms: C_14  and  C_16
REMARK    8  A    between atoms: C_16  and  N_17
REMARK    9  A    between atoms: C_22  and  C_29
REMARK   10  A    between atoms: C_25  and  C_27
REMARK   11  A    between atoms: C_25  and  C_28
REMARK                            x       y       z     vdW  Elec       q    Type
REMARK                         _______ _______ _______ _____ _____    ______ ____
ROOT
ATOM      1  C   UNL     1       0.504   2.313  -0.106  0.00  0.00    +0.238 C 
ENDROOT
BRANCH   1   2
ATOM      2  N   UNL     1      -0.355   2.497  -1.278  0.00  0.00    -0.213 N 
ATOM      3  C   UNL     1      -1.288   1.610  -1.681  0.00  0.00    +0.247 C 
ATOM      4  O   UNL     1      -1.565   0.549  -1.163  0.00  0.00    -0.273 OA
ATOM      5  C   UNL     1      -1.918   2.218  -2.913  0.00  0.00    +0.113 C 
ATOM      6  C   UNL     1      -1.701   1.310  -4.119  0.00  0.00    +0.038 C 
ATOM      7  C   UNL     1      -2.311   1.959  -5.364  0.00  0.00    -0.011 C 
ATOM      8  C   UNL     1      -3.807   2.186  -5.138  0.00  0.00    +0.009 C 
ATOM      9  C   UNL     1      -4.009   3.114  -3.938  0.00  0.00    -0.032 C 
ATOM     10  C   UNL     1      -3.405   2.470  -2.688  0.00  0.00    +0.041 C 
ATOM     11  C   UNL     1      -5.505   3.348  -3.720  0.00  0.00    +0.011 C 
ATOM     12  C   UNL     1      -3.318   4.453  -4.207  0.00  0.00    +0.011 C 
ATOM     13  C   UNL     1      -2.112   1.038  -6.570  0.00  0.00    +0.007 C 
ATOM     14  N   UNL     1      -1.202   3.488  -3.090  0.00  0.00    -0.285 N 
ATOM     15  C   UNL     1      -0.308   3.563  -2.086  0.00  0.00    +0.310 C 
ATOM     16  O   UNL     1       0.457   4.495  -1.931  0.00  0.00    -0.252 OA
ATOM     17  H   UNL     1      -1.457   4.150  -3.930  0.00  0.00    +0.151 HD
ENDBRANCH   1   2
BRANCH   1  18
ATOM     18  C   UNL     1      -0.167   2.906   1.106  0.00  0.00    +0.326 C 
ATOM     19  O   UNL     1      -1.251   3.429   1.002  0.00  0.00    -0.249 OA
BRANCH  18  20
ATOM     20  O   UNL     1       0.441   2.854   2.302  0.00  0.00    -0.454 OA
BRANCH  20  21
ATOM     21  C   UNL     1      -0.264   3.445   3.426  0.00  0.00    +0.328 C 
BRANCH  21  23
ATOM     22  N   UNL     1       0.108   3.770   5.849  0.00  0.00    -0.282 N 
ATOM     23  C   UNL     1       0.565   3.293   4.675  0.00  0.00    +0.255 C 
ATOM     24  O   UNL     1       1.644   2.740   4.623  0.00  0.00    -0.272 OA
ATOM     25  H   UNL     1      -0.899   4.207   5.911  0.00  0.00    +0.155 HD
BRANCH  22  31
ATOM     26  C   UNL     1       0.735   4.625   8.020  0.00  0.00    -0.026 A 
ATOM     27  C   UNL     1       1.533   4.563   9.145  0.00  0.00    +0.005 A 
ATOM     28  C   UNL     1       2.512   3.592   9.248  0.00  0.00    +0.000 A 
ATOM     29  C   UNL     1       2.694   2.679   8.225  0.00  0.00    +0.002 A 
ATOM     30  C   UNL     1       1.896   2.732   7.099  0.00  0.00    +0.023 A 
ATOM     31  C   UNL     1       0.916   3.710   6.991  0.00  0.00    +0.037 A 
BRANCH  26  33
ATOM     32  C   UNL     1      -1.670   5.111   8.380  0.00  0.00    +0.009 C 
ATOM     33  C   UNL     1      -0.332   5.684   7.909  0.00  0.00    +0.033 C 
ENDBRANCH  26  33
ENDBRANCH  22  31
ENDBRANCH  21  23
ENDBRANCH  20  21
ENDBRANCH  18  20
ENDBRANCH   1  18
TORSDOF 7
