REMARK  Name = ZINC12881985
REMARK  6 active torsions:
REMARK  status: ('A' for Active; 'I' for Inactive)
REMARK    1  A    between atoms: C_1  and  C_2
REMARK    2  A    between atoms: C_17  and  C_19
REMARK    3  A    between atoms: C_19  and  C_20
REMARK    4  A    between atoms: C_20  and  C_21
REMARK    5  A    between atoms: N_26  and  C_29
REMARK    6  A    between atoms: C_29  and  C_30
REMARK                            x       y       z     vdW  Elec       q    Type
REMARK                         _______ _______ _______ _____ _____    ______ ____
ROOT
ATOM      1  C   UNL     1      -2.201  -0.884   2.327  0.00  0.00    +0.044 C 
ATOM      2  C   UNL     1      -1.929  -0.025   3.536  0.00  0.00    -0.049 A 
ATOM      3  C   UNL     1      -0.966   0.967   3.479  0.00  0.00    +0.008 A 
ATOM      4  C   UNL     1      -0.718   1.752   4.583  0.00  0.00    -0.026 A 
ATOM      5  C   UNL     1      -1.430   1.559   5.763  0.00  0.00    +0.054 A 
ATOM      6  C   UNL     1      -2.398   0.558   5.812  0.00  0.00    +0.063 A 
ATOM      7  C   UNL     1      -2.643  -0.227   4.703  0.00  0.00    +0.025 A 
ATOM      8 CL   UNL     1      -3.299   0.295   7.273  0.00  0.00    -0.082 Cl
ATOM      9  N   UNL     1      -1.007   2.467   6.737  0.00  0.00    -0.285 N 
ATOM     10  C   UNL     1      -0.034   3.281   6.283  0.00  0.00    +0.211 C 
ATOM     11  O   UNL     1       0.521   4.163   6.904  0.00  0.00    -0.277 OA
ATOM     12  C   UNL     1       0.231   2.883   4.856  0.00  0.00    +0.050 C 
ATOM     13  C   UNL     1       0.002   4.058   3.898  0.00  0.00    +0.088 C 
ATOM     14  C   UNL     1       1.422   4.637   3.644  0.00  0.00    +0.073 C 
ATOM     15  C   UNL     1       2.366   3.755   4.488  0.00  0.00    -0.057 C 
ATOM     16  C   UNL     1       1.656   4.359   2.177  0.00  0.00    +0.224 C 
ATOM     17  O   UNL     1       2.661   4.643   1.562  0.00  0.00    -0.275 OA
ATOM     18  N   UNL     1       0.581   3.749   1.663  0.00  0.00    -0.237 N 
ATOM     19  C   UNL     1      -0.409   3.539   2.538  0.00  0.00    +0.225 C 
ATOM     20  O   UNL     1      -1.470   3.012   2.281  0.00  0.00    -0.275 OA
ATOM     21  H   UNL     1      -1.372   2.508   7.635  0.00  0.00    +0.155 HD
ATOM     22  N   UNL     1       1.620   2.507   4.665  0.00  0.00    +0.394 N 
ATOM     23  H   UNL     1       1.716   1.915   3.832  0.00  0.00    -0.083 HD
ATOM     24  H   UNL     1       1.967   2.000   5.488  0.00  0.00    -0.083 HD
ENDROOT
BRANCH  15  25
ATOM     25  C   UNL     1       2.635   4.409   5.845  0.00  0.00    -0.006 C 
BRANCH  25  26
ATOM     26  C   UNL     1       3.904   5.260   5.759  0.00  0.00    +0.094 C 
BRANCH  26  27
ATOM     27  C   UNL     1       4.168   5.904   7.095  0.00  0.00    +0.210 C 
ATOM     28  O   UNL     1       3.416   5.702   8.025  0.00  0.00    -0.276 OA
ATOM     29  N   UNL     1       5.241   6.704   7.257  0.00  0.00    -0.329 N 
ATOM     30  H   UNL     1       5.842   6.865   6.514  0.00  0.00    +0.145 HD
ATOM     31  H   UNL     1       5.411   7.119   8.117  0.00  0.00    +0.145 HD
ENDBRANCH  26  27
ENDBRANCH  25  26
ENDBRANCH  15  25
BRANCH  18  32
ATOM     32  C   UNL     1       0.494   3.350   0.257  0.00  0.00    +0.151 C 
BRANCH  32  33
ATOM     33  C   UNL     1       1.025   1.949   0.098  0.00  0.00    -0.026 A 
ATOM     34  C   UNL     1       0.170   0.869   0.218  0.00  0.00    +0.009 A 
ATOM     35  C   UNL     1       0.653  -0.418   0.073  0.00  0.00    +0.050 A 
ATOM     36  C   UNL     1       1.996  -0.629  -0.194  0.00  0.00    +0.166 A 
ATOM     37  C   UNL     1       2.857   0.459  -0.315  0.00  0.00    +0.167 A 
ATOM     38  C   UNL     1       2.367   1.746  -0.167  0.00  0.00    +0.054 A 
ATOM     39  O   UNL     1       4.114  -0.006  -0.575  0.00  0.00    -0.453 OA
ATOM     40  C   UNL     1       3.937  -1.365  -1.017  0.00  0.00    +0.466 C 
ATOM     41  O   UNL     1       2.713  -1.776  -0.379  0.00  0.00    -0.453 OA
ENDBRANCH  32  33
ENDBRANCH  18  32
TORSDOF 5
