REMARK  Name = ZINC14171748
REMARK  3 active torsions:
REMARK  status: ('A' for Active; 'I' for Inactive)
REMARK    1  A    between atoms: C_10  and  C_12
REMARK    2  A    between atoms: N_14  and  C_15
REMARK    3  A    between atoms: C_20  and  O_21
REMARK                            x       y       z     vdW  Elec       q    Type
REMARK                         _______ _______ _______ _____ _____    ______ ____
ROOT
ATOM      1  C   UNL     1       2.462   4.209   0.333  0.00  0.00    +0.001 A 
ATOM      2  C   UNL     1       3.627   3.519   0.043  0.00  0.00    +0.004 A 
ATOM      3  C   UNL     1       3.594   2.169  -0.252  0.00  0.00    +0.046 A 
ATOM      4  C   UNL     1       2.390   1.489  -0.259  0.00  0.00    +0.129 A 
ATOM      5  C   UNL     1       1.204   2.192   0.053  0.00  0.00    +0.031 A 
ATOM      6  C   UNL     1       1.249   3.548   0.339  0.00  0.00    +0.012 A 
ATOM      7  C   UNL     1      -0.017   1.396   0.049  0.00  0.00    +0.030 A 
ATOM      8  C   UNL     1       0.002  -0.006   0.040  0.00  0.00    +0.005 A 
ATOM      9  C   UNL     1      -1.219  -0.627   0.030  0.00  0.00    +0.028 A 
ATOM     10  C   UNL     1      -2.378   0.138   0.035  0.00  0.00    +0.075 A 
ATOM     11  S   UNL     1      -1.729   1.805   0.047  0.00  0.00    -0.083 S 
ATOM     12  C   UNL     1       1.365  -0.689   0.045  0.00  0.00    +0.265 C 
ATOM     13  O   UNL     1       2.326   0.172  -0.564  0.00  0.00    -0.487 OA
ENDROOT
BRANCH  10  14
ATOM     14  C   UNL     1      -3.773  -0.305   0.027  0.00  0.00    +0.255 C 
ATOM     15  O   UNL     1      -4.033  -1.495   0.016  0.00  0.00    -0.269 OA
ATOM     16  N   UNL     1      -4.769   0.603   0.033  0.00  0.00    -0.278 N 
ATOM     17  H   UNL     1      -4.563   1.548   0.107  0.00  0.00    +0.155 HD
BRANCH  16  18
ATOM     18  C   UNL     1      -6.101   0.182  -0.068  0.00  0.00    +0.076 A 
ATOM     19  C   UNL     1      -6.499  -1.012   0.515  0.00  0.00    +0.027 A 
ATOM     20  C   UNL     1      -7.815  -1.423   0.418  0.00  0.00    +0.002 A 
ATOM     21  C   UNL     1      -8.735  -0.652  -0.269  0.00  0.00    +0.004 A 
ATOM     22  C   UNL     1      -8.344   0.536  -0.858  0.00  0.00    +0.047 A 
ATOM     23  C   UNL     1      -7.028   0.958  -0.760  0.00  0.00    +0.138 A 
BRANCH  23  24
ATOM     24  O   UNL     1      -6.642   2.126  -1.339  0.00  0.00    -0.505 OA
ATOM     25  H   UNL     1      -6.336   2.031  -2.252  0.00  0.00    +0.292 HD
ENDBRANCH  23  24
ENDBRANCH  16  18
ENDBRANCH  10  14
TORSDOF 3
