REMARK  Name = ZINC10110120
REMARK  9 active torsions:
REMARK  status: ('A' for Active; 'I' for Inactive)
REMARK    1  A    between atoms: C_7  and  C_21
REMARK    2  A    between atoms: C_7  and  O_31
REMARK    3  A    between atoms: N_10  and  C_11
REMARK    4  A    between atoms: C_11  and  C_12
REMARK    5  A    between atoms: C_12  and  O_13
REMARK    6  A    between atoms: O_13  and  C_14
REMARK    7  A    between atoms: C_21  and  C_22
REMARK    8  A    between atoms: C_22  and  C_24
REMARK    9  A    between atoms: C_25  and  C_26
REMARK                            x       y       z     vdW  Elec       q    Type
REMARK                         _______ _______ _______ _____ _____    ______ ____
ROOT
ATOM      1  C   UNL     1       0.342   5.890   0.028  0.00  0.00    +0.000 A 
ATOM      2  C   UNL     1      -1.033   5.739   0.039  0.00  0.00    +0.002 A 
ATOM      3  C   UNL     1      -1.597   4.480   0.039  0.00  0.00    +0.024 A 
ATOM      4  C   UNL     1      -0.782   3.349   0.026  0.00  0.00    +0.043 A 
ATOM      5  C   UNL     1       0.597   3.514   0.014  0.00  0.00    +0.015 A 
ATOM      6  C   UNL     1       1.157   4.772   0.015  0.00  0.00    +0.009 A 
ATOM      7  C   UNL     1       1.191   2.124   0.002  0.00  0.00    +0.175 C 
ATOM      8  C   UNL     1      -0.014   1.209   0.009  0.00  0.00    +0.257 C 
ATOM      9  O   UNL     1       0.002  -0.004   0.002  0.00  0.00    -0.272 OA
ATOM     10  N   UNL     1      -1.106   1.992   0.017  0.00  0.00    -0.265 N 
ENDROOT
BRANCH   7  11
ATOM     11  O   UNL     1       1.969   1.920  -1.179  0.00  0.00    -0.374 OA
ATOM     12  H   UNL     1       2.325   1.025  -1.266  0.00  0.00    +0.211 HD
ENDBRANCH   7  11
BRANCH  10  13
ATOM     13  C   UNL     1      -2.479   1.480   0.021  0.00  0.00    +0.154 C 
BRANCH  13  14
ATOM     14  C   UNL     1      -2.950   1.295   1.464  0.00  0.00    +0.248 C 
BRANCH  14  15
ATOM     15  O   UNL     1      -3.021   2.568   2.110  0.00  0.00    -0.490 OA
BRANCH  15  16
ATOM     16  C   UNL     1      -3.426   2.581   3.407  0.00  0.00    +0.121 A 
ATOM     17  C   UNL     1      -3.755   1.393   4.043  0.00  0.00    +0.047 A 
ATOM     18  C   UNL     1      -4.162   1.407   5.363  0.00  0.00    +0.023 A 
ATOM     19  C   UNL     1      -4.252   2.607   6.047  0.00  0.00    +0.041 A 
ATOM     20  C   UNL     1      -3.929   3.793   5.412  0.00  0.00    +0.023 A 
ATOM     21  C   UNL     1      -3.517   3.782   4.094  0.00  0.00    +0.047 A 
ATOM     22 CL   UNL     1      -4.770   2.623   7.704  0.00  0.00    -0.084 Cl
ENDBRANCH  15  16
ENDBRANCH  14  15
ENDBRANCH  13  14
ENDBRANCH  10  13
BRANCH   7  23
ATOM     23  C   UNL     1       2.045   1.896   1.251  0.00  0.00    +0.128 C 
BRANCH  23  24
ATOM     24  C   UNL     1       2.547   0.475   1.263  0.00  0.00    +0.160 C 
ATOM     25  O   UNL     1       2.250  -0.282   0.359  0.00  0.00    -0.293 OA
BRANCH  24  26
ATOM     26  C   UNL     1       3.356   0.026   2.316  0.00  0.00    +0.050 C 
ATOM     27  C   UNL     1       3.810  -1.259   2.327  0.00  0.00    +0.049 C 
BRANCH  27  28
ATOM     28  C   UNL     1       4.625  -1.711   3.388  0.00  0.00    +0.128 A 
ATOM     29  C   UNL     1       5.148  -2.983   3.529  0.00  0.00    +0.049 A 
ATOM     30  C   UNL     1       5.891  -2.978   4.717  0.00  0.00    +0.042 A 
ATOM     31  C   UNL     1       5.789  -1.739   5.249  0.00  0.00    +0.195 A 
ATOM     32  O   UNL     1       5.028  -0.981   4.449  0.00  0.00    -0.464 OA
ENDBRANCH  27  28
ENDBRANCH  24  26
ENDBRANCH  23  24
ENDBRANCH   7  23
TORSDOF 9
