REMARK  Name = ZINC22321410
REMARK  12 active torsions:
REMARK  status: ('A' for Active; 'I' for Inactive)
REMARK    1  A    between atoms: C_1  and  C_2
REMARK    2  A    between atoms: C_5  and  S_8
REMARK    3  A    between atoms: S_8  and  N_11
REMARK    4  A    between atoms: N_11  and  C_12
REMARK    5  A    between atoms: N_11  and  C_30
REMARK    6  A    between atoms: C_12  and  C_13
REMARK    7  A    between atoms: N_15  and  C_16
REMARK    8  A    between atoms: C_16  and  C_18
REMARK    9  A    between atoms: C_16  and  C_19
REMARK   10  A    between atoms: C_22  and  N_25
REMARK   11  A    between atoms: C_34  and  O_36
REMARK   12  A    between atoms: O_36  and  C_37
REMARK                            x       y       z     vdW  Elec       q    Type
REMARK                         _______ _______ _______ _____ _____    ______ ____
ROOT
ATOM      1  N   UNL     1      -1.758   5.106   3.237  0.00  0.00    -0.194 N 
ENDROOT
BRANCH   1   2
ATOM      2  C   UNL     1      -0.911   4.736   2.189  0.00  0.00    +0.055 A 
ATOM      3  C   UNL     1       0.200   5.514   1.884  0.00  0.00    +0.025 A 
ATOM      4  C   UNL     1       1.036   5.148   0.848  0.00  0.00    +0.005 A 
ATOM      5  C   UNL     1       0.772   4.009   0.112  0.00  0.00    +0.046 A 
ATOM      6  C   UNL     1      -0.336   3.229   0.411  0.00  0.00    +0.122 A 
ATOM      7  C   UNL     1      -1.181   3.595   1.447  0.00  0.00    +0.070 A 
BRANCH   6   8
ATOM      8  O   UNL     1      -0.595   2.109  -0.314  0.00  0.00    -0.495 OA
ATOM      9  C   UNL     1       0.315   1.795  -1.370  0.00  0.00    +0.277 C 
ENDBRANCH   6   8
ENDBRANCH   1   2
BRANCH   1  10
ATOM     10  S   UNL     1      -2.522   6.575   3.204  0.00  0.00    +0.075 S 
ATOM     11  O   UNL     1      -2.733   6.953   4.558  0.00  0.00    -0.150 OA
ATOM     12  O   UNL     1      -1.799   7.389   2.291  0.00  0.00    -0.150 OA
BRANCH  10  17
ATOM     13  C   UNL     1      -7.979   5.697   0.785  0.00  0.00    +0.044 C 
ATOM     14  C   UNL     1      -6.616   5.917   1.390  0.00  0.00    -0.050 A 
ATOM     15  C   UNL     1      -6.440   5.807   2.756  0.00  0.00    +0.005 A 
ATOM     16  C   UNL     1      -5.189   6.008   3.311  0.00  0.00    +0.029 A 
ATOM     17  C   UNL     1      -4.115   6.319   2.498  0.00  0.00    +0.109 A 
ATOM     18  C   UNL     1      -4.292   6.433   1.132  0.00  0.00    +0.029 A 
ATOM     19  C   UNL     1      -5.542   6.228   0.577  0.00  0.00    +0.005 A 
ENDBRANCH  10  17
ENDBRANCH   1  10
BRANCH   1  20
ATOM     20  C   UNL     1      -1.970   4.195   4.364  0.00  0.00    +0.227 C 
BRANCH  20  21
ATOM     21  C   UNL     1      -0.871   4.384   5.377  0.00  0.00    +0.233 C 
ATOM     22  O   UNL     1       0.004   5.200   5.178  0.00  0.00    -0.274 OA
ATOM     23  N   UNL     1      -0.860   3.647   6.505  0.00  0.00    -0.307 N 
ATOM     24  H   UNL     1      -1.653   2.907   6.686  0.00  0.00    +0.149 HD
BRANCH  23  25
ATOM     25  C   UNL     1       0.209   3.831   7.490  0.00  0.00    +0.100 C 
ATOM     26  C   UNL     1      -0.153   4.988   8.425  0.00  0.00    +0.033 C 
BRANCH  25  27
ATOM     27  C   UNL     1       0.373   2.568   8.295  0.00  0.00    -0.027 A 
ATOM     28  C   UNL     1      -0.742   1.856   8.698  0.00  0.00    +0.007 A 
ATOM     29  C   UNL     1      -0.595   0.695   9.431  0.00  0.00    +0.023 A 
ATOM     30  C   UNL     1       0.675   0.248   9.773  0.00  0.00    +0.030 A 
ATOM     31  C   UNL     1       1.793   0.968   9.372  0.00  0.00    +0.023 A 
ATOM     32  C   UNL     1       1.639   2.126   8.634  0.00  0.00    +0.007 A 
BRANCH  30  33
ATOM     33  N   UNL     1       0.827  -0.922  10.520  0.00  0.00    -0.330 N 
ATOM     34  C   UNL     1       1.548  -1.961   9.740  0.00  0.00    +0.105 C 
ATOM     35  C   UNL     1       2.078  -2.922  10.834  0.00  0.00    +0.020 C 
ATOM     36  C   UNL     1       2.466  -1.960  11.980  0.00  0.00    +0.020 C 
ATOM     37  C   UNL     1       1.650  -0.680  11.724  0.00  0.00    +0.105 C 
ENDBRANCH  30  33
ENDBRANCH  25  27
ENDBRANCH  23  25
ENDBRANCH  20  21
ENDBRANCH   1  20
TORSDOF 9
