REMARK  Name = ZINC18528653
REMARK  10 active torsions:
REMARK  status: ('A' for Active; 'I' for Inactive)
REMARK    1  A    between atoms: C_1  and  C_2
REMARK    2  A    between atoms: C_5  and  C_8
REMARK    3  A    between atoms: C_11  and  S_13
REMARK    4  A    between atoms: S_13  and  C_14
REMARK    5  A    between atoms: C_14  and  C_15
REMARK    6  A    between atoms: N_17  and  C_18
REMARK    7  A    between atoms: C_18  and  C_20
REMARK    8  A    between atoms: C_18  and  C_31
REMARK    9  A    between atoms: C_31  and  C_32
REMARK   10  A    between atoms: C_31  and  C_33
REMARK                            x       y       z     vdW  Elec       q    Type
REMARK                         _______ _______ _______ _____ _____    ______ ____
ROOT
ATOM      1  C   UNL     1       2.342   0.919   1.814  0.00  0.00    +0.224 C 
ATOM      2  O   UNL     1       2.065  -0.095   1.208  0.00  0.00    -0.275 OA
ATOM      3  N   UNL     1       1.386   1.579   2.496  0.00  0.00    -0.308 N 
ATOM      4  H   UNL     1       1.607   2.390   2.980  0.00  0.00    +0.149 HD
ENDROOT
BRANCH   1   5
ATOM      5  C   UNL     1       3.756   1.441   1.803  0.00  0.00    +0.174 C 
BRANCH   5   6
ATOM      6  S   UNL     1       4.796   0.344   0.808  0.00  0.00    -0.056 S 
BRANCH   6  10
ATOM      7  C   UNL     1       8.432   1.698   0.789  0.00  0.00    +0.249 A 
ATOM      8  N   UNL     1       7.819   2.584   1.536  0.00  0.00    -0.106 NA
ATOM      9  N   UNL     1       6.576   2.269   1.641  0.00  0.00    -0.101 NA
ATOM     10  C   UNL     1       6.346   1.167   0.964  0.00  0.00    +0.278 A 
ATOM     11  O   UNL     1       7.514   0.779   0.417  0.00  0.00    -0.411 OA
BRANCH   7  16
ATOM     12  C   UNL     1      14.011   1.702  -0.617  0.00  0.00    +0.044 C 
ATOM     13  C   UNL     1      12.550   1.702  -0.249  0.00  0.00    -0.050 A 
ATOM     14  C   UNL     1      12.040   2.709   0.551  0.00  0.00    +0.004 A 
ATOM     15  C   UNL     1      10.704   2.714   0.892  0.00  0.00    +0.013 A 
ATOM     16  C   UNL     1       9.865   1.699   0.428  0.00  0.00    +0.039 A 
ATOM     17  C   UNL     1      10.386   0.683  -0.375  0.00  0.00    +0.013 A 
ATOM     18  C   UNL     1      11.724   0.693  -0.713  0.00  0.00    +0.004 A 
ENDBRANCH   7  16
ENDBRANCH   6  10
ENDBRANCH   5   6
ENDBRANCH   1   5
BRANCH   3  19
ATOM     19  C   UNL     1       0.011   1.072   2.506  0.00  0.00    +0.106 C 
BRANCH  19  20
ATOM     20  C   UNL     1      -0.694   1.558   3.746  0.00  0.00    -0.023 A 
ATOM     21  C   UNL     1      -0.490   2.850   4.194  0.00  0.00    +0.009 A 
ATOM     22  C   UNL     1      -1.133   3.304   5.331  0.00  0.00    +0.050 A 
ATOM     23  C   UNL     1      -1.984   2.457   6.022  0.00  0.00    +0.162 A 
ATOM     24  C   UNL     1      -2.190   1.161   5.572  0.00  0.00    +0.162 A 
ATOM     25  C   UNL     1      -1.549   0.712   4.430  0.00  0.00    +0.055 A 
ATOM     26  O   UNL     1      -3.031   0.334   6.259  0.00  0.00    -0.488 OA
ATOM     27  C   UNL     1      -4.417   0.680   6.220  0.00  0.00    +0.232 C 
ATOM     28  C   UNL     1      -4.745   1.715   7.285  0.00  0.00    +0.082 C 
ATOM     29  C   UNL     1      -4.042   3.041   7.039  0.00  0.00    +0.232 C 
ATOM     30  O   UNL     1      -2.625   2.891   7.146  0.00  0.00    -0.488 OA
ENDBRANCH  19  20
BRANCH  19  31
ATOM     31  C   UNL     1      -0.729   1.579   1.267  0.00  0.00    +0.008 C 
ATOM     32  C   UNL     1      -0.013   1.086   0.008  0.00  0.00    +0.009 C 
ATOM     33  C   UNL     1      -2.164   1.050   1.278  0.00  0.00    +0.009 C 
ENDBRANCH  19  31
ENDBRANCH   3  19
TORSDOF 7
