REMARK  Name = ZINC55843420
REMARK  10 active torsions:
REMARK  status: ('A' for Active; 'I' for Inactive)
REMARK    1  A    between atoms: C_1  and  C_2
REMARK    2  A    between atoms: C_2  and  C_3
REMARK    3  A    between atoms: C_7  and  C_27
REMARK    4  A    between atoms: C_8  and  N_9
REMARK    5  A    between atoms: C_10  and  C_12
REMARK    6  A    between atoms: C_12  and  N_13
REMARK    7  A    between atoms: N_13  and  C_14
REMARK    8  A    between atoms: C_16  and  N_24
REMARK    9  A    between atoms: C_19  and  O_20
REMARK   10  A    between atoms: O_20  and  C_21
REMARK                            x       y       z     vdW  Elec       q    Type
REMARK                         _______ _______ _______ _____ _____    ______ ____
ROOT
ATOM      1  N   UNL     1      -2.216  -0.473  -5.957  0.00  0.00    -0.332 N 
ATOM      2  H   UNL     1      -3.087  -0.871  -5.803  0.00  0.00    +0.147 HD
ENDROOT
BRANCH   1   3
ATOM      3  C   UNL     1      -1.768  -0.254  -7.265  0.00  0.00    +0.072 A 
ATOM      4  C   UNL     1      -0.520   0.308  -7.488  0.00  0.00    +0.059 A 
ATOM      5  C   UNL     1      -0.080   0.524  -8.781  0.00  0.00    +0.128 A 
ATOM      6  C   UNL     1      -0.881   0.180  -9.853  0.00  0.00    +0.036 A 
ATOM      7  C   UNL     1      -2.127  -0.382  -9.639  0.00  0.00    +0.050 A 
ATOM      8  C   UNL     1      -2.572  -0.606  -8.347  0.00  0.00    +0.148 A 
BRANCH   5   9
ATOM      9  N   UNL     1       1.252   1.125  -9.017  0.00  0.00    +0.056 N 
ATOM     10  O   UNL     1       1.953   1.427  -8.080  0.00  0.00    -0.126 OA
ATOM     11  O   UNL     1       1.638   1.314 -10.147  0.00  0.00    -0.126 OA
ENDBRANCH   5   9
BRANCH   8  12
ATOM     12  O   UNL     1      -3.795  -1.164  -8.134  0.00  0.00    -0.432 OA
BRANCH  12  13
ATOM     13  C   UNL     1      -4.564  -1.500  -9.291  0.00  0.00    +0.541 C 
ATOM     14  F   UNL     1      -4.804  -0.344 -10.043  0.00  0.00    -0.166 F 
ATOM     15  F   UNL     1      -3.859  -2.424 -10.068  0.00  0.00    -0.166 F 
ENDBRANCH  12  13
ENDBRANCH   8  12
ENDBRANCH   1   3
BRANCH   1  16
ATOM     16  C   UNL     1      -1.368  -0.103  -4.821  0.00  0.00    +0.198 C 
BRANCH  16  18
ATOM     17  N   UNL     1      -1.483  -0.185  -2.352  0.00  0.00    -0.284 N 
ATOM     18  C   UNL     1      -2.076  -0.440  -3.535  0.00  0.00    +0.234 C 
ATOM     19  O   UNL     1      -3.181  -0.941  -3.564  0.00  0.00    -0.274 OA
ATOM     20  H   UNL     1      -0.630   0.276  -2.326  0.00  0.00    +0.155 HD
BRANCH  17  26
ATOM     21  C   UNL     1      -2.709   0.356  -0.343  0.00  0.00    -0.026 A 
ATOM     22  C   UNL     1      -3.320  -0.043   0.830  0.00  0.00    +0.005 A 
ATOM     23  C   UNL     1      -3.318  -1.377   1.193  0.00  0.00    +0.001 A 
ATOM     24  C   UNL     1      -2.705  -2.317   0.384  0.00  0.00    +0.005 A 
ATOM     25  C   UNL     1      -2.093  -1.924  -0.790  0.00  0.00    -0.029 A 
ATOM     26  C   UNL     1      -2.098  -0.585  -1.160  0.00  0.00    +0.040 A 
ATOM     27  C   UNL     1      -1.425  -2.948  -1.672  0.00  0.00    +0.045 C 
BRANCH  21  29
ATOM     28  C   UNL     1      -3.887   2.080  -1.679  0.00  0.00    +0.009 C 
ATOM     29  C   UNL     1      -2.712   1.810  -0.737  0.00  0.00    +0.033 C 
ENDBRANCH  21  29
ENDBRANCH  17  26
ENDBRANCH  16  18
ENDBRANCH   1  16
TORSDOF 8
