REMARK  Name = ZINC40905377
REMARK  7 active torsions:
REMARK  status: ('A' for Active; 'I' for Inactive)
REMARK    1  A    between atoms: N_10  and  C_11
REMARK    2  A    between atoms: C_11  and  C_12
REMARK    3  A    between atoms: C_12  and  N_13
REMARK    4  A    between atoms: C_14  and  C_16
REMARK    5  A    between atoms: N_19  and  C_22
REMARK    6  A    between atoms: C_25  and  C_29
REMARK    7  A    between atoms: C_31  and  C_34
REMARK                            x       y       z     vdW  Elec       q    Type
REMARK                         _______ _______ _______ _____ _____    ______ ____
ROOT
ATOM      1  C   UNL     1       8.682   2.687   1.303  0.00  0.00    +0.078 C 
ATOM      2  C   UNL     1       9.678   1.743   0.625  0.00  0.00    +0.031 C 
ATOM      3  C   UNL     1      10.951   2.518   0.272  0.00  0.00    +0.106 C 
ATOM      4  N   UNL     1      11.464   3.164   1.488  0.00  0.00    -0.328 N 
ATOM      5  C   UNL     1      10.561   4.022   2.266  0.00  0.00    +0.106 C 
ATOM      6  C   UNL     1       9.292   3.230   2.597  0.00  0.00    +0.031 C 
ENDROOT
BRANCH   4   7
ATOM      7  C   UNL     1      12.784   2.966   1.895  0.00  0.00    +0.065 A 
ATOM      8  C   UNL     1      13.784   3.824   1.451  0.00  0.00    +0.027 A 
ATOM      9  C   UNL     1      15.088   3.630   1.853  0.00  0.00    +0.013 A 
ATOM     10  C   UNL     1      15.406   2.574   2.705  0.00  0.00    +0.025 A 
ATOM     11  C   UNL     1      14.403   1.714   3.150  0.00  0.00    +0.052 A 
ATOM     12  C   UNL     1      13.097   1.913   2.751  0.00  0.00    +0.145 A 
ATOM     13  F   UNL     1      12.123   1.085   3.187  0.00  0.00    -0.204 F 
BRANCH  10  14
ATOM     14  C   UNL     1      16.810   2.364   3.137  0.00  0.00    +0.202 A 
ATOM     15  N   UNL     1      17.240   1.384   3.947  0.00  0.00    -0.187 NA
ATOM     16  C   UNL     1      18.535   1.488   4.127  0.00  0.00    +0.259 A 
ATOM     17  O   UNL     1      18.973   2.549   3.428  0.00  0.00    -0.332 OA
ATOM     18  N   UNL     1      17.835   3.103   2.785  0.00  0.00    -0.056 NA
BRANCH  16  19
ATOM     19  C   UNL     1      19.370   0.591   4.956  0.00  0.00    +0.042 A 
ATOM     20  C   UNL     1      18.804  -0.491   5.638  0.00  0.00    +0.033 A 
ATOM     21  C   UNL     1      19.620  -1.302   6.401  0.00  0.00    +0.111 A 
ATOM     22  N   UNL     1      20.915  -1.068   6.491  0.00  0.00    -0.263 NA
ATOM     23  C   UNL     1      21.488  -0.059   5.864  0.00  0.00    +0.111 A 
ATOM     24  C   UNL     1      20.748   0.798   5.075  0.00  0.00    +0.033 A 
ENDBRANCH  16  19
ENDBRANCH  10  14
ENDBRANCH   4   7
BRANCH   1  26
ATOM     25  N   UNL     1       6.702   1.366   0.629  0.00  0.00    -0.314 N 
ATOM     26  C   UNL     1       7.415   1.936   1.621  0.00  0.00    +0.216 C 
ATOM     27  O   UNL     1       7.037   1.845   2.770  0.00  0.00    -0.276 OA
ATOM     28  H   UNL     1       7.005   1.440  -0.289  0.00  0.00    +0.149 HD
BRANCH  25  29
ATOM     29  C   UNL     1       5.470   0.636   0.939  0.00  0.00    +0.123 C 
BRANCH  29  30
ATOM     30  C   UNL     1       4.861   0.093  -0.355  0.00  0.00    +0.124 C 
BRANCH  30  40
ATOM     31  C   UNL     1      -0.017   1.377   0.010  0.00  0.00    +0.000 A 
ATOM     32  C   UNL     1       1.170   2.088   0.002  0.00  0.00    +0.002 A 
ATOM     33  C   UNL     1       2.375   1.416  -0.015  0.00  0.00    +0.023 A 
ATOM     34  C   UNL     1       2.396   0.025  -0.024  0.00  0.00    +0.033 A 
ATOM     35  C   UNL     1       1.207  -0.687  -0.013  0.00  0.00    -0.026 A 
ATOM     36  C   UNL     1       0.002  -0.004   0.002  0.00  0.00    +0.005 A 
ATOM     37  C   UNL     1       1.192  -2.192  -0.011  0.00  0.00    +0.038 C 
ATOM     38  C   UNL     1       2.521  -2.742  -0.528  0.00  0.00    +0.024 C 
ATOM     39  C   UNL     1       3.667  -2.076   0.246  0.00  0.00    +0.105 C 
ATOM     40  N   UNL     1       3.629  -0.637  -0.046  0.00  0.00    -0.328 N 
ENDBRANCH  30  40
ENDBRANCH  29  30
ENDBRANCH  25  29
ENDBRANCH   1  26
TORSDOF 7
