REMARK  Name = ZINC08397262
REMARK  16 active torsions:
REMARK  status: ('A' for Active; 'I' for Inactive)
REMARK    1  A    between atoms: C_1  and  C_2
REMARK    2  A    between atoms: C_2  and  N_3
REMARK    3  A    between atoms: N_3  and  C_4
REMARK    4  A    between atoms: N_3  and  C_6
REMARK    5  A    between atoms: C_4  and  C_5
REMARK    6  A    between atoms: C_6  and  C_7
REMARK    7  A    between atoms: C_7  and  C_9
REMARK    8  A    between atoms: C_7  and  O_30
REMARK    9  A    between atoms: C_9  and  O_10
REMARK   10  A    between atoms: O_10  and  C_11
REMARK   11  A    between atoms: C_18  and  N_25
REMARK   12  A    between atoms: C_19  and  C_20
REMARK   13  A    between atoms: C_20  and  O_22
REMARK   14  A    between atoms: O_22  and  C_23
REMARK   15  A    between atoms: C_23  and  C_24
REMARK   16  A    between atoms: C_26  and  C_28
REMARK                            x       y       z     vdW  Elec       q    Type
REMARK                         _______ _______ _______ _____ _____    ______ ____
ROOT
ATOM      1  C   UNL     1       0.183  -5.199   3.681  0.00  0.00    +0.149 A 
ATOM      2  C   UNL     1      -0.764  -5.796   4.499  0.00  0.00    +0.061 A 
ATOM      3  C   UNL     1      -0.594  -7.118   4.885  0.00  0.00    +0.019 A 
ATOM      4  C   UNL     1       0.493  -7.845   4.472  0.00  0.00    +0.011 A 
ATOM      5  C   UNL     1       1.476  -7.268   3.638  0.00  0.00    +0.009 A 
ATOM      6  C   UNL     1       1.278  -5.930   3.257  0.00  0.00    +0.065 A 
ATOM      7  S   UNL     1       2.674  -5.552   2.229  0.00  0.00    -0.069 S 
ATOM      8  C   UNL     1       3.507  -7.126   2.285  0.00  0.00    +0.087 A 
ATOM      9  C   UNL     1       2.693  -7.890   3.105  0.00  0.00    +0.095 A 
ATOM     10 BR   UNL     1      -2.273  -4.818   5.085  0.00  0.00    -0.046 Br
ENDROOT
BRANCH   8  11
ATOM     11  N   UNL     1       4.689  -7.493   1.670  0.00  0.00    -0.280 N 
ATOM     12  C   UNL     1       5.358  -6.602   0.911  0.00  0.00    +0.214 C 
ATOM     13  O   UNL     1       4.924  -5.479   0.769  0.00  0.00    -0.276 OA
ATOM     14  C   UNL     1       6.647  -7.002   0.240  0.00  0.00    +0.109 C 
ATOM     15  H   UNL     1       5.037  -8.391   1.783  0.00  0.00    +0.155 HD
ENDBRANCH   8  11
BRANCH   9  16
ATOM     16  C   UNL     1       3.015  -9.237   3.405  0.00  0.00    +0.342 C 
ATOM     17  O   UNL     1       2.619 -10.132   2.682  0.00  0.00    -0.245 OA
BRANCH  16  18
ATOM     18  O   UNL     1       3.762  -9.527   4.491  0.00  0.00    -0.461 OA
BRANCH  18  19
ATOM     19  C   UNL     1       4.049 -10.905   4.732  0.00  0.00    +0.229 C 
ATOM     20  C   UNL     1       4.900 -11.036   5.997  0.00  0.00    +0.048 C 
ENDBRANCH  18  19
ENDBRANCH  16  18
ENDBRANCH   9  16
BRANCH   1  21
ATOM     21  O   UNL     1       0.033  -3.905   3.293  0.00  0.00    -0.487 OA
BRANCH  21  22
ATOM     22  C   UNL     1      -0.690  -3.670   2.084  0.00  0.00    +0.258 C 
BRANCH  22  23
ATOM     23  C   UNL     1      -0.755  -2.165   1.813  0.00  0.00    +0.135 C 
BRANCH  23  24
ATOM     24  O   UNL     1      -1.518  -1.528   2.839  0.00  0.00    -0.390 OA
ATOM     25  H   UNL     1      -2.429  -1.846   2.906  0.00  0.00    +0.210 HD
ENDBRANCH  23  24
BRANCH  23  26
ATOM     26  C   UNL     1      -1.419  -1.919   0.457  0.00  0.00    -0.044 C 
BRANCH  26  27
ATOM     27  N   UNL     1      -1.374  -0.485   0.142  0.00  0.00    +0.381 N 
ATOM     28  H   UNL     1      -1.793   0.038   0.896  0.00  0.00    -0.082 HD
BRANCH  27  30
ATOM     29  C   UNL     1       0.080   1.452  -0.218  0.00  0.00    -0.017 C 
ATOM     30  C   UNL     1       0.023  -0.065  -0.028  0.00  0.00    -0.082 C 
ENDBRANCH  27  30
BRANCH  27  31
ATOM     31  C   UNL     1      -2.116  -0.233  -1.101  0.00  0.00    -0.082 C 
ATOM     32  C   UNL     1      -3.600  -0.533  -0.879  0.00  0.00    -0.017 C 
ENDBRANCH  27  31
ENDBRANCH  26  27
ENDBRANCH  23  26
ENDBRANCH  22  23
ENDBRANCH  21  22
ENDBRANCH   1  21
TORSDOF 12
