REMARK  Name = ZINC08020084
REMARK  10 active torsions:
REMARK  status: ('A' for Active; 'I' for Inactive)
REMARK    1  A    between atoms: C_1  and  C_2
REMARK    2  A    between atoms: C_2  and  C_3
REMARK    3  A    between atoms: C_3  and  C_4
REMARK    4  A    between atoms: C_4  and  O_5
REMARK    5  A    between atoms: O_5  and  C_6
REMARK    6  A    between atoms: C_9  and  C_12
REMARK    7  A    between atoms: C_12  and  N_13
REMARK    8  A    between atoms: N_13  and  S_14
REMARK    9  A    between atoms: S_14  and  C_17
REMARK   10  A    between atoms: C_20  and  N_23
REMARK                            x       y       z     vdW  Elec       q    Type
REMARK                         _______ _______ _______ _____ _____    ______ ____
ROOT
ATOM      1  N   UNL     1       1.153   4.074   1.394  0.00  0.00    -0.186 NA
ATOM      2  H   UNL     1       0.952   3.463   2.121  0.00  0.00    +0.148 HD
ENDROOT
BRANCH   1   3
ATOM      3  S   UNL     1       1.502   5.659   1.718  0.00  0.00    +0.059 S 
ATOM      4  O   UNL     1       1.402   5.818   3.127  0.00  0.00    -0.153 OA
ATOM      5  O   UNL     1       2.689   5.969   1.000  0.00  0.00    -0.153 OA
BRANCH   3   6
ATOM      6  C   UNL     1       0.216   6.632   1.009  0.00  0.00    +0.105 A 
ATOM      7  C   UNL     1       0.334   7.090  -0.290  0.00  0.00    +0.030 A 
ATOM      8  C   UNL     1      -0.676   7.848  -0.851  0.00  0.00    +0.024 A 
ATOM      9  C   UNL     1      -1.805   8.159  -0.104  0.00  0.00    +0.025 A 
ATOM     10  C   UNL     1      -1.918   7.702   1.203  0.00  0.00    +0.024 A 
ATOM     11  C   UNL     1      -0.907   6.940   1.755  0.00  0.00    +0.030 A 
BRANCH   9  12
ATOM     12  N   UNL     1      -2.825   8.930  -0.666  0.00  0.00    -0.358 N 
ATOM     13  H   UNL     1      -3.614   9.146  -0.144  0.00  0.00    +0.142 HD
ATOM     14  H   UNL     1      -2.746   9.249  -1.579  0.00  0.00    +0.142 HD
ENDBRANCH   9  12
ENDBRANCH   3   6
ENDBRANCH   1   3
BRANCH   1  15
ATOM     15  C   UNL     1       1.147   3.593   0.011  0.00  0.00    +0.141 C 
BRANCH  15  19
ATOM     16  C   UNL     1       1.213  -0.680  -0.013  0.00  0.00    +0.121 A 
ATOM     17  C   UNL     1       0.002  -0.004   0.002  0.00  0.00    +0.046 A 
ATOM     18  C   UNL     1      -0.017   1.377   0.010  0.00  0.00    +0.008 A 
ATOM     19  C   UNL     1       1.171   2.086   0.002  0.00  0.00    -0.032 A 
ATOM     20  C   UNL     1       2.379   1.415  -0.013  0.00  0.00    +0.008 A 
ATOM     21  C   UNL     1       2.403   0.033  -0.021  0.00  0.00    +0.046 A 
BRANCH  16  22
ATOM     22  O   UNL     1       1.234  -2.039  -0.020  0.00  0.00    -0.492 OA
BRANCH  22  23
ATOM     23  C   UNL     1       2.518  -2.668  -0.036  0.00  0.00    +0.229 C 
BRANCH  23  24
ATOM     24  C   UNL     1       2.341  -4.188  -0.042  0.00  0.00    +0.041 C 
BRANCH  24  26
ATOM     25  C   UNL     1       3.538  -6.380  -0.065  0.00  0.00    +0.004 C 
ATOM     26  C   UNL     1       3.715  -4.861  -0.059  0.00  0.00    -0.000 C 
ENDBRANCH  24  26
ENDBRANCH  23  24
ENDBRANCH  22  23
ENDBRANCH  16  22
ENDBRANCH  15  19
ENDBRANCH   1  15
TORSDOF 9
