REMARK  Name = ZINC01362051
REMARK  9 active torsions:
REMARK  status: ('A' for Active; 'I' for Inactive)
REMARK    1  A    between atoms: C_1  and  C_2
REMARK    2  A    between atoms: C_7  and  N_8
REMARK    3  A    between atoms: N_11  and  C_14
REMARK    4  A    between atoms: C_14  and  C_16
REMARK    5  A    between atoms: C_14  and  C_30
REMARK    6  A    between atoms: C_20  and  C_29
REMARK    7  A    between atoms: C_22  and  C_28
REMARK    8  A    between atoms: N_34  and  C_35
REMARK    9  A    between atoms: C_35  and  C_36
REMARK                            x       y       z     vdW  Elec       q    Type
REMARK                         _______ _______ _______ _____ _____    ______ ____
ROOT
ATOM      1  C   UNL     1      -0.009   3.518   4.679  0.00  0.00    +0.162 C 
ENDROOT
BRANCH   1   2
ATOM      2  C   UNL     1       1.122   3.720   5.655  0.00  0.00    +0.042 A 
ATOM      3  C   UNL     1       0.854   4.092   6.932  0.00  0.00    +0.021 A 
ATOM      4  C   UNL     1       1.974   4.279   7.855  0.00  0.00    -0.001 A 
ATOM      5  C   UNL     1       1.761   4.662   9.184  0.00  0.00    +0.013 A 
ATOM      6  C   UNL     1       2.828   4.828  10.020  0.00  0.00    -0.050 A 
ATOM      7  C   UNL     1       4.123   4.622   9.563  0.00  0.00    +0.008 A 
ATOM      8  C   UNL     1       4.357   4.246   8.258  0.00  0.00    -0.026 A 
ATOM      9  C   UNL     1       3.286   4.069   7.388  0.00  0.00    +0.052 A 
ATOM     10  N   UNL     1       3.490   3.692   6.078  0.00  0.00    -0.322 N 
ATOM     11  H   UNL     1       4.395   3.548   5.758  0.00  0.00    +0.169 HD
ATOM     12  C   UNL     1       2.455   3.517   5.239  0.00  0.00    +0.254 A 
ATOM     13  O   UNL     1       2.673   3.178   4.088  0.00  0.00    -0.268 OA
ATOM     14  C   UNL     1       5.767   4.026   7.776  0.00  0.00    +0.046 C 
ATOM     15  C   UNL     1       2.598   5.239  11.451  0.00  0.00    +0.044 C 
ENDBRANCH   1   2
BRANCH   1  19
ATOM     16  N   UNL     1      -0.619  -0.430   3.393  0.00  0.00    -0.327 N 
ATOM     17  C   UNL     1       0.316  -0.229   4.511  0.00  0.00    +0.120 C 
ATOM     18  C   UNL     1       0.036   1.141   5.138  0.00  0.00    +0.104 C 
ATOM     19  N   UNL     1       0.084   2.174   4.095  0.00  0.00    -0.286 NA
ATOM     20  C   UNL     1      -0.966   1.964   3.089  0.00  0.00    +0.104 C 
ATOM     21  C   UNL     1      -0.723   0.625   2.374  0.00  0.00    +0.120 C 
BRANCH  16  28
ATOM     22  C   UNL     1      -3.183  -0.455   4.624  0.00  0.00    +0.045 C 
ATOM     23  C   UNL     1      -2.641  -1.652   3.886  0.00  0.00    -0.029 A 
ATOM     24  C   UNL     1      -3.397  -2.803   3.786  0.00  0.00    +0.006 A 
ATOM     25  C   UNL     1      -2.902  -3.902   3.109  0.00  0.00    +0.020 A 
ATOM     26  C   UNL     1      -1.646  -3.852   2.529  0.00  0.00    +0.043 A 
ATOM     27  C   UNL     1      -0.884  -2.703   2.625  0.00  0.00    +0.043 A 
ATOM     28  C   UNL     1      -1.383  -1.595   3.300  0.00  0.00    +0.034 A 
ATOM     29 CL   UNL     1      -1.027  -5.234   1.680  0.00  0.00    -0.083 Cl
ENDBRANCH  16  28
ENDBRANCH   1  19
BRANCH   1  30
ATOM     30  C   UNL     1       0.082   4.549   3.584  0.00  0.00    +0.173 A 
ATOM     31  N   UNL     1       0.930   4.557   2.585  0.00  0.00    -0.111 NA
ATOM     32  N   UNL     1       0.690   5.599   1.867  0.00  0.00    -0.023 NA
ATOM     33  N   UNL     1      -0.290   6.256   2.382  0.00  0.00    -0.043 NA
ATOM     34  N   UNL     1      -0.696   5.638   3.439  0.00  0.00    -0.220 N 
BRANCH  34  35
ATOM     35  C   UNL     1      -1.794   6.046   4.319  0.00  0.00    +0.221 C 
BRANCH  35  36
ATOM     36  C   UNL     1      -1.260   6.942   5.407  0.00  0.00    +0.126 A 
ATOM     37  C   UNL     1      -1.166   8.282   5.347  0.00  0.00    +0.046 A 
ATOM     38  C   UNL     1      -0.615   8.710   6.577  0.00  0.00    +0.041 A 
ATOM     39  C   UNL     1      -0.404   7.604   7.314  0.00  0.00    +0.195 A 
ATOM     40  O   UNL     1      -0.803   6.537   6.603  0.00  0.00    -0.466 OA
ENDBRANCH  35  36
ENDBRANCH  34  35
ENDBRANCH   1  30
TORSDOF 6
