REMARK  Name = ZINC39485372
REMARK  8 active torsions:
REMARK  status: ('A' for Active; 'I' for Inactive)
REMARK    1  A    between atoms: C_1  and  C_2
REMARK    2  A    between atoms: C_5  and  C_7
REMARK    3  A    between atoms: C_7  and  N_8
REMARK    4  A    between atoms: C_14  and  C_16
REMARK    5  A    between atoms: C_16  and  C_17
REMARK    6  A    between atoms: N_19  and  C_20
REMARK    7  A    between atoms: C_20  and  C_21
REMARK    8  A    between atoms: C_21  and  C_27
REMARK                            x       y       z     vdW  Elec       q    Type
REMARK                         _______ _______ _______ _____ _____    ______ ____
ROOT
ATOM      1  C   UNL     1       4.240  -3.768   0.696  0.00  0.00    +0.215 C 
ATOM      2  O   UNL     1       3.234  -4.186   1.228  0.00  0.00    -0.276 OA
ATOM      3  N   UNL     1       5.196  -3.171   1.435  0.00  0.00    -0.314 N 
ATOM      4  H   UNL     1       6.001  -2.837   1.010  0.00  0.00    +0.149 HD
ENDROOT
BRANCH   1   5
ATOM      5  C   UNL     1       4.422  -3.915  -0.793  0.00  0.00    +0.124 C 
BRANCH   5  12
ATOM      6  N   UNL     1       2.852  -5.793  -0.775  0.00  0.00    -0.282 NA
ATOM      7  C   UNL     1       1.518  -6.263  -1.183  0.00  0.00    +0.104 C 
ATOM      8  C   UNL     1       0.462  -5.352  -0.554  0.00  0.00    +0.119 C 
ATOM      9  N   UNL     1       0.788  -3.953  -0.816  0.00  0.00    -0.313 N 
ATOM     10  C   UNL     1       2.006  -3.548  -1.188  0.00  0.00    +0.231 C 
ATOM     11  O   UNL     1       2.198  -2.362  -1.355  0.00  0.00    -0.274 OA
ATOM     12  C   UNL     1       3.148  -4.500  -1.407  0.00  0.00    +0.152 C 
ATOM     13  H   UNL     1       0.088  -3.288  -0.717  0.00  0.00    +0.149 HD
BRANCH   6  14
ATOM     14  C   UNL     1       3.883  -6.786  -1.102  0.00  0.00    +0.159 C 
BRANCH  14  19
ATOM     15  C   UNL     1       4.588  -9.733   2.931  0.00  0.00    +0.086 C 
ATOM     16  C   UNL     1       4.084  -9.232   1.602  0.00  0.00    +0.102 A 
ATOM     17  C   UNL     1       3.227  -9.879   0.792  0.00  0.00    +0.044 A 
ATOM     18  C   UNL     1       3.029  -9.053  -0.339  0.00  0.00    +0.046 A 
ATOM     19  C   UNL     1       3.777  -7.951  -0.151  0.00  0.00    +0.119 A 
ATOM     20  O   UNL     1       4.409  -8.062   1.028  0.00  0.00    -0.464 OA
ENDBRANCH  14  19
ENDBRANCH   6  14
ENDBRANCH   5  12
ENDBRANCH   1   5
BRANCH   3  21
ATOM     21  C   UNL     1       5.020  -3.029   2.883  0.00  0.00    +0.115 C 
BRANCH  21  22
ATOM     22  C   UNL     1       6.290  -2.436   3.495  0.00  0.00    +0.015 C 
ATOM     23  C   UNL     1       6.148  -2.384   5.020  0.00  0.00    +0.041 C 
ATOM     24  C   UNL     1       4.991  -1.451   5.385  0.00  0.00    +0.160 C 
ATOM     25  O   UNL     1       5.234  -0.155   4.835  0.00  0.00    -0.380 OA
ATOM     26  C   UNL     1       5.329  -0.134   3.410  0.00  0.00    +0.160 C 
ATOM     27  C   UNL     1       6.500  -1.014   2.965  0.00  0.00    +0.041 C 
BRANCH  22  28
ATOM     28  C   UNL     1       7.475  -3.292   3.126  0.00  0.00    -0.040 A 
ATOM     29  C   UNL     1       8.567  -2.725   2.497  0.00  0.00    +0.004 A 
ATOM     30  C   UNL     1       9.654  -3.510   2.158  0.00  0.00    +0.000 A 
ATOM     31  C   UNL     1       9.648  -4.861   2.450  0.00  0.00    +0.000 A 
ATOM     32  C   UNL     1       8.555  -5.428   3.080  0.00  0.00    +0.000 A 
ATOM     33  C   UNL     1       7.471  -4.642   3.422  0.00  0.00    +0.004 A 
ENDBRANCH  22  28
ENDBRANCH  21  22
ENDBRANCH   3  21
TORSDOF 7
