REMARK  Name = ZINC05322758
REMARK  3 active torsions:
REMARK  status: ('A' for Active; 'I' for Inactive)
REMARK    1  A    between atoms: C_9  and  C_20
REMARK    2  A    between atoms: C_10  and  N_12
REMARK    3  A    between atoms: C_13  and  C_15
REMARK                            x       y       z     vdW  Elec       q    Type
REMARK                         _______ _______ _______ _____ _____    ______ ____
ROOT
ATOM      1  C   UNL     1      -6.974   6.953   0.070  0.00  0.00    +0.001 A 
ATOM      2  C   UNL     1      -7.402   5.633   0.065  0.00  0.00    +0.001 A 
ATOM      3  C   UNL     1      -6.476   4.607   0.056  0.00  0.00    +0.016 A 
ATOM      4  C   UNL     1      -5.133   4.917   0.052  0.00  0.00    +0.025 A 
ATOM      5  C   UNL     1      -4.681   6.253   0.058  0.00  0.00    +0.036 A 
ATOM      6  C   UNL     1      -5.648   7.270   0.067  0.00  0.00    +0.013 A 
ATOM      7  C   UNL     1      -3.260   6.579   0.053  0.00  0.00    +0.197 A 
ATOM      8  O   UNL     1      -3.003   7.772   0.058  0.00  0.00    -0.287 OA
ATOM      9  C   UNL     1      -2.155   5.739   0.044  0.00  0.00    +0.060 A 
ATOM     10  C   UNL     1      -2.217   4.343   0.037  0.00  0.00    +0.084 A 
ATOM     11  S   UNL     1      -3.870   3.671   0.034  0.00  0.00    -0.073 S 
ENDROOT
BRANCH   9  12
ATOM     12  C   UNL     1      -0.813   6.368   0.041  0.00  0.00    +0.023 A 
ATOM     13  C   UNL     1      -0.182   6.666  -1.166  0.00  0.00    +0.011 A 
ATOM     14  C   UNL     1       1.065   7.257  -1.162  0.00  0.00    +0.001 A 
ATOM     15  C   UNL     1       1.695   7.544   0.036  0.00  0.00    +0.003 A 
ATOM     16  C   UNL     1       1.079   7.245   1.237  0.00  0.00    +0.039 A 
ATOM     17  C   UNL     1      -0.173   6.659   1.248  0.00  0.00    +0.131 A 
ATOM     18  F   UNL     1      -0.774   6.367   2.421  0.00  0.00    -0.205 F 
ENDBRANCH   9  12
BRANCH  10  19
ATOM     19  N   UNL     1      -1.091   3.549   0.027  0.00  0.00    -0.273 N 
ATOM     20  C   UNL     1      -1.214   2.207   0.020  0.00  0.00    +0.284 C 
ATOM     21  O   UNL     1      -2.319   1.697   0.023  0.00  0.00    -0.266 OA
ATOM     22  H   UNL     1      -0.211   3.956   0.025  0.00  0.00    +0.156 HD
BRANCH  20  23
ATOM     23  C   UNL     1      -0.016   1.362   0.009  0.00  0.00    +0.189 A 
ATOM     24  C   UNL     1       0.002  -0.004   0.002  0.00  0.00    +0.054 A 
ATOM     25  C   UNL     1       1.351  -0.389  -0.013  0.00  0.00    +0.042 A 
ATOM     26  C   UNL     1       2.088   0.744  -0.014  0.00  0.00    +0.196 A 
ATOM     27  O   UNL     1       1.261   1.797  -0.000  0.00  0.00    -0.458 OA
ENDBRANCH  20  23
ENDBRANCH  10  19
TORSDOF 3
