REMARK  Name = ZINC15799503
REMARK  7 active torsions:
REMARK  status: ('A' for Active; 'I' for Inactive)
REMARK    1  A    between atoms: C_1  and  C_2
REMARK    2  A    between atoms: C_9  and  C_11
REMARK    3  A    between atoms: C_12  and  C_34
REMARK    4  A    between atoms: C_16  and  C_18
REMARK    5  A    between atoms: C_21  and  N_24
REMARK    6  A    between atoms: C_30  and  C_32
REMARK    7  A    between atoms: C_30  and  C_33
REMARK                            x       y       z     vdW  Elec       q    Type
REMARK                         _______ _______ _______ _____ _____    ______ ____
ROOT
ATOM      1  C   UNL     1       0.019  -2.916   0.538  0.00  0.00    +0.043 C 
ATOM      2  C   UNL     1      -0.884  -2.020   0.969  0.00  0.00    +0.014 C 
ATOM      3  N   UNL     1      -0.900  -0.751   0.458  0.00  0.00    -0.321 N 
ATOM      4  C   UNL     1       0.198  -0.242  -0.181  0.00  0.00    +0.016 C 
ATOM      5  C   UNL     1       1.156  -1.065  -0.657  0.00  0.00    +0.024 C 
ATOM      6  C   UNL     1       1.028  -2.560  -0.514  0.00  0.00    +0.090 C 
ATOM      7  C   UNL     1       2.297  -0.553  -1.301  0.00  0.00    +0.162 C 
ATOM      8  O   UNL     1       3.136  -1.322  -1.728  0.00  0.00    -0.292 OA
ATOM      9  C   UNL     1       2.498   0.928  -1.471  0.00  0.00    +0.086 C 
ATOM     10  C   UNL     1       1.785   1.662  -0.330  0.00  0.00    -0.023 C 
ATOM     11  C   UNL     1       0.310   1.254  -0.337  0.00  0.00    +0.058 C 
ATOM     12  C   UNL     1       1.902   3.173  -0.539  0.00  0.00    +0.011 C 
ATOM     13  C   UNL     1       2.420   1.273   1.007  0.00  0.00    +0.011 C 
ATOM     14  C   UNL     1      -1.886  -2.415   2.023  0.00  0.00    +0.061 C 
ATOM     15  H   UNL     1      -1.802  -0.130   0.558  0.00  0.00    +0.152 HD
ENDROOT
BRANCH   1  24
ATOM     16  C   UNL     1       0.472 -10.424   2.532  0.00  0.00    +0.045 C 
ATOM     17  C   UNL     1       0.598  -9.025   1.986  0.00  0.00    -0.032 A 
ATOM     18  C   UNL     1       1.462  -8.759   0.932  0.00  0.00    +0.008 A 
ATOM     19  C   UNL     1       1.548  -7.461   0.460  0.00  0.00    +0.044 A 
ATOM     20  C   UNL     1       0.769  -6.473   1.054  0.00  0.00    +0.125 A 
ATOM     21  N   UNL     1      -0.040  -6.766   2.060  0.00  0.00    -0.240 NA
ATOM     22  C   UNL     1      -0.145  -7.995   2.527  0.00  0.00    +0.116 A 
ATOM     23  N   UNL     1       0.845  -5.162   0.589  0.00  0.00    -0.267 N 
ATOM     24  C   UNL     1       0.020  -4.221   1.088  0.00  0.00    +0.248 C 
ATOM     25  O   UNL     1      -0.726  -4.493   2.011  0.00  0.00    -0.270 OA
ATOM     26  H   UNL     1       1.579  -4.895  -0.186  0.00  0.00    +0.157 HD
ENDBRANCH   1  24
BRANCH   6  27
ATOM     27  C   UNL     1       0.595  -3.148  -1.833  0.00  0.00    -0.035 A 
ATOM     28  C   UNL     1      -0.606  -2.763  -2.400  0.00  0.00    +0.007 A 
ATOM     29  C   UNL     1      -1.001  -3.298  -3.611  0.00  0.00    +0.033 A 
ATOM     30  C   UNL     1      -0.200  -4.226  -4.251  0.00  0.00    +0.126 A 
ATOM     31  C   UNL     1       0.997  -4.616  -3.681  0.00  0.00    +0.033 A 
ATOM     32  C   UNL     1       1.395  -4.077  -2.472  0.00  0.00    +0.007 A 
BRANCH  30  33
ATOM     33  N   UNL     1      -0.626  -4.803  -5.546  0.00  0.00    +0.056 N 
ATOM     34  O   UNL     1       0.079  -5.622  -6.109  0.00  0.00    -0.126 OA
ATOM     35  O   UNL     1      -1.681  -4.460  -6.048  0.00  0.00    -0.126 OA
ENDBRANCH  30  33
ENDBRANCH   6  27
TORSDOF 3
