REMARK  Name = ZINC54614917
REMARK  17 active torsions:
REMARK  status: ('A' for Active; 'I' for Inactive)
REMARK    1  A    between atoms: C_1  and  C_2
REMARK    2  A    between atoms: C_2  and  C_3
REMARK    3  A    between atoms: C_3  and  C_4
REMARK    4  A    between atoms: C_4  and  C_5
REMARK    5  A    between atoms: C_5  and  O_6
REMARK    6  A    between atoms: O_6  and  C_7
REMARK    7  A    between atoms: C_10  and  C_13
REMARK    8  A    between atoms: C_15  and  C_29
REMARK    9  A    between atoms: C_16  and  C_28
REMARK   10  A    between atoms: C_21  and  S_23
REMARK   11  A    between atoms: S_23  and  C_24
REMARK   12  A    between atoms: C_24  and  C_25
REMARK   13  A    between atoms: C_25  and  C_26
REMARK   14  A    between atoms: C_26  and  C_27
REMARK   15  A    between atoms: N_31  and  C_32
REMARK   16  A    between atoms: C_36  and  C_39
REMARK   17  A    between atoms: C_37  and  C_38
REMARK                            x       y       z     vdW  Elec       q    Type
REMARK                         _______ _______ _______ _____ _____    ______ ____
ROOT
ATOM      1  C   UNL     1      -7.921  -6.585   0.029  0.00  0.00    +0.177 C 
ATOM      2  C   UNL     1      -7.978  -7.437   1.269  0.00  0.00    +0.060 C 
ATOM      3  C   UNL     1      -7.894  -8.775   1.241  0.00  0.00    +0.018 C 
ATOM      4  N   UNL     1      -7.761  -9.477   0.068  0.00  0.00    -0.287 N 
ATOM      5  C   UNL     1      -7.978  -8.787  -1.117  0.00  0.00    +0.219 A 
ATOM      6  N   UNL     1      -8.060  -7.434  -1.152  0.00  0.00    -0.220 N 
ATOM      7  N   UNL     1      -8.288  -7.081  -2.481  0.00  0.00    -0.141 NA
ATOM      8  C   UNL     1      -8.326  -8.202  -3.169  0.00  0.00    +0.210 A 
ATOM      9  N   UNL     1      -8.137  -9.234  -2.333  0.00  0.00    -0.187 NA
ATOM     10  C   UNL     1      -7.949  -9.535   2.542  0.00  0.00    +0.061 C 
ATOM     11  H   UNL     1      -7.524 -10.417   0.067  0.00  0.00    +0.155 HD
ENDROOT
BRANCH   1  15
ATOM     12  C   UNL     1      -4.172  -4.538  -0.120  0.00  0.00    +0.121 A 
ATOM     13  C   UNL     1      -5.357  -3.817  -0.085  0.00  0.00    +0.046 A 
ATOM     14  C   UNL     1      -6.567  -4.481  -0.037  0.00  0.00    +0.009 A 
ATOM     15  C   UNL     1      -6.599  -5.863  -0.024  0.00  0.00    -0.018 A 
ATOM     16  C   UNL     1      -5.420  -6.585  -0.058  0.00  0.00    +0.009 A 
ATOM     17  C   UNL     1      -4.207  -5.925  -0.112  0.00  0.00    +0.046 A 
BRANCH  12  18
ATOM     18  O   UNL     1      -2.980  -3.888  -0.168  0.00  0.00    -0.492 OA
BRANCH  18  19
ATOM     19  C   UNL     1      -3.021  -2.459  -0.173  0.00  0.00    +0.229 C 
BRANCH  19  20
ATOM     20  C   UNL     1      -1.595  -1.909  -0.229  0.00  0.00    +0.041 C 
BRANCH  20  21
ATOM     21  C   UNL     1      -1.638  -0.379  -0.235  0.00  0.00    +0.003 C 
BRANCH  21  23
ATOM     22  C   UNL     1      -0.255   1.701  -0.297  0.00  0.00    +0.004 C 
ATOM     23  C   UNL     1      -0.211   0.171  -0.291  0.00  0.00    -0.003 C 
ENDBRANCH  21  23
ENDBRANCH  20  21
ENDBRANCH  19  20
ENDBRANCH  18  19
ENDBRANCH  12  18
ENDBRANCH   1  15
BRANCH   2  24
ATOM     24  C   UNL     1      -8.127  -6.797   2.521  0.00  0.00    +0.248 C 
ATOM     25  O   UNL     1      -9.210  -6.347   2.850  0.00  0.00    -0.270 OA
ATOM     26  N   UNL     1      -7.070  -6.684   3.350  0.00  0.00    -0.281 N 
ATOM     27  H   UNL     1      -6.194  -6.986   3.063  0.00  0.00    +0.155 HD
BRANCH  26  28
ATOM     28  C   UNL     1      -7.236  -6.131   4.624  0.00  0.00    +0.037 A 
ATOM     29  C   UNL     1      -8.152  -5.106   4.824  0.00  0.00    +0.023 A 
ATOM     30  C   UNL     1      -8.314  -4.562   6.083  0.00  0.00    +0.002 A 
ATOM     31  C   UNL     1      -7.565  -5.037   7.144  0.00  0.00    +0.004 A 
ATOM     32  C   UNL     1      -6.652  -6.057   6.948  0.00  0.00    -0.046 A 
ATOM     33  C   UNL     1      -6.490  -6.610   5.693  0.00  0.00    -0.026 A 
ATOM     34  C   UNL     1      -5.500  -7.726   5.482  0.00  0.00    +0.046 C 
ATOM     35  C   UNL     1      -5.838  -6.572   8.108  0.00  0.00    +0.044 C 
ENDBRANCH  26  28
ENDBRANCH   2  24
BRANCH   8  36
ATOM     36  S   UNL     1      -8.587  -8.328  -4.907  0.00  0.00    -0.084 S 
BRANCH  36  37
ATOM     37  C   UNL     1      -8.529 -10.111  -5.231  0.00  0.00    +0.077 C 
BRANCH  37  38
ATOM     38  C   UNL     1      -8.744 -10.365  -6.725  0.00  0.00    +0.011 C 
BRANCH  38  39
ATOM     39  C   UNL     1      -8.696 -11.870  -6.998  0.00  0.00    -0.003 C 
ATOM     40  C   UNL     1      -8.911 -12.124  -8.492  0.00  0.00    +0.004 C 
ENDBRANCH  38  39
ENDBRANCH  37  38
ENDBRANCH  36  37
ENDBRANCH   8  36
TORSDOF 12
