REMARK  Name = ZINC58835062
REMARK  11 active torsions:
REMARK  status: ('A' for Active; 'I' for Inactive)
REMARK    1  A    between atoms: C_1  and  C_2
REMARK    2  A    between atoms: C_9  and  C_36
REMARK    3  A    between atoms: C_10  and  S_12
REMARK    4  A    between atoms: S_12  and  C_13
REMARK    5  A    between atoms: C_13  and  C_14
REMARK    6  A    between atoms: C_17  and  C_20
REMARK    7  A    between atoms: N_18  and  N_19
REMARK    8  A    between atoms: C_20  and  S_21
REMARK    9  A    between atoms: S_21  and  C_22
REMARK   10  A    between atoms: C_23  and  C_34
REMARK   11  A    between atoms: C_30  and  C_33
REMARK                            x       y       z     vdW  Elec       q    Type
REMARK                         _______ _______ _______ _____ _____    ______ ____
ROOT
ATOM      1  C   UNL     1      -1.639  -8.308   0.801  0.00  0.00    +0.160 A 
ATOM      2  N   UNL     1      -1.127  -9.224   0.024  0.00  0.00    -0.132 NA
ATOM      3  N   UNL     1      -1.598 -10.377   0.347  0.00  0.00    -0.132 NA
ATOM      4  C   UNL     1      -2.430 -10.248   1.344  0.00  0.00    +0.160 A 
ATOM      5  N   UNL     1      -2.476  -8.932   1.664  0.00  0.00    -0.235 N 
ENDROOT
BRANCH   5   6
ATOM      6  N   UNL     1      -3.217  -8.353   2.654  0.00  0.00    -0.295 N 
ATOM      7  H   UNL     1      -4.126  -8.079   2.312  0.00  0.00    +0.163 HD
ATOM      8  H   UNL     1      -3.301  -8.967   3.450  0.00  0.00    +0.163 HD
ENDBRANCH   5   6
BRANCH   1   9
ATOM      9  C   UNL     1      -1.347  -6.830   0.751  0.00  0.00    +0.153 C 
BRANCH   9  10
ATOM     10  S   UNL     1       0.064  -6.456   1.828  0.00  0.00    -0.097 S 
BRANCH  10  19
ATOM     11  C   UNL     1      -0.019   1.526   0.010  0.00  0.00    +0.008 C 
ATOM     12  C   UNL     1       0.002  -0.004   0.002  0.00  0.00    -0.009 C 
ATOM     13  C   UNL     1      -1.434  -0.540   0.026  0.00  0.00    +0.010 C 
ATOM     14  C   UNL     1      -1.391  -2.046  -0.225  0.00  0.00    +0.056 C 
ATOM     15  C   UNL     1      -0.414  -2.712   0.710  0.00  0.00    +0.046 A 
ATOM     16  C   UNL     1       0.564  -2.007   1.378  0.00  0.00    -0.025 A 
ATOM     17  C   UNL     1       1.440  -2.681   2.219  0.00  0.00    +0.027 A 
ATOM     18  C   UNL     1       1.302  -4.063   2.371  0.00  0.00    +0.084 A 
ATOM     19  C   UNL     1       0.277  -4.715   1.662  0.00  0.00    +0.115 A 
ATOM     20  N   UNL     1      -0.526  -4.025   0.873  0.00  0.00    -0.244 NA
ATOM     21  C   UNL     1       0.728  -0.516   1.245  0.00  0.00    +0.040 C 
BRANCH  18  22
ATOM     22  C   UNL     1       2.184  -4.798   3.226  0.00  0.00    +0.102 C 
ATOM     23  N   UNL     1       2.884  -5.381   3.905  0.00  0.00    -0.191 NA
ENDBRANCH  18  22
ENDBRANCH  10  19
ENDBRANCH   9  10
ENDBRANCH   1   9
BRANCH   4  24
ATOM     24  C   UNL     1      -3.195 -11.358   2.017  0.00  0.00    +0.153 C 
BRANCH  24  25
ATOM     25  S   UNL     1      -2.214 -12.021   3.392  0.00  0.00    -0.097 S 
BRANCH  25  26
ATOM     26  C   UNL     1      -3.230 -13.292   4.067  0.00  0.00    +0.115 A 
ATOM     27  C   UNL     1      -2.782 -14.033   5.176  0.00  0.00    +0.084 A 
ATOM     28  C   UNL     1      -3.616 -15.030   5.689  0.00  0.00    +0.027 A 
ATOM     29  C   UNL     1      -4.848 -15.251   5.087  0.00  0.00    -0.025 A 
ATOM     30  C   UNL     1      -5.218 -14.490   3.999  0.00  0.00    +0.046 A 
ATOM     31  N   UNL     1      -4.413 -13.542   3.536  0.00  0.00    -0.244 NA
ATOM     32  C   UNL     1      -6.532 -14.689   3.287  0.00  0.00    +0.056 C 
ATOM     33  C   UNL     1      -7.508 -15.467   4.167  0.00  0.00    +0.010 C 
ATOM     34  C   UNL     1      -6.807 -16.735   4.666  0.00  0.00    -0.009 C 
ATOM     35  C   UNL     1      -5.728 -16.326   5.667  0.00  0.00    +0.040 C 
ATOM     36  C   UNL     1      -7.824 -17.652   5.349  0.00  0.00    +0.008 C 
BRANCH  27  37
ATOM     37  C   UNL     1      -1.502 -13.774   5.763  0.00  0.00    +0.102 C 
ATOM     38  N   UNL     1      -0.487 -13.567   6.229  0.00  0.00    -0.191 NA
ENDBRANCH  27  37
ENDBRANCH  25  26
ENDBRANCH  24  25
ENDBRANCH   4  24
TORSDOF 9
