REMARK  Name = ZINC21722435
REMARK  7 active torsions:
REMARK  status: ('A' for Active; 'I' for Inactive)
REMARK    1  A    between atoms: C_1  and  C_2
REMARK    2  A    between atoms: C_2  and  C_3
REMARK    3  A    between atoms: C_2  and  C_4
REMARK    4  A    between atoms: C_16  and  C_18
REMARK    5  A    between atoms: C_21  and  O_24
REMARK    6  A    between atoms: O_24  and  C_25
REMARK    7  A    between atoms: C_29  and  C_32
REMARK                            x       y       z     vdW  Elec       q    Type
REMARK                         _______ _______ _______ _____ _____    ______ ____
ROOT
ATOM      1  C   UNL     1      -0.835  -1.294  -1.872  0.00  0.00    +0.223 C 
ATOM      2  O   UNL     1      -1.760  -1.790  -2.480  0.00  0.00    -0.275 OA
ATOM      3  N   UNL     1      -1.063  -0.298  -0.994  0.00  0.00    -0.258 N 
ATOM      4  C   UNL     1      -2.373   0.096  -0.733  0.00  0.00    +0.058 A 
ATOM      5  C   UNL     1      -3.147   0.724  -1.696  0.00  0.00    +0.025 A 
ATOM      6  C   UNL     1      -4.401   1.201  -1.355  0.00  0.00    +0.002 A 
ATOM      7  C   UNL     1      -4.880   1.052  -0.066  0.00  0.00    +0.002 A 
ATOM      8  C   UNL     1      -4.118   0.406   0.892  0.00  0.00    +0.025 A 
ATOM      9  C   UNL     1      -2.872  -0.088   0.548  0.00  0.00    +0.053 A 
ATOM     10  N   UNL     1      -2.075  -0.788   1.445  0.00  0.00    -0.316 N 
ATOM     11  C   UNL     1      -0.875  -0.361   1.916  0.00  0.00    +0.017 C 
ATOM     12  C   UNL     1       0.108   0.149   1.154  0.00  0.00    +0.037 C 
ATOM     13  C   UNL     1       0.057   0.347  -0.342  0.00  0.00    +0.147 C 
ATOM     14  C   UNL     1       1.325   0.562   1.745  0.00  0.00    +0.163 C 
ATOM     15  O   UNL     1       2.205   1.001   1.031  0.00  0.00    -0.292 OA
ATOM     16  C   UNL     1       1.568   0.475   3.222  0.00  0.00    +0.091 C 
ATOM     17  C   UNL     1       0.221   0.594   3.945  0.00  0.00    +0.068 C 
ATOM     18  C   UNL     1      -0.689  -0.513   3.416  0.00  0.00    +0.063 C 
ATOM     19  H   UNL     1      -2.405  -1.765   1.828  0.00  0.00    +0.152 HD
ENDROOT
BRANCH  13  20
ATOM     20  C   UNL     1      -0.013   1.826  -0.625  0.00  0.00    -0.022 A 
ATOM     21  C   UNL     1      -1.107   2.558  -0.204  0.00  0.00    +0.009 A 
ATOM     22  C   UNL     1      -1.171   3.915  -0.457  0.00  0.00    +0.046 A 
ATOM     23  C   UNL     1      -0.142   4.540  -1.146  0.00  0.00    +0.120 A 
ATOM     24  C   UNL     1       0.952   3.801  -1.573  0.00  0.00    +0.046 A 
ATOM     25  C   UNL     1       1.014   2.446  -1.312  0.00  0.00    +0.009 A 
BRANCH  23  26
ATOM     26  O   UNL     1      -0.205   5.873  -1.401  0.00  0.00    -0.495 OA
ATOM     27  C   UNL     1      -1.361   6.570  -0.932  0.00  0.00    +0.277 C 
ENDBRANCH  23  26
ENDBRANCH  13  20
BRANCH  17  28
ATOM     28  C   UNL     1       0.420   0.426   5.429  0.00  0.00    +0.109 A 
ATOM     29  C   UNL     1       0.089   1.324   6.374  0.00  0.00    +0.045 A 
ATOM     30  C   UNL     1       0.449   0.760   7.620  0.00  0.00    +0.041 A 
ATOM     31  C   UNL     1       0.980  -0.449   7.361  0.00  0.00    +0.195 A 
ATOM     32  O   UNL     1       0.955  -0.648   6.033  0.00  0.00    -0.468 OA
ENDBRANCH  17  28
BRANCH   1  34
ATOM     33  C   UNL     1       0.983  -2.698  -0.937  0.00  0.00    +0.017 C 
ATOM     34  C   UNL     1       0.569  -1.793  -2.099  0.00  0.00    +0.069 C 
ATOM     35  C   UNL     1       0.624  -2.585  -3.407  0.00  0.00    +0.017 C 
ENDBRANCH   1  34
TORSDOF 4
