REMARK  Name = ZINC40309758
REMARK  11 active torsions:
REMARK  status: ('A' for Active; 'I' for Inactive)
REMARK    1  A    between atoms: C_1  and  O_2
REMARK    2  A    between atoms: O_2  and  C_3
REMARK    3  A    between atoms: C_6  and  O_35
REMARK    4  A    between atoms: C_7  and  C_9
REMARK    5  A    between atoms: N_22  and  C_23
REMARK    6  A    between atoms: C_25  and  C_31
REMARK    7  A    between atoms: C_28  and  O_29
REMARK    8  A    between atoms: O_29  and  C_30
REMARK    9  A    between atoms: C_31  and  O_33
REMARK   10  A    between atoms: O_33  and  C_34
REMARK   11  A    between atoms: O_35  and  C_36
REMARK                            x       y       z     vdW  Elec       q    Type
REMARK                         _______ _______ _______ _____ _____    ______ ____
ROOT
ATOM      1  C   UNL     1       1.394  -4.256   2.300  0.00  0.00    +0.160 C 
ATOM      2  C   UNL     1       0.165  -4.824   2.970  0.00  0.00    +0.062 A 
ATOM      3  C   UNL     1      -0.959  -5.169   2.306  0.00  0.00    +0.040 A 
ATOM      4  N   UNL     1      -1.841  -5.633   3.234  0.00  0.00    -0.349 N 
ATOM      5  H   UNL     1      -2.740  -5.955   3.064  0.00  0.00    +0.166 HD
ATOM      6  C   UNL     1      -1.227  -5.560   4.437  0.00  0.00    +0.171 A 
ATOM      7  N   UNL     1      -0.025  -5.074   4.267  0.00  0.00    -0.348 N 
ATOM      8  C   UNL     1      -1.149  -5.051   0.817  0.00  0.00    +0.074 C 
ATOM      9  C   UNL     1      -0.088  -4.095   0.257  0.00  0.00    +0.116 C 
ATOM     10  N   UNL     1       1.220  -4.426   0.846  0.00  0.00    -0.272 N 
ATOM     11  C   UNL     1       2.232  -4.874   0.078  0.00  0.00    +0.307 C 
ATOM     12  O   UNL     1       2.104  -4.918  -1.131  0.00  0.00    -0.252 OA
ATOM     13  N   UNL     1       3.385  -5.274   0.648  0.00  0.00    -0.266 N 
ATOM     14  H   UNL     1       3.475  -5.272   1.614  0.00  0.00    +0.156 HD
ATOM     15  H   UNL     1       0.624  -4.919   4.971  0.00  0.00    +0.167 HD
ENDROOT
BRANCH   1  20
ATOM     16  C   UNL     1       0.623  -0.784   3.578  0.00  0.00    +0.121 A 
ATOM     17  C   UNL     1       1.783  -0.101   3.243  0.00  0.00    +0.049 A 
ATOM     18  C   UNL     1       2.814  -0.762   2.604  0.00  0.00    +0.049 A 
ATOM     19  C   UNL     1       2.689  -2.110   2.297  0.00  0.00    +0.126 A 
ATOM     20  C   UNL     1       1.530  -2.792   2.633  0.00  0.00    +0.024 A 
ATOM     21  C   UNL     1       0.501  -2.132   3.277  0.00  0.00    +0.055 A 
BRANCH  16  23
ATOM     22  C   UNL     1      -0.197   1.255   4.486  0.00  0.00    +0.277 C 
ATOM     23  O   UNL     1      -0.392  -0.133   4.207  0.00  0.00    -0.495 OA
ENDBRANCH  16  23
BRANCH  19  24
ATOM     24  O   UNL     1       3.703  -2.760   1.668  0.00  0.00    -0.495 OA
ATOM     25  C   UNL     1       4.868  -1.995   1.352  0.00  0.00    +0.277 C 
ENDBRANCH  19  24
ENDBRANCH   1  20
BRANCH  13  26
ATOM     26  C   UNL     1       4.456  -5.694  -0.154  0.00  0.00    +0.078 A 
ATOM     27  C   UNL     1       4.224  -6.120  -1.449  0.00  0.00    +0.042 A 
ATOM     28  C   UNL     1       5.294  -6.537  -2.246  0.00  0.00    +0.061 A 
ATOM     29  C   UNL     1       6.593  -6.523  -1.730  0.00  0.00    +0.018 A 
ATOM     30  C   UNL     1       6.817  -6.098  -0.438  0.00  0.00    +0.048 A 
ATOM     31  C   UNL     1       5.756  -5.678   0.352  0.00  0.00    +0.141 A 
BRANCH  31  32
ATOM     32  O   UNL     1       5.983  -5.254   1.622  0.00  0.00    -0.493 OA
ATOM     33  C   UNL     1       7.338  -5.263   2.076  0.00  0.00    +0.277 C 
ENDBRANCH  31  32
BRANCH  28  34
ATOM     34  C   UNL     1       5.053  -6.992  -3.627  0.00  0.00    +0.339 C 
ATOM     35  O   UNL     1       3.923  -7.005  -4.075  0.00  0.00    -0.245 OA
BRANCH  34  36
ATOM     36  O   UNL     1       6.085  -7.395  -4.394  0.00  0.00    -0.464 OA
ATOM     37  C   UNL     1       5.778  -7.823  -5.723  0.00  0.00    +0.280 C 
ENDBRANCH  34  36
ENDBRANCH  28  34
ENDBRANCH  13  26
TORSDOF 7
