REMARK  Name = ZINC59372360
REMARK  7 active torsions:
REMARK  status: ('A' for Active; 'I' for Inactive)
REMARK    1  A    between atoms: C_4  and  N_7
REMARK    2  A    between atoms: C_15  and  C_16
REMARK    3  A    between atoms: C_16  and  C_17
REMARK    4  A    between atoms: C_17  and  C_18
REMARK    5  A    between atoms: N_20  and  C_21
REMARK    6  A    between atoms: C_21  and  C_22
REMARK    7  A    between atoms: C_22  and  C_23
REMARK                            x       y       z     vdW  Elec       q    Type
REMARK                         _______ _______ _______ _____ _____    ______ ____
ROOT
ATOM      1  C   UNL     1       2.531  -2.995   2.078  0.00  0.00    +0.103 C 
ENDROOT
BRANCH   1   2
ATOM      2  C   UNL     1       1.830  -3.294   3.378  0.00  0.00    +0.213 C 
ATOM      3  O   UNL     1       2.016  -2.585   4.344  0.00  0.00    -0.276 OA
ATOM      4  N   UNL     1       0.996  -4.349   3.466  0.00  0.00    -0.315 N 
ATOM      5  H   UNL     1       0.847  -4.915   2.693  0.00  0.00    +0.149 HD
BRANCH   4   6
ATOM      6  C   UNL     1       0.314  -4.640   4.729  0.00  0.00    +0.112 C 
BRANCH   6   7
ATOM      7  C   UNL     1      -0.567  -5.879   4.560  0.00  0.00    +0.095 C 
BRANCH   7   8
ATOM      8  C   UNL     1      -1.269  -6.178   5.860  0.00  0.00    +0.135 A 
ATOM      9  N   UNL     1      -0.824  -6.939   6.825  0.00  0.00    -0.134 NA
ATOM     10  N   UNL     1      -1.678  -6.963   7.788  0.00  0.00    -0.134 NA
ATOM     11  C   UNL     1      -2.701  -6.218   7.481  0.00  0.00    +0.133 A 
ATOM     12  N   UNL     1      -2.474  -5.706   6.249  0.00  0.00    -0.315 N 
ATOM     13  C   UNL     1      -3.368  -4.831   5.490  0.00  0.00    +0.125 C 
ATOM     14  C   UNL     1      -4.224  -4.014   6.462  0.00  0.00    +0.022 C 
ATOM     15  C   UNL     1      -5.504  -4.781   6.791  0.00  0.00    +0.002 C 
ATOM     16  C   UNL     1      -5.172  -6.108   7.468  0.00  0.00    +0.008 C 
ATOM     17  C   UNL     1      -3.920  -5.950   8.326  0.00  0.00    +0.076 C 
ENDBRANCH   7   8
ENDBRANCH   6   7
ENDBRANCH   4   6
ENDBRANCH   1   2
BRANCH   1  18
ATOM     18  C   UNL     1       3.412  -1.755   2.247  0.00  0.00    +0.084 C 
BRANCH  18  27
ATOM     19  N   UNL     1       3.623  -0.652  -0.037  0.00  0.00    -0.296 N 
ATOM     20  C   UNL     1       4.561  -0.630  -1.053  0.00  0.00    +0.074 A 
ATOM     21  C   UNL     1       4.633  -0.002  -2.289  0.00  0.00    +0.028 A 
ATOM     22  C   UNL     1       5.739  -0.193  -3.089  0.00  0.00    +0.002 A 
ATOM     23  C   UNL     1       6.779  -1.009  -2.667  0.00  0.00    +0.002 A 
ATOM     24  C   UNL     1       6.725  -1.636  -1.454  0.00  0.00    +0.030 A 
ATOM     25  C   UNL     1       5.614  -1.456  -0.626  0.00  0.00    +0.090 A 
ATOM     26  N   UNL     1       5.274  -1.929   0.601  0.00  0.00    -0.232 NA
ATOM     27  C   UNL     1       4.113  -1.456   0.948  0.00  0.00    +0.116 A 
BRANCH  19  31
ATOM     28  C   UNL     1      -0.017   1.379   0.010  0.00  0.00    +0.000 A 
ATOM     29  C   UNL     1       1.170   2.089   0.002  0.00  0.00    +0.002 A 
ATOM     30  C   UNL     1       2.377   1.419  -0.013  0.00  0.00    +0.026 A 
ATOM     31  C   UNL     1       2.400   0.031  -0.021  0.00  0.00    +0.048 A 
ATOM     32  C   UNL     1       1.207  -0.680  -0.013  0.00  0.00    +0.026 A 
ATOM     33  C   UNL     1       0.002  -0.004   0.002  0.00  0.00    +0.002 A 
ENDBRANCH  19  31
ENDBRANCH  18  27
ENDBRANCH   1  18
TORSDOF 7
