REMARK  Name = ZINC63426811
REMARK  9 active torsions:
REMARK  status: ('A' for Active; 'I' for Inactive)
REMARK    1  A    between atoms: C_1  and  C_2
REMARK    2  A    between atoms: C_2  and  N_18
REMARK    3  A    between atoms: N_9  and  C_12
REMARK    4  A    between atoms: N_18  and  C_19
REMARK    5  A    between atoms: C_19  and  C_21
REMARK    6  A    between atoms: C_19  and  C_31
REMARK    7  A    between atoms: C_21  and  C_22
REMARK    8  A    between atoms: C_31  and  O_33
REMARK    9  A    between atoms: O_33  and  C_34
REMARK                            x       y       z     vdW  Elec       q    Type
REMARK                         _______ _______ _______ _____ _____    ______ ____
ROOT
ATOM      1  C   UNL     1       0.046   1.597   0.104  0.00  0.00    +0.061 C 
ATOM      2  C   UNL     1       0.038   0.098  -0.048  0.00  0.00    +0.019 C 
ATOM      3  C   UNL     1       0.156  -0.710   1.068  0.00  0.00    +0.116 C 
ATOM      4  C   UNL     1       0.142  -0.147   2.430  0.00  0.00    +0.258 C 
ATOM      5  O   UNL     1       0.027   1.050   2.610  0.00  0.00    -0.270 OA
ATOM      6  N   UNL     1       0.261  -0.996   3.472  0.00  0.00    -0.235 N 
ATOM      7  C   UNL     1       0.389  -2.317   3.288  0.00  0.00    +0.320 C 
ATOM      8  O   UNL     1       0.491  -3.028   4.269  0.00  0.00    -0.251 OA
ATOM      9  N   UNL     1       0.409  -2.897   2.079  0.00  0.00    -0.190 N 
ATOM     10  C   UNL     1       0.294  -2.172   0.948  0.00  0.00    +0.265 C 
ATOM     11  O   UNL     1       0.308  -2.711  -0.143  0.00  0.00    -0.269 OA
ATOM     12  H   UNL     1       0.255  -0.642   4.375  0.00  0.00    +0.159 HD
ENDROOT
BRANCH   9  13
ATOM     13  C   UNL     1       0.547  -4.289   1.990  0.00  0.00    +0.046 A 
ATOM     14  C   UNL     1      -0.493  -5.061   1.490  0.00  0.00    +0.024 A 
ATOM     15  C   UNL     1      -0.354  -6.432   1.403  0.00  0.00    +0.002 A 
ATOM     16  C   UNL     1       0.820  -7.037   1.812  0.00  0.00    +0.000 A 
ATOM     17  C   UNL     1       1.858  -6.271   2.310  0.00  0.00    +0.002 A 
ATOM     18  C   UNL     1       1.727  -4.898   2.395  0.00  0.00    +0.024 A 
ENDBRANCH   9  13
BRANCH   2  19
ATOM     19  N   UNL     1      -0.083  -0.456  -1.271  0.00  0.00    -0.334 N 
ATOM     20  H   UNL     1      -0.168  -1.417  -1.362  0.00  0.00    +0.147 HD
BRANCH  19  21
ATOM     21  C   UNL     1      -0.086   0.396  -2.463  0.00  0.00    +0.184 C 
BRANCH  21  22
ATOM     22  C   UNL     1      -1.483   0.904  -2.713  0.00  0.00    +0.328 C 
ATOM     23  O   UNL     1      -2.383   0.588  -1.972  0.00  0.00    -0.249 OA
BRANCH  22  24
ATOM     24  O   UNL     1      -1.727   1.709  -3.760  0.00  0.00    -0.467 OA
ATOM     25  C   UNL     1      -3.073   2.153  -3.937  0.00  0.00    +0.280 C 
ENDBRANCH  22  24
ENDBRANCH  21  22
BRANCH  21  26
ATOM     26  C   UNL     1       0.385  -0.416  -3.671  0.00  0.00    +0.066 C 
BRANCH  26  27
ATOM     27  C   UNL     1       1.823  -0.821  -3.474  0.00  0.00    -0.039 C 
ATOM     28  C   UNL     1       2.277  -1.992  -2.972  0.00  0.00    -0.001 A 
ATOM     29  C   UNL     1       1.594  -3.193  -2.477  0.00  0.00    +0.010 A 
ATOM     30  C   UNL     1       2.335  -4.230  -2.026  0.00  0.00    +0.001 A 
ATOM     31  C   UNL     1       3.736  -4.187  -2.019  0.00  0.00    +0.002 A 
ATOM     32  C   UNL     1       4.435  -3.118  -2.457  0.00  0.00    +0.026 A 
ATOM     33  C   UNL     1       3.757  -1.971  -2.954  0.00  0.00    +0.043 A 
ATOM     34  N   UNL     1       4.201  -0.832  -3.427  0.00  0.00    -0.380 N 
ATOM     35  C   UNL     1       3.051  -0.002  -3.804  0.00  0.00    +0.144 C 
ATOM     36  H   UNL     1       5.134  -0.581  -3.516  0.00  0.00    +0.160 HD
ENDBRANCH  26  27
ENDBRANCH  21  26
ENDBRANCH  19  21
ENDBRANCH   2  19
TORSDOF 7
