REMARK  Name = ZINC13501202
REMARK  9 active torsions:
REMARK  status: ('A' for Active; 'I' for Inactive)
REMARK    1  A    between atoms: C_1  and  C_2
REMARK    2  A    between atoms: C_2  and  C_3
REMARK    3  A    between atoms: C_3  and  C_5
REMARK    4  A    between atoms: C_3  and  N_63
REMARK    5  A    between atoms: N_9  and  C_10
REMARK    6  A    between atoms: C_10  and  C_11
REMARK    7  A    between atoms: C_16  and  C_17
REMARK    8  A    between atoms: C_16  and  N_63
REMARK    9  A    between atoms: C_32  and  N_63
REMARK                            x       y       z     vdW  Elec       q    Type
REMARK                         _______ _______ _______ _____ _____    ______ ____
ROOT
ATOM      1  N   UNL     1      -0.386   2.774  -0.704  0.00  0.00    +0.391 N 
ATOM      2  H   UNL     1       0.534   3.109  -0.393  0.00  0.00    -0.080 HD
ENDROOT
BRANCH   1   3
ATOM      3  C   UNL     1      -0.194   1.724  -1.726  0.00  0.00    -0.067 C 
ATOM      4  C   UNL     1       0.315   0.431  -1.055  0.00  0.00    -0.015 C 
ATOM      5  C   UNL     1       1.340  -0.142  -2.066  0.00  0.00    -0.002 C 
ATOM      6  C   UNL     1       2.036   1.132  -2.607  0.00  0.00    -0.002 C 
ATOM      7  C   UNL     1       0.899   2.169  -2.712  0.00  0.00    -0.015 C 
ENDBRANCH   1   3
BRANCH   1   8
ATOM      8  C   UNL     1      -1.113   2.221   0.459  0.00  0.00    +0.003 C 
BRANCH   8   9
ATOM      9  C   UNL     1      -0.805   3.069   1.666  0.00  0.00    +0.139 A 
ATOM     10  N   UNL     1      -0.704   4.375   1.701  0.00  0.00    -0.115 NA
ATOM     11  N   UNL     1      -0.425   4.721   2.910  0.00  0.00    -0.023 NA
ATOM     12  N   UNL     1      -0.346   3.669   3.648  0.00  0.00    -0.044 NA
ATOM     13  N   UNL     1      -0.574   2.630   2.918  0.00  0.00    -0.223 N 
BRANCH  13  14
ATOM     14  C   UNL     1      -0.580   1.236   3.366  0.00  0.00    +0.221 C 
BRANCH  14  15
ATOM     15  C   UNL     1       0.805   0.658   3.229  0.00  0.00    +0.126 A 
ATOM     16  C   UNL     1       1.766   0.687   4.171  0.00  0.00    +0.046 A 
ATOM     17  C   UNL     1       2.894   0.033   3.624  0.00  0.00    +0.041 A 
ATOM     18  C   UNL     1       2.558  -0.348   2.379  0.00  0.00    +0.195 A 
ATOM     19  O   UNL     1       1.292   0.033   2.145  0.00  0.00    -0.466 OA
ENDBRANCH  14  15
ENDBRANCH  13  14
ENDBRANCH   8   9
BRANCH   8  21
ATOM     20  C   UNL     1      -2.935   1.363  -1.020  0.00  0.00    +0.002 C 
ATOM     21  C   UNL     1      -2.621   2.231   0.200  0.00  0.00    -0.011 C 
ENDBRANCH   8  21
ENDBRANCH   1   8
BRANCH   1  22
ATOM     22  C   UNL     1      -1.141   3.907  -1.279  0.00  0.00    -0.036 C 
BRANCH  22  23
ATOM     23  C   UNL     1      -0.224   4.689  -2.185  0.00  0.00    +0.001 A 
ATOM     24  C   UNL     1      -0.253   4.474  -3.525  0.00  0.00    +0.017 A 
ATOM     25  C   UNL     1       0.645   5.252  -4.377  0.00  0.00    +0.002 A 
ATOM     26  C   UNL     1       0.656   5.075  -5.766  0.00  0.00    +0.059 A 
ATOM     27  C   UNL     1       1.515   5.820  -6.543  0.00  0.00    +0.167 A 
ATOM     28  C   UNL     1       2.375   6.752  -5.949  0.00  0.00    +0.168 A 
ATOM     29  C   UNL     1       2.373   6.932  -4.578  0.00  0.00    +0.075 A 
ATOM     30  C   UNL     1       1.512   6.188  -3.781  0.00  0.00    +0.053 A 
ATOM     31  N   UNL     1       1.496   6.354  -2.410  0.00  0.00    -0.322 N 
ATOM     32  H   UNL     1       2.095   6.998  -2.000  0.00  0.00    +0.169 HD
ATOM     33  C   UNL     1       0.664   5.636  -1.636  0.00  0.00    +0.251 A 
ATOM     34  O   UNL     1       0.677   5.809  -0.430  0.00  0.00    -0.268 OA
ATOM     35  O   UNL     1       3.110   7.349  -6.931  0.00  0.00    -0.453 OA
ATOM     36  C   UNL     1       2.409   7.077  -8.158  0.00  0.00    +0.466 C 
ATOM     37  O   UNL     1       1.719   5.841  -7.894  0.00  0.00    -0.453 OA
ENDBRANCH  22  23
ENDBRANCH   1  22
TORSDOF 8
