REMARK  Name = ZINC21159651
REMARK  9 active torsions:
REMARK  status: ('A' for Active; 'I' for Inactive)
REMARK    1  A    between atoms: C_1  and  C_2
REMARK    2  A    between atoms: C_5  and  C_36
REMARK    3  A    between atoms: C_6  and  C_8
REMARK    4  A    between atoms: C_8  and  N_9
REMARK    5  A    between atoms: C_21  and  C_24
REMARK    6  A    between atoms: N_26  and  C_27
REMARK    7  A    between atoms: C_27  and  C_28
REMARK    8  A    between atoms: C_28  and  C_29
REMARK    9  A    between atoms: C_29  and  N_30
REMARK                            x       y       z     vdW  Elec       q    Type
REMARK                         _______ _______ _______ _____ _____    ______ ____
ROOT
ATOM      1  N   UNL     1      -6.795  -1.209  -2.571  0.00  0.00    -0.309 N 
ATOM      2  C   UNL     1      -8.123  -1.605  -2.601  0.00  0.00    +0.068 A 
ATOM      3  C   UNL     1      -8.914  -2.245  -3.542  0.00  0.00    +0.028 A 
ATOM      4  C   UNL     1     -10.240  -2.505  -3.263  0.00  0.00    +0.002 A 
ATOM      5  C   UNL     1     -10.787  -2.130  -2.045  0.00  0.00    +0.002 A 
ATOM      6  C   UNL     1     -10.016  -1.493  -1.098  0.00  0.00    +0.028 A 
ATOM      7  C   UNL     1      -8.672  -1.222  -1.366  0.00  0.00    +0.065 A 
ATOM      8  N   UNL     1      -7.679  -0.629  -0.653  0.00  0.00    -0.327 N 
ATOM      9  C   UNL     1      -6.577  -0.616  -1.361  0.00  0.00    +0.177 A 
ATOM     10  N   UNL     1      -5.374  -0.087  -0.943  0.00  0.00    -0.302 N 
ATOM     11  C   UNL     1      -5.573   0.885   0.139  0.00  0.00    +0.108 C 
ATOM     12  C   UNL     1      -4.240   1.556   0.476  0.00  0.00    +0.032 C 
ATOM     13  C   UNL     1      -3.230   0.488   0.905  0.00  0.00    +0.078 C 
ATOM     14  C   UNL     1      -3.077  -0.539  -0.221  0.00  0.00    +0.032 C 
ATOM     15  C   UNL     1      -4.444  -1.149  -0.538  0.00  0.00    +0.108 C 
ATOM     16  H   UNL     1      -7.880  -0.252   0.361  0.00  0.00    +0.169 HD
ENDROOT
BRANCH  13  17
ATOM     17  C   UNL     1      -1.898   1.135   1.181  0.00  0.00    +0.216 C 
ATOM     18  O   UNL     1      -1.767   2.334   1.048  0.00  0.00    -0.276 OA
ATOM     19  N   UNL     1      -0.852   0.383   1.575  0.00  0.00    -0.315 N 
ATOM     20  H   UNL     1      -0.971  -0.703   1.700  0.00  0.00    +0.149 HD
BRANCH  19  21
ATOM     21  C   UNL     1       0.445   1.012   1.837  0.00  0.00    +0.105 C 
BRANCH  21  22
ATOM     22  C   UNL     1       1.454  -0.058   2.260  0.00  0.00    +0.038 C 
BRANCH  22  23
ATOM     23  C   UNL     1       2.809   0.599   2.534  0.00  0.00    +0.109 C 
BRANCH  23  24
ATOM     24  N   UNL     1       3.775  -0.425   2.939  0.00  0.00    -0.301 N 
ATOM     25  C   UNL     1       4.012  -0.837   4.327  0.00  0.00    +0.108 C 
ATOM     26  C   UNL     1       4.749  -2.194   4.233  0.00  0.00    +0.028 C 
ATOM     27  C   UNL     1       5.426  -2.086   2.847  0.00  0.00    +0.097 C 
ATOM     28  C   UNL     1       4.563  -1.104   2.087  0.00  0.00    +0.216 C 
ATOM     29  O   UNL     1       4.579  -0.951   0.884  0.00  0.00    -0.276 OA
ENDBRANCH  23  24
ENDBRANCH  22  23
ENDBRANCH  21  22
ENDBRANCH  19  21
ENDBRANCH  13  17
BRANCH   1  30
ATOM     30  C   UNL     1      -5.809  -1.393  -3.639  0.00  0.00    +0.160 C 
BRANCH  30  36
ATOM     31  C   UNL     1      -8.133   0.678  -7.558  0.00  0.00    +0.044 C 
ATOM     32  C   UNL     1      -7.048   0.719  -6.513  0.00  0.00    -0.050 A 
ATOM     33  C   UNL     1      -6.169   1.785  -6.471  0.00  0.00    +0.003 A 
ATOM     34  C   UNL     1      -5.174   1.823  -5.513  0.00  0.00    +0.004 A 
ATOM     35  C   UNL     1      -5.061   0.797  -4.593  0.00  0.00    -0.046 A 
ATOM     36  C   UNL     1      -5.936  -0.272  -4.638  0.00  0.00    -0.025 A 
ATOM     37  C   UNL     1      -6.932  -0.310  -5.597  0.00  0.00    +0.009 A 
ATOM     38  C   UNL     1      -3.980   0.842  -3.543  0.00  0.00    +0.044 C 
ENDBRANCH  30  36
ENDBRANCH   1  30
TORSDOF 7
