REMARK  Name = ZINC36565146
REMARK  14 active torsions:
REMARK  status: ('A' for Active; 'I' for Inactive)
REMARK    1  A    between atoms: C_1  and  C_2
REMARK    2  A    between atoms: C_2  and  C_3
REMARK    3  A    between atoms: C_3  and  N_4
REMARK    4  A    between atoms: N_4  and  C_5
REMARK    5  A    between atoms: C_5  and  C_7
REMARK    6  A    between atoms: C_5  and  C_13
REMARK    7  A    between atoms: N_15  and  C_16
REMARK    8  A    between atoms: C_16  and  S_17
REMARK    9  A    between atoms: S_17  and  C_20
REMARK   10  A    between atoms: C_23  and  C_26
REMARK   11  A    between atoms: C_27  and  C_29
REMARK   12  A    between atoms: C_29  and  C_31
REMARK   13  A    between atoms: C_29  and  C_33
REMARK   14  A    between atoms: C_31  and  C_32
REMARK                            x       y       z     vdW  Elec       q    Type
REMARK                         _______ _______ _______ _____ _____    ______ ____
ROOT
ATOM      1  C   UNL     1      -1.815  -3.079   1.163  0.00  0.00    +0.165 C 
ENDROOT
BRANCH   1   2
ATOM      2  C   UNL     1      -3.149  -3.450   1.816  0.00  0.00    +0.018 C 
ATOM      3  C   UNL     1      -2.905  -3.881   3.263  0.00  0.00    +0.006 C 
ATOM      4  C   UNL     1      -4.238  -4.251   3.917  0.00  0.00    +0.000 C 
ATOM      5  C   UNL     1      -4.883  -5.403   3.143  0.00  0.00    +0.000 C 
ATOM      6  C   UNL     1      -5.126  -4.971   1.695  0.00  0.00    +0.000 C 
ATOM      7  C   UNL     1      -3.793  -4.601   1.042  0.00  0.00    +0.006 C 
ENDBRANCH   1   2
BRANCH   1   8
ATOM      8  C   UNL     1      -1.260  -1.842   1.820  0.00  0.00    +0.235 C 
ATOM      9  O   UNL     1      -1.726  -1.452   2.869  0.00  0.00    -0.274 OA
ATOM     10  N   UNL     1      -0.246  -1.169   1.241  0.00  0.00    -0.295 N 
ATOM     11  H   UNL     1       0.078  -1.438   0.367  0.00  0.00    +0.150 HD
BRANCH  10  12
ATOM     12  C   UNL     1       0.365  -0.031   1.931  0.00  0.00    +0.278 C 
BRANCH  12  13
ATOM     13  S   UNL     1       1.872  -0.578   2.780  0.00  0.00    +0.013 S 
ATOM     14  O   UNL     1       2.482   0.518   3.450  0.00  0.00    -0.168 OA
ATOM     15  O   UNL     1       1.633  -1.801   3.463  0.00  0.00    -0.168 OA
BRANCH  13  16
ATOM     16  C   UNL     1       2.994  -0.996   1.488  0.00  0.00    +0.090 A 
ATOM     17  C   UNL     1       2.954  -2.255   0.918  0.00  0.00    +0.027 A 
ATOM     18  C   UNL     1       3.834  -2.583  -0.096  0.00  0.00    +0.005 A 
ATOM     19  C   UNL     1       4.754  -1.651  -0.541  0.00  0.00    -0.050 A 
ATOM     20  C   UNL     1       4.794  -0.392   0.028  0.00  0.00    +0.005 A 
ATOM     21  C   UNL     1       3.911  -0.063   1.039  0.00  0.00    +0.027 A 
ATOM     22  C   UNL     1       5.714  -2.009  -1.646  0.00  0.00    +0.044 C 
ENDBRANCH  13  16
ENDBRANCH  12  13
ENDBRANCH  10  12
ENDBRANCH   1   8
BRANCH   1  23
ATOM     23  N   UNL     1      -2.026  -2.822  -0.264  0.00  0.00    -0.289 N 
ATOM     24  C   UNL     1      -1.296  -3.486  -1.183  0.00  0.00    +0.224 C 
ATOM     25  O   UNL     1      -0.389  -4.209  -0.830  0.00  0.00    -0.275 OA
BRANCH  23  26
ATOM     26  C   UNL     1      -3.028  -1.844  -0.692  0.00  0.00    +0.108 C 
BRANCH  26  28
ATOM     27  C   UNL     1      -3.414   0.560  -1.253  0.00  0.00    +0.005 C 
ATOM     28  C   UNL     1      -2.416  -0.442  -0.669  0.00  0.00    +0.016 C 
ENDBRANCH  26  28
ENDBRANCH  23  26
BRANCH  24  29
ATOM     29  C   UNL     1      -1.607  -3.328  -2.649  0.00  0.00    +0.105 C 
BRANCH  29  30
ATOM     30  C   UNL     1      -1.228  -4.590  -3.381  0.00  0.00    -0.036 A 
ATOM     31  C   UNL     1       0.081  -5.035  -3.359  0.00  0.00    +0.004 A 
ATOM     32  C   UNL     1       0.429  -6.192  -4.031  0.00  0.00    +0.000 A 
ATOM     33  C   UNL     1      -0.532  -6.904  -4.724  0.00  0.00    +0.000 A 
ATOM     34  C   UNL     1      -1.841  -6.459  -4.746  0.00  0.00    +0.000 A 
ATOM     35  C   UNL     1      -2.189  -5.304  -4.071  0.00  0.00    +0.004 A 
ENDBRANCH  29  30
BRANCH  29  36
ATOM     36  C   UNL     1      -0.812  -2.151  -3.216  0.00  0.00    +0.014 C 
ATOM     37  C   UNL     1      -1.163  -1.962  -4.693  0.00  0.00    +0.005 C 
ENDBRANCH  29  36
ENDBRANCH  24  29
ENDBRANCH   1  23
TORSDOF 11
