REMARK  Name = ZINC20427002
REMARK  9 active torsions:
REMARK  status: ('A' for Active; 'I' for Inactive)
REMARK    1  A    between atoms: C_1  and  C_2
REMARK    2  A    between atoms: N_7  and  C_8
REMARK    3  A    between atoms: C_8  and  C_10
REMARK    4  A    between atoms: C_11  and  C_35
REMARK    5  A    between atoms: C_13  and  C_34
REMARK    6  A    between atoms: C_14  and  C_25
REMARK    7  A    between atoms: C_15  and  C_16
REMARK    8  A    between atoms: C_20  and  N_22
REMARK    9  A    between atoms: C_30  and  C_33
REMARK                            x       y       z     vdW  Elec       q    Type
REMARK                         _______ _______ _______ _____ _____    ______ ____
ROOT
ATOM      1  C   UNL     1      -5.816   3.236   3.867  0.00  0.00    +0.045 C 
ATOM      2  C   UNL     1      -6.275   3.512   5.099  0.00  0.00    +0.014 C 
ATOM      3  N   UNL     1      -7.608   3.733   5.318  0.00  0.00    -0.321 N 
ATOM      4  C   UNL     1      -8.438   4.034   4.272  0.00  0.00    +0.014 C 
ATOM      5  C   UNL     1      -8.069   3.781   3.005  0.00  0.00    +0.043 C 
ATOM      6  C   UNL     1      -6.742   3.158   2.686  0.00  0.00    +0.092 C 
ATOM      7  C   UNL     1      -9.783   4.658   4.544  0.00  0.00    +0.061 C 
ATOM      8  C   UNL     1      -5.310   3.578   6.255  0.00  0.00    +0.061 C 
ATOM      9  H   UNL     1      -8.016   3.670   6.337  0.00  0.00    +0.152 HD
ENDROOT
BRANCH   5  10
ATOM     10  C   UNL     1      -8.949   4.113   1.947  0.00  0.00    +0.248 C 
ATOM     11  O   UNL     1     -10.028   4.623   2.190  0.00  0.00    -0.270 OA
ATOM     12  N   UNL     1      -8.593   3.865   0.671  0.00  0.00    -0.261 N 
ATOM     13  C   UNL     1      -9.457   4.190  -0.366  0.00  0.00    +0.165 A 
ATOM     14  N   UNL     1      -9.289   4.032  -1.665  0.00  0.00    -0.230 NA
ATOM     15  C   UNL     1     -10.221   4.397  -2.524  0.00  0.00    +0.047 A 
ATOM     16  C   UNL     1     -11.361   4.951  -2.043  0.00  0.00    +0.071 A 
ATOM     17  S   UNL     1     -11.032   4.917  -0.287  0.00  0.00    -0.060 S 
ATOM     18  C   UNL     1     -10.021   4.207  -4.005  0.00  0.00    +0.066 C 
ATOM     19  H   UNL     1      -7.619   3.404   0.452  0.00  0.00    +0.157 HD
ENDBRANCH   5  10
BRANCH   6  20
ATOM     20  C   UNL     1      -6.954   1.712   2.317  0.00  0.00    -0.033 A 
ATOM     21  C   UNL     1      -7.499   0.836   3.238  0.00  0.00    +0.005 A 
ATOM     22  C   UNL     1      -7.697  -0.489   2.898  0.00  0.00    +0.003 A 
ATOM     23  C   UNL     1      -7.342  -0.940   1.641  0.00  0.00    +0.033 A 
ATOM     24  C   UNL     1      -6.793  -0.066   0.722  0.00  0.00    +0.126 A 
ATOM     25  C   UNL     1      -6.598   1.260   1.060  0.00  0.00    +0.037 A 
BRANCH  24  26
ATOM     26  N   UNL     1      -6.412  -0.550  -0.625  0.00  0.00    +0.056 N 
ATOM     27  O   UNL     1      -5.928   0.221  -1.434  0.00  0.00    -0.126 OA
ATOM     28  O   UNL     1      -6.584  -1.718  -0.923  0.00  0.00    -0.126 OA
ENDBRANCH  24  26
ENDBRANCH   6  20
BRANCH   1  29
ATOM     29  C   UNL     1      -4.430   3.021   3.676  0.00  0.00    +0.268 C 
ATOM     30  O   UNL     1      -3.728   3.919   3.248  0.00  0.00    -0.268 OA
BRANCH  29  37
ATOM     31  C   UNL     1       0.278  -0.760   4.032  0.00  0.00    +0.064 C 
ATOM     32  C   UNL     1      -0.522   0.490   3.771  0.00  0.00    +0.021 A 
ATOM     33  C   UNL     1       0.075   1.608   3.291  0.00  0.00    +0.069 A 
ATOM     34  S   UNL     1      -1.323   2.715   3.190  0.00  0.00    -0.060 S 
ATOM     35  C   UNL     1      -2.528   1.611   3.780  0.00  0.00    +0.163 A 
ATOM     36  N   UNL     1      -1.820   0.520   4.000  0.00  0.00    -0.339 N 
ATOM     37  N   UNL     1      -3.888   1.822   3.967  0.00  0.00    -0.153 NA
ATOM     38  H   UNL     1      -2.332  -0.375   4.382  0.00  0.00    +0.167 HD
ENDBRANCH  29  37
ENDBRANCH   1  29
TORSDOF 5
