REMARK  Name = ZINC05853190
REMARK  8 active torsions:
REMARK  status: ('A' for Active; 'I' for Inactive)
REMARK    1  A    between atoms: C_1  and  C_2
REMARK    2  A    between atoms: C_8  and  N_10
REMARK    3  A    between atoms: C_11  and  C_13
REMARK    4  A    between atoms: C_13  and  C_15
REMARK    5  A    between atoms: C_13  and  O_16
REMARK    6  A    between atoms: O_16  and  C_17
REMARK    7  A    between atoms: C_17  and  C_19
REMARK    8  A    between atoms: C_21  and  N_26
REMARK                            x       y       z     vdW  Elec       q    Type
REMARK                         _______ _______ _______ _____ _____    ______ ____
ROOT
ATOM      1  C   UNL     1       0.200  -4.303  -0.022  0.00  0.00    +0.259 C 
ATOM      2  C   UNL     1       0.222  -4.804  -1.467  0.00  0.00    +0.062 C 
ENDROOT
BRANCH   1   4
ATOM      3  N   UNL     1      -1.052  -6.225   0.903  0.00  0.00    -0.309 N 
ATOM      4  C   UNL     1      -0.985  -4.895   0.697  0.00  0.00    +0.254 C 
ATOM      5  O   UNL     1      -1.878  -4.175   1.091  0.00  0.00    -0.272 OA
ATOM      6  H   UNL     1      -0.338  -6.801   0.589  0.00  0.00    +0.149 HD
BRANCH   3  13
ATOM      7  C   UNL     1      -2.607  -8.337  -0.327  0.00  0.00    +0.009 C 
ATOM      8  C   UNL     1      -2.376  -8.263   1.184  0.00  0.00    +0.006 C 
ATOM      9  C   UNL     1      -3.579  -8.864   1.914  0.00  0.00    +0.005 C 
ATOM     10  C   UNL     1      -3.348  -8.790   3.424  0.00  0.00    +0.000 C 
ATOM     11  C   UNL     1      -3.175  -7.328   3.843  0.00  0.00    +0.002 C 
ATOM     12  C   UNL     1      -1.973  -6.727   3.113  0.00  0.00    +0.022 C 
ATOM     13  C   UNL     1      -2.204  -6.801   1.602  0.00  0.00    +0.076 C 
ENDBRANCH   3  13
ENDBRANCH   1   4
BRANCH   1  14
ATOM     14  O   UNL     1       0.097  -2.855  -0.013  0.00  0.00    -0.449 OA
BRANCH  14  15
ATOM     15  C   UNL     1       1.250  -2.159  -0.021  0.00  0.00    +0.341 C 
ATOM     16  O   UNL     1       2.314  -2.747  -0.034  0.00  0.00    -0.245 OA
BRANCH  15  17
ATOM     17  C   UNL     1       1.223  -0.683  -0.013  0.00  0.00    +0.079 A 
ATOM     18  C   UNL     1       0.002  -0.004   0.002  0.00  0.00    +0.049 A 
ATOM     19  C   UNL     1      -0.017   1.375   0.010  0.00  0.00    +0.127 A 
ATOM     20  C   UNL     1       1.170   2.087   0.002  0.00  0.00    +0.034 A 
ATOM     21  C   UNL     1       2.383   1.423  -0.013  0.00  0.00    +0.023 A 
ATOM     22  C   UNL     1       2.417   0.042  -0.021  0.00  0.00    +0.055 A 
ATOM     23 CL   UNL     1       3.941  -0.791  -0.040  0.00  0.00    -0.083 Cl
BRANCH  19  24
ATOM     24  N   UNL     1      -1.310   2.095   0.020  0.00  0.00    +0.056 N 
ATOM     25  O   UNL     1      -2.355   1.470   0.021  0.00  0.00    -0.126 OA
ATOM     26  O   UNL     1      -1.328   3.313   0.026  0.00  0.00    -0.126 OA
ENDBRANCH  19  24
ENDBRANCH  15  17
ENDBRANCH  14  15
ENDBRANCH   1  14
TORSDOF 6
