REMARK  Name = ZINC39672833
REMARK  9 active torsions:
REMARK  status: ('A' for Active; 'I' for Inactive)
REMARK    1  A    between atoms: C_1  and  O_2
REMARK    2  A    between atoms: O_2  and  C_3
REMARK    3  A    between atoms: C_6  and  C_11
REMARK    4  A    between atoms: C_7  and  O_9
REMARK    5  A    between atoms: O_9  and  C_10
REMARK    6  A    between atoms: C_15  and  C_24
REMARK    7  A    between atoms: N_26  and  C_27
REMARK    8  A    between atoms: C_27  and  C_28
REMARK    9  A    between atoms: C_28  and  N_34
REMARK                            x       y       z     vdW  Elec       q    Type
REMARK                         _______ _______ _______ _____ _____    ______ ____
ROOT
ATOM      1  C   UNL     1      -5.372  -2.962  -0.007  0.00  0.00    +0.250 C 
ATOM      2  O   UNL     1      -5.517  -4.169  -0.043  0.00  0.00    -0.270 OA
ATOM      3  N   UNL     1      -6.444  -2.158   0.132  0.00  0.00    -0.296 N 
ATOM      4  C   UNL     1      -6.480  -0.677   0.098  0.00  0.00    +0.121 C 
ATOM      5  C   UNL     1      -7.774  -0.335  -0.675  0.00  0.00    +0.100 C 
ATOM      6  C   UNL     1      -8.672  -1.571  -0.501  0.00  0.00    -0.004 C 
ATOM      7  C   UNL     1      -7.856  -2.556   0.348  0.00  0.00    +0.115 C 
ATOM      8  C   UNL     1      -8.987  -2.191  -1.860  0.00  0.00    -0.010 C 
ATOM      9  C   UNL     1      -9.928  -3.383  -1.666  0.00  0.00    -0.082 C 
ATOM     10  N   UNL     1     -11.163  -2.933  -1.013  0.00  0.00    +0.379 N 
ATOM     11  C   UNL     1     -10.863  -2.424   0.331  0.00  0.00    -0.082 C 
ATOM     12  C   UNL     1      -9.961  -1.190   0.221  0.00  0.00    -0.010 C 
ATOM     13  H   UNL     1     -11.585  -2.200  -1.563  0.00  0.00    -0.086 HD
ATOM     14  H   UNL     1     -11.806  -3.708  -0.941  0.00  0.00    -0.086 HD
ENDROOT
BRANCH   1  18
ATOM     15  C   UNL     1      -1.483  -1.279  -0.319  0.00  0.00    +0.124 A 
ATOM     16  C   UNL     1      -2.482  -0.604   0.378  0.00  0.00    +0.046 A 
ATOM     17  C   UNL     1      -3.742  -1.145   0.481  0.00  0.00    +0.020 A 
ATOM     18  C   UNL     1      -4.023  -2.378  -0.116  0.00  0.00    +0.079 A 
ATOM     19  C   UNL     1      -3.016  -3.058  -0.817  0.00  0.00    +0.136 A 
ATOM     20  C   UNL     1      -1.753  -2.500  -0.919  0.00  0.00    +0.092 A 
BRANCH  15  22
ATOM     21  C   UNL     1      -0.032   0.521   0.226  0.00  0.00    +0.277 C 
ATOM     22  O   UNL     1      -0.243  -0.738  -0.415  0.00  0.00    -0.495 OA
ENDBRANCH  15  22
BRANCH  19  23
ATOM     23  O   UNL     1      -3.281  -4.255  -1.399  0.00  0.00    -0.494 OA
ATOM     24  C   UNL     1      -2.207  -4.888  -2.096  0.00  0.00    +0.277 C 
ENDBRANCH  19  23
ENDBRANCH   1  18
BRANCH   5  25
ATOM     25  C   UNL     1      -8.433   0.883  -0.082  0.00  0.00    +0.218 C 
ATOM     26  O   UNL     1      -8.240   1.172   1.079  0.00  0.00    -0.275 OA
ATOM     27  N   UNL     1      -9.237   1.652  -0.844  0.00  0.00    -0.313 N 
ATOM     28  H   UNL     1      -9.391   1.421  -1.773  0.00  0.00    +0.149 HD
BRANCH  27  29
ATOM     29  C   UNL     1      -9.878   2.837  -0.268  0.00  0.00    +0.126 C 
BRANCH  29  30
ATOM     30  C   UNL     1     -10.630   3.594  -1.364  0.00  0.00    +0.038 C 
ATOM     31  C   UNL     1     -11.195   4.895  -0.790  0.00  0.00    +0.024 C 
ATOM     32  C   UNL     1     -12.155   4.571   0.357  0.00  0.00    +0.002 C 
ATOM     33  C   UNL     1     -13.302   3.704  -0.168  0.00  0.00    +0.000 C 
ATOM     34  C   UNL     1     -12.736   2.404  -0.742  0.00  0.00    +0.002 C 
ATOM     35  C   UNL     1     -11.776   2.727  -1.888  0.00  0.00    +0.024 C 
BRANCH  30  36
ATOM     36  N   UNL     1      -9.708   3.904  -2.465  0.00  0.00    -0.291 NA
ATOM     37  C   UNL     1      -8.500   4.579  -1.967  0.00  0.00    +0.113 C 
ATOM     38  C   UNL     1      -7.543   4.830  -3.135  0.00  0.00    +0.175 C 
ATOM     39  O   UNL     1      -8.216   5.595  -4.140  0.00  0.00    -0.377 OA
ATOM     40  C   UNL     1      -9.396   4.966  -4.648  0.00  0.00    +0.175 C 
ATOM     41  C   UNL     1     -10.371   4.717  -3.494  0.00  0.00    +0.113 C 
ENDBRANCH  30  36
ENDBRANCH  29  30
ENDBRANCH  27  29
ENDBRANCH   5  25
TORSDOF 7
