REMARK  Name = ZINC32935701
REMARK  7 active torsions:
REMARK  status: ('A' for Active; 'I' for Inactive)
REMARK    1  A    between atoms: C_1  and  C_2
REMARK    2  A    between atoms: C_2  and  C_4
REMARK    3  A    between atoms: C_2  and  N_19
REMARK    4  A    between atoms: N_6  and  C_7
REMARK    5  A    between atoms: C_8  and  C_17
REMARK    6  A    between atoms: C_25  and  C_27
REMARK    7  A    between atoms: N_29  and  C_30
REMARK                            x       y       z     vdW  Elec       q    Type
REMARK                         _______ _______ _______ _____ _____    ______ ____
ROOT
ATOM      1  C   UNL     1      -2.720   2.603   2.896  0.00  0.00    -0.004 C 
ATOM      2  C   UNL     1      -1.478   3.419   2.535  0.00  0.00    +0.017 C 
ENDROOT
BRANCH   2   3
ATOM      3  N   UNL     1      -0.943   2.954   1.249  0.00  0.00    +0.389 N 
ATOM      4  C   UNL     1      -0.692   1.506   1.276  0.00  0.00    -0.058 C 
ATOM      5  C   UNL     1       0.026   1.091  -0.013  0.00  0.00    +0.089 C 
ATOM      6  N   UNL     1      -0.756   1.569  -1.163  0.00  0.00    -0.297 N 
ATOM      7  C   UNL     1      -1.160   2.984  -1.190  0.00  0.00    +0.089 C 
ATOM      8  C   UNL     1      -1.835   3.324   0.142  0.00  0.00    -0.058 C 
ATOM      9  C   UNL     1      -1.095   0.734  -2.164  0.00  0.00    +0.301 C 
ATOM     10  O   UNL     1      -0.729  -0.423  -2.140  0.00  0.00    -0.265 OA
ATOM     11  H   UNL     1       0.022   3.456   1.079  0.00  0.00    -0.081 HD
BRANCH   9  12
ATOM     12  C   UNL     1      -1.921   1.232  -3.306  0.00  0.00    +0.299 C 
ATOM     13  O   UNL     1      -2.188   2.412  -3.392  0.00  0.00    -0.265 OA
ATOM     14  N   UNL     1      -2.369   0.369  -4.240  0.00  0.00    -0.305 N 
ATOM     15  H   UNL     1      -2.127  -0.701  -4.162  0.00  0.00    +0.149 HD
BRANCH  14  16
ATOM     16  C   UNL     1      -3.179   0.858  -5.359  0.00  0.00    +0.073 C 
ATOM     17  C   UNL     1      -4.412   0.040  -5.748  0.00  0.00    +0.024 C 
ATOM     18  C   UNL     1      -3.174   0.032  -6.647  0.00  0.00    +0.024 C 
ENDBRANCH  14  16
ENDBRANCH   9  12
ENDBRANCH   2   3
BRANCH   2  19
ATOM     19  C   UNL     1      -0.433   3.244   3.607  0.00  0.00    +0.204 C 
ATOM     20  O   UNL     1       0.651   2.778   3.326  0.00  0.00    -0.277 OA
ATOM     21  N   UNL     1      -0.703   3.606   4.877  0.00  0.00    -0.280 N 
ATOM     22  H   UNL     1      -1.686   4.029   5.131  0.00  0.00    +0.155 HD
BRANCH  21  23
ATOM     23  C   UNL     1       0.260   3.445   5.864  0.00  0.00    +0.090 A 
ATOM     24  C   UNL     1       0.172   3.754   7.211  0.00  0.00    +0.084 A 
ATOM     25  C   UNL     1       1.333   3.484   8.046  0.00  0.00    -0.018 A 
ATOM     26  C   UNL     1       2.393   2.959   7.395  0.00  0.00    -0.004 A 
ATOM     27  S   UNL     1       1.861   2.802   5.712  0.00  0.00    -0.077 S 
ATOM     28  C   UNL     1       3.727   2.588   7.964  0.00  0.00    +0.043 C 
ATOM     29  C   UNL     1       3.519   1.744   9.228  0.00  0.00    +0.005 C 
ATOM     30  C   UNL     1       3.431   2.683  10.428  0.00  0.00    +0.001 C 
ATOM     31  C   UNL     1       2.775   3.999  10.017  0.00  0.00    +0.005 C 
ATOM     32  C   UNL     1       1.345   3.759   9.545  0.00  0.00    +0.037 C 
BRANCH  24  33
ATOM     33  C   UNL     1      -1.022   4.320   7.764  0.00  0.00    +0.102 C 
ATOM     34  N   UNL     1      -1.969   4.769   8.202  0.00  0.00    -0.191 NA
ENDBRANCH  24  33
ENDBRANCH  21  23
ENDBRANCH   2  19
TORSDOF 6
