REMARK  Name = ZINC36064023
REMARK  11 active torsions:
REMARK  status: ('A' for Active; 'I' for Inactive)
REMARK    1  A    between atoms: C_1  and  C_2
REMARK    2  A    between atoms: C_6  and  C_8
REMARK    3  A    between atoms: C_8  and  N_9
REMARK    4  A    between atoms: N_9  and  C_10
REMARK    5  A    between atoms: N_9  and  C_22
REMARK    6  A    between atoms: C_10  and  C_11
REMARK    7  A    between atoms: C_11  and  C_12
REMARK    8  A    between atoms: C_22  and  C_23
REMARK    9  A    between atoms: C_25  and  C_28
REMARK   10  A    between atoms: N_30  and  C_31
REMARK   11  A    between atoms: C_31  and  C_32
REMARK                            x       y       z     vdW  Elec       q    Type
REMARK                         _______ _______ _______ _____ _____    ______ ____
ROOT
ATOM      1  N   UNL     1       1.719  -2.981   2.749  0.00  0.00    +0.388 N 
ATOM      2  H   UNL     1       2.305  -3.318   2.000  0.00  0.00    -0.081 HD
ENDROOT
BRANCH   1   3
ATOM      3  C   UNL     1       0.340  -2.836   2.264  0.00  0.00    -0.042 C 
BRANCH   3   9
ATOM      4  C   UNL     1      -0.266   1.675   0.184  0.00  0.00    +0.044 C 
ATOM      5  C   UNL     1       0.036   0.205   0.048  0.00  0.00    -0.050 A 
ATOM      6  C   UNL     1       0.301  -0.333  -1.198  0.00  0.00    +0.003 A 
ATOM      7  C   UNL     1       0.578  -1.682  -1.323  0.00  0.00    +0.000 A 
ATOM      8  C   UNL     1       0.591  -2.492  -0.202  0.00  0.00    +0.002 A 
ATOM      9  C   UNL     1       0.327  -1.953   1.043  0.00  0.00    -0.064 A 
ATOM     10  C   UNL     1       0.054  -0.603   1.168  0.00  0.00    +0.005 A 
ENDBRANCH   3   9
ENDBRANCH   1   3
BRANCH   1  11
ATOM     11  C   UNL     1       1.748  -3.938   3.863  0.00  0.00    -0.073 C 
BRANCH  11  12
ATOM     12  C   UNL     1       1.350  -5.325   3.354  0.00  0.00    +0.019 C 
BRANCH  12  13
ATOM     13  C   UNL     1       1.381  -6.306   4.497  0.00  0.00    -0.024 A 
ATOM     14  C   UNL     1       2.403  -7.109   4.834  0.00  0.00    +0.087 A 
ATOM     15  N   UNL     1       2.066  -7.861   5.926  0.00  0.00    -0.360 N 
ATOM     16  H   UNL     1       2.642  -8.514   6.352  0.00  0.00    +0.165 HD
ATOM     17  C   UNL     1       0.785  -7.554   6.329  0.00  0.00    +0.047 A 
ATOM     18  C   UNL     1       0.302  -6.562   5.455  0.00  0.00    +0.003 A 
ATOM     19  C   UNL     1      -0.984  -6.047   5.629  0.00  0.00    +0.010 A 
ATOM     20  C   UNL     1      -1.767  -6.508   6.650  0.00  0.00    +0.001 A 
ATOM     21  C   UNL     1      -1.294  -7.483   7.516  0.00  0.00    +0.002 A 
ATOM     22  C   UNL     1      -0.031  -8.012   7.358  0.00  0.00    +0.026 A 
ENDBRANCH  12  13
ENDBRANCH  11  12
ENDBRANCH   1  11
BRANCH   1  23
ATOM     23  C   UNL     1       2.216  -1.677   3.209  0.00  0.00    +0.019 C 
BRANCH  23  24
ATOM     24  C   UNL     1       3.672  -1.796   3.576  0.00  0.00    +0.179 A 
ATOM     25  N   UNL     1       4.671  -1.570   2.776  0.00  0.00    -0.210 NA
ATOM     26  C   UNL     1       5.828  -1.778   3.460  0.00  0.00    +0.163 A 
ATOM     27  C   UNL     1       5.485  -2.144   4.725  0.00  0.00    +0.230 A 
ATOM     28  O   UNL     1       4.143  -2.145   4.782  0.00  0.00    -0.449 OA
BRANCH  26  29
ATOM     29  C   UNL     1       7.196  -1.635   2.931  0.00  0.00    +0.266 C 
ATOM     30  O   UNL     1       8.150  -1.942   3.620  0.00  0.00    -0.268 OA
ATOM     31  N   UNL     1       7.390  -1.163   1.683  0.00  0.00    -0.308 N 
ATOM     32  H   UNL     1       6.636  -0.846   1.162  0.00  0.00    +0.149 HD
BRANCH  31  33
ATOM     33  C   UNL     1       8.740  -1.130   1.114  0.00  0.00    +0.136 C 
BRANCH  33  34
ATOM     34  C   UNL     1       8.700  -0.443  -0.253  0.00  0.00    +0.135 C 
ATOM     35  C   UNL     1      10.095  -0.510  -0.913  0.00  0.00    +0.035 C 
ATOM     36  C   UNL     1      10.211   0.888  -1.579  0.00  0.00    +0.031 C 
ATOM     37  C   UNL     1       9.443   1.765  -0.559  0.00  0.00    +0.160 C 
ATOM     38  O   UNL     1       8.361   0.939  -0.092  0.00  0.00    -0.375 OA
ENDBRANCH  33  34
ENDBRANCH  31  33
ENDBRANCH  26  29
ENDBRANCH  23  24
ENDBRANCH   1  23
TORSDOF 10
