REMARK  Name = ZINC02136490
REMARK  9 active torsions:
REMARK  status: ('A' for Active; 'I' for Inactive)
REMARK    1  A    between atoms: C_1  and  C_2
REMARK    2  A    between atoms: C_2  and  C_4
REMARK    3  A    between atoms: C_2  and  O_23
REMARK    4  A    between atoms: N_6  and  CA_7
REMARK    5  A    between atoms: CA_7  and  C_9
REMARK    6  A    between atoms: CA_7  and  C_21
REMARK    7  A    between atoms: C_9  and  C_10
REMARK    8  A    between atoms: C_17  and  O_20
REMARK    9  A    between atoms: O_23  and  C_24
REMARK                            x       y       z     vdW  Elec       q    Type
REMARK                         _______ _______ _______ _____ _____    ______ ____
ROOT
ATOM      1  C   UNL     1       7.111   3.974   0.879  0.00  0.00    +0.254 C 
ATOM      2  O   UNL     1       6.866   5.078   1.316  0.00  0.00    -0.272 OA
ATOM      3  N   UNL     1       8.314   3.411   1.107  0.00  0.00    -0.299 N 
ATOM      4  H   UNL     1       8.510   2.527   0.757  0.00  0.00    +0.150 HD
ENDROOT
BRANCH   1   6
ATOM      5  C   UNL     1       6.613   2.940  -1.319  0.00  0.00    +0.062 C 
ATOM      6  C   UNL     1       6.070   3.231   0.081  0.00  0.00    +0.256 C 
BRANCH   6   7
ATOM      7  O   UNL     1       4.890   4.030  -0.022  0.00  0.00    -0.478 OA
BRANCH   7   8
ATOM      8  C   UNL     1       3.719   3.375  -0.231  0.00  0.00    +0.143 A 
ATOM      9  C   UNL     1       3.726   2.006  -0.445  0.00  0.00    +0.094 A 
ATOM     10  C   UNL     1       2.530   1.337  -0.658  0.00  0.00    +0.143 A 
ATOM     11  C   UNL     1       1.324   2.059  -0.654  0.00  0.00    +0.023 A 
ATOM     12  C   UNL     1       1.333   3.441  -0.437  0.00  0.00    +0.035 A 
ATOM     13  C   UNL     1       2.519   4.085  -0.228  0.00  0.00    +0.083 A 
ATOM     14 CL   UNL     1       2.533   5.800   0.043  0.00  0.00    -0.080 Cl
ATOM     15  C   UNL     1       0.060   1.345  -0.881  0.00  0.00    -0.027 A 
ATOM     16  C   UNL     1       0.108   0.012  -1.093  0.00  0.00    +0.041 A 
ATOM     17  C   UNL     1       1.360  -0.651  -1.079  0.00  0.00    +0.341 A 
ATOM     18  O   UNL     1       1.393  -1.854  -1.263  0.00  0.00    -0.245 OA
ATOM     19  O   UNL     1       2.510   0.004  -0.869  0.00  0.00    -0.422 OA
ATOM     20  C   UNL     1      -1.125  -0.813  -1.357  0.00  0.00    +0.042 C 
ATOM     21  C   UNL     1      -2.379  -0.065  -0.911  0.00  0.00    +0.005 C 
ATOM     22  C   UNL     1      -2.348   1.341  -1.524  0.00  0.00    +0.005 C 
ATOM     23  C   UNL     1      -1.222   2.129  -0.857  0.00  0.00    +0.036 C 
ENDBRANCH   7   8
ENDBRANCH   6   7
ENDBRANCH   1   6
BRANCH   3  24
ATOM     24  CA  UNL     1       9.326   4.133   1.882  0.00  0.00    +0.191 C 
BRANCH  24  25
ATOM     25  C   UNL     1       9.097   3.894   3.353  0.00  0.00    +0.376 C 
ATOM     26  O   UNL     1       8.182   3.192   3.715  0.00  0.00    -0.244 OA
ATOM     27  OXT UNL     1       9.909   4.460   4.259  0.00  0.00    -0.244 OA
ENDBRANCH  24  25
BRANCH  24  28
ATOM     28  C   UNL     1      10.719   3.632   1.495  0.00  0.00    +0.071 C 
BRANCH  28  29
ATOM     29  C   UNL     1      10.996   3.981   0.056  0.00  0.00    -0.020 A 
ATOM     30  C   UNL     1      10.809   3.185  -1.009  0.00  0.00    +0.087 A 
ATOM     31  N   UNL     1      11.167   3.844  -2.153  0.00  0.00    -0.360 N 
ATOM     32  H   UNL     1      11.118   3.474  -3.048  0.00  0.00    +0.165 HD
ATOM     33  C   UNL     1      11.614   5.112  -1.843  0.00  0.00    +0.047 A 
ATOM     34  C   UNL     1      11.526   5.251  -0.446  0.00  0.00    +0.006 A 
ATOM     35  C   UNL     1      11.916   6.446   0.162  0.00  0.00    +0.055 A 
ATOM     36  C   UNL     1      12.387   7.486  -0.616  0.00  0.00    +0.118 A 
ATOM     37  C   UNL     1      12.473   7.344  -1.999  0.00  0.00    +0.047 A 
ATOM     38  C   UNL     1      12.091   6.170  -2.609  0.00  0.00    +0.030 A 
BRANCH  36  39
ATOM     39  O   UNL     1      12.767   8.652  -0.030  0.00  0.00    -0.507 OA
ATOM     40  H   UNL     1      13.700   8.679   0.223  0.00  0.00    +0.292 HD
ENDBRANCH  36  39
ENDBRANCH  28  29
ENDBRANCH  24  28
ENDBRANCH   3  24
TORSDOF 8
