REMARK  Name = ZINC38008929
REMARK  6 active torsions:
REMARK  status: ('A' for Active; 'I' for Inactive)
REMARK    1  A    between atoms: C_1  and  C_2
REMARK    2  A    between atoms: C_5  and  N_9
REMARK    3  A    between atoms: C_6  and  C_8
REMARK    4  A    between atoms: N_9  and  S_10
REMARK    5  A    between atoms: S_10  and  C_13
REMARK    6  A    between atoms: N_19  and  N_20
REMARK                            x       y       z     vdW  Elec       q    Type
REMARK                         _______ _______ _______ _____ _____    ______ ____
ROOT
ATOM      1  S   UNL     1       0.062  -4.987  -1.460  0.00  0.00    +0.092 S 
ATOM      2  O   UNL     1      -1.190  -4.727  -2.079  0.00  0.00    -0.148 OA
ATOM      3  O   UNL     1       1.300  -4.694  -2.091  0.00  0.00    -0.148 OA
ENDROOT
BRANCH   1   4
ATOM      4  C   UNL     1       0.087  -6.708  -1.079  0.00  0.00    +0.115 A 
ATOM      5  C   UNL     1       1.290  -7.384  -0.925  0.00  0.00    +0.046 A 
ATOM      6  C   UNL     1       1.275  -8.731  -0.626  0.00  0.00    +0.086 A 
ATOM      7  N   UNL     1       0.135  -9.381  -0.486  0.00  0.00    -0.349 N 
ATOM      8  C   UNL     1      -1.032  -8.772  -0.624  0.00  0.00    +0.112 A 
ATOM      9  C   UNL     1      -1.092  -7.414  -0.920  0.00  0.00    +0.071 A 
ATOM     10  N   UNL     1      -2.209  -9.495  -0.468  0.00  0.00    -0.269 N 
ATOM     11  H   UNL     1      -3.067  -9.053  -0.569  0.00  0.00    +0.167 HD
ATOM     12  H   UNL     1       0.153 -10.328  -0.276  0.00  0.00    +0.167 HD
BRANCH  10  13
ATOM     13  N   UNL     1      -2.158 -10.828  -0.172  0.00  0.00    -0.255 NA
ATOM     14  H   UNL     1      -1.621 -10.992   0.666  0.00  0.00    +0.140 HD
ATOM     15  H   UNL     1      -3.085 -11.216  -0.089  0.00  0.00    +0.140 HD
ENDBRANCH  10  13
ENDBRANCH   1   4
BRANCH   1  16
ATOM     16  N   UNL     1       0.058  -4.167  -0.021  0.00  0.00    -0.098 NA
BRANCH  16  21
ATOM     17  C   UNL     1      -0.018   1.503   0.010  0.00  0.00    +0.044 C 
ATOM     18  C   UNL     1       0.002  -0.004   0.002  0.00  0.00    -0.050 A 
ATOM     19  C   UNL     1       0.006  -0.687  -1.200  0.00  0.00    +0.005 A 
ATOM     20  C   UNL     1       0.024  -2.068  -1.212  0.00  0.00    +0.027 A 
ATOM     21  C   UNL     1       0.040  -2.771  -0.013  0.00  0.00    +0.077 A 
ATOM     22  C   UNL     1       0.036  -2.081   1.192  0.00  0.00    -0.026 A 
ATOM     23  C   UNL     1       0.023  -0.700   1.196  0.00  0.00    +0.008 A 
ATOM     24  C   UNL     1       0.052  -2.839   2.495  0.00  0.00    +0.046 C 
ENDBRANCH  16  21
ENDBRANCH   1  16
TORSDOF 4
