REMARK  Name = ZINC39531240
REMARK  8 active torsions:
REMARK  status: ('A' for Active; 'I' for Inactive)
REMARK    1  A    between atoms: C_4  and  C_7
REMARK    2  A    between atoms: C_7  and  C_8
REMARK    3  A    between atoms: C_11  and  C_14
REMARK    4  A    between atoms: C_14  and  C_16
REMARK    5  A    between atoms: C_14  and  N_25
REMARK    6  A    between atoms: C_16  and  N_17
REMARK    7  A    between atoms: N_17  and  C_18
REMARK    8  A    between atoms: C_18  and  C_19
REMARK                            x       y       z     vdW  Elec       q    Type
REMARK                         _______ _______ _______ _____ _____    ______ ____
ROOT
ATOM      1  C   UNL     1       5.428  -1.678   5.431  0.00  0.00    +0.070 C 
ENDROOT
BRANCH   1   2
ATOM      2  N   UNL     1       5.674  -3.126   5.460  0.00  0.00    -0.293 NA
ATOM      3  C   UNL     1       5.840  -3.604   6.840  0.00  0.00    +0.100 C 
ATOM      4  C   UNL     1       6.014  -5.125   6.832  0.00  0.00    +0.097 C 
ATOM      5  N   UNL     1       7.181  -5.478   6.012  0.00  0.00    -0.299 NA
ATOM      6  C   UNL     1       7.016  -4.999   4.632  0.00  0.00    +0.161 C 
ATOM      7  C   UNL     1       6.842  -3.479   4.640  0.00  0.00    +0.120 C 
ATOM      8 CL   UNL     1       8.475  -5.433   3.666  0.00  0.00    -0.104 Cl
ATOM      9  H   UNL     1       8.032  -5.119   6.420  0.00  0.00    +0.123 HD
ENDBRANCH   1   2
BRANCH   1  13
ATOM     10  C   UNL     1       4.645  -0.449   1.416  0.00  0.00    -0.043 A 
ATOM     11  C   UNL     1       5.419   0.343   2.242  0.00  0.00    +0.004 A 
ATOM     12  C   UNL     1       5.673  -0.054   3.542  0.00  0.00    +0.005 A 
ATOM     13  C   UNL     1       5.151  -1.244   4.015  0.00  0.00    -0.032 A 
ATOM     14  C   UNL     1       4.377  -2.036   3.188  0.00  0.00    +0.005 A 
ATOM     15  C   UNL     1       4.120  -1.637   1.890  0.00  0.00    +0.004 A 
BRANCH  10  16
ATOM     16  C   UNL     1       4.369  -0.016  -0.001  0.00  0.00    +0.070 C 
BRANCH  16  20
ATOM     17  C   UNL     1       0.812   2.348  -0.101  0.00  0.00    +0.000 A 
ATOM     18  C   UNL     1       2.040   2.954   0.091  0.00  0.00    +0.000 A 
ATOM     19  C   UNL     1       3.191   2.189   0.124  0.00  0.00    +0.004 A 
ATOM     20  C   UNL     1       3.114   0.818  -0.036  0.00  0.00    -0.043 A 
ATOM     21  C   UNL     1       1.887   0.212  -0.227  0.00  0.00    +0.004 A 
ATOM     22  C   UNL     1       0.736   0.978  -0.261  0.00  0.00    +0.000 A 
ENDBRANCH  16  20
ENDBRANCH  10  16
ENDBRANCH   1  13
BRANCH   1  23
ATOM     23  C   UNL     1       4.221  -1.348   6.311  0.00  0.00    -0.058 C 
BRANCH  23  24
ATOM     24  N   UNL     1       4.019   0.107   6.339  0.00  0.00    +0.383 N 
ATOM     25  H   UNL     1       4.873   0.560   6.628  0.00  0.00    -0.085 HD
ATOM     26  H   UNL     1       3.763   0.428   5.417  0.00  0.00    -0.085 HD
BRANCH  24  27
ATOM     27  C   UNL     1       2.945   0.434   7.287  0.00  0.00    -0.047 C 
BRANCH  27  28
ATOM     28  C   UNL     1       2.738   1.926   7.315  0.00  0.00    -0.064 A 
ATOM     29  C   UNL     1       3.453   2.707   8.204  0.00  0.00    +0.002 A 
ATOM     30  C   UNL     1       3.262   4.075   8.230  0.00  0.00    +0.000 A 
ATOM     31  C   UNL     1       2.357   4.664   7.367  0.00  0.00    +0.000 A 
ATOM     32  C   UNL     1       1.642   3.883   6.478  0.00  0.00    +0.000 A 
ATOM     33  C   UNL     1       1.836   2.515   6.449  0.00  0.00    +0.002 A 
ENDBRANCH  27  28
ENDBRANCH  24  27
ENDBRANCH  23  24
ENDBRANCH   1  23
TORSDOF 8
