REMARK  Name = ZINC08559725
REMARK  5 active torsions:
REMARK  status: ('A' for Active; 'I' for Inactive)
REMARK    1  A    between atoms: C_1  and  C_2
REMARK    2  A    between atoms: C_4  and  C_24
REMARK    3  A    between atoms: C_11  and  C_16
REMARK    4  A    between atoms: C_13  and  C_15
REMARK    5  A    between atoms: C_16  and  C_17
REMARK                            x       y       z     vdW  Elec       q    Type
REMARK                         _______ _______ _______ _____ _____    ______ ____
ROOT
ATOM      1  C   UNL     1      -0.018   1.503   0.010  0.00  0.00    +0.066 C 
ATOM      2  C   UNL     1       0.002  -0.004   0.002  0.00  0.00    +0.044 A 
ATOM      3  C   UNL     1       0.006  -0.699  -1.197  0.00  0.00    +0.046 A 
ATOM      4  C   UNL     1       0.025  -2.085  -1.160  0.00  0.00    +0.044 A 
ATOM      5  N   UNL     1       0.040  -2.698   0.012  0.00  0.00    -0.218 NA
ATOM      6  C   UNL     1       0.035  -2.004   1.140  0.00  0.00    +0.245 A 
ATOM      7  N   UNL     1       0.022  -0.680   1.139  0.00  0.00    -0.218 NA
ATOM      8  N   UNL     1       0.051  -2.682   2.354  0.00  0.00    -0.125 N 
ATOM      9  C   UNL     1       0.043  -2.082   3.563  0.00  0.00    +0.251 C 
ATOM     10  O   UNL     1       0.021  -0.892   3.797  0.00  0.00    -0.273 OA
ATOM     11  C   UNL     1       0.066  -3.220   4.566  0.00  0.00    +0.127 C 
ATOM     12  C   UNL     1       0.086  -4.459   3.696  0.00  0.00    +0.047 C 
ATOM     13  N   UNL     1       0.070  -4.067   2.482  0.00  0.00    -0.179 NA
ATOM     14  C   UNL     1       0.114  -5.888   4.175  0.00  0.00    +0.063 C 
ATOM     15  C   UNL     1       0.030  -2.883  -2.438  0.00  0.00    +0.066 C 
ENDROOT
BRANCH  11  16
ATOM     16  C   UNL     1      -1.189  -3.192   5.441  0.00  0.00    +0.054 C 
BRANCH  16  17
ATOM     17  C   UNL     1      -1.172  -1.958   6.305  0.00  0.00    -0.046 A 
ATOM     18  C   UNL     1      -0.578  -1.996   7.552  0.00  0.00    +0.005 A 
ATOM     19  C   UNL     1      -0.562  -0.863   8.345  0.00  0.00    +0.015 A 
ATOM     20  C   UNL     1      -1.141   0.308   7.890  0.00  0.00    +0.018 A 
ATOM     21  C   UNL     1      -1.735   0.345   6.642  0.00  0.00    +0.015 A 
ATOM     22  C   UNL     1      -1.746  -0.786   5.847  0.00  0.00    +0.005 A 
ATOM     23 BR   UNL     1      -1.119   1.857   8.974  0.00  0.00    -0.050 Br
ENDBRANCH  16  17
ENDBRANCH  11  16
TORSDOF 2
