REMARK  Name = ZINC29836258
REMARK  13 active torsions:
REMARK  status: ('A' for Active; 'I' for Inactive)
REMARK    1  A    between atoms: C_1  and  C_2
REMARK    2  A    between atoms: C_2  and  O_3
REMARK    3  A    between atoms: O_3  and  C_4
REMARK    4  A    between atoms: C_4  and  C_6
REMARK    5  A    between atoms: C_7  and  C_22
REMARK    6  A    between atoms: C_12  and  C_14
REMARK    7  A    between atoms: C_17  and  O_20
REMARK    8  A    between atoms: O_20  and  C_21
REMARK    9  A    between atoms: C_22  and  S_23
REMARK   10  A    between atoms: S_23  and  C_24
REMARK   11  A    between atoms: C_27  and  C_30
REMARK   12  A    between atoms: N_28  and  C_29
REMARK   13  A    between atoms: C_35  and  C_36
REMARK                            x       y       z     vdW  Elec       q    Type
REMARK                         _______ _______ _______ _____ _____    ______ ____
ROOT
ATOM      1  C   UNL     1       3.415   3.802   5.390  0.00  0.00    +0.079 C 
ATOM      2  C   UNL     1       2.944   2.575   5.079  0.00  0.00    +0.034 C 
ATOM      3  N   UNL     1       3.698   1.456   5.293  0.00  0.00    -0.272 N 
ATOM      4  C   UNL     1       4.929   1.480   5.819  0.00  0.00    +0.304 C 
ATOM      5  O   UNL     1       5.522   0.430   5.971  0.00  0.00    -0.252 OA
ATOM      6  N   UNL     1       5.531   2.628   6.184  0.00  0.00    -0.288 N 
ATOM      7  C   UNL     1       4.801   3.893   5.994  0.00  0.00    +0.144 C 
ATOM      8  H   UNL     1       3.299   0.466   5.028  0.00  0.00    +0.156 HD
ATOM      9  H   UNL     1       6.543   2.637   6.615  0.00  0.00    +0.151 HD
ENDROOT
BRANCH   7  10
ATOM     10  C   UNL     1       4.685   4.568   7.337  0.00  0.00    -0.022 A 
ATOM     11  C   UNL     1       4.414   3.817   8.466  0.00  0.00    +0.009 A 
ATOM     12  C   UNL     1       4.312   4.432   9.698  0.00  0.00    +0.046 A 
ATOM     13  C   UNL     1       4.470   5.807   9.801  0.00  0.00    +0.120 A 
ATOM     14  C   UNL     1       4.735   6.559   8.666  0.00  0.00    +0.046 A 
ATOM     15  C   UNL     1       4.842   5.938   7.437  0.00  0.00    +0.009 A 
BRANCH  13  16
ATOM     16  O   UNL     1       4.363   6.415  11.011  0.00  0.00    -0.495 OA
ATOM     17  C   UNL     1       4.088   5.578  12.136  0.00  0.00    +0.277 C 
ENDBRANCH  13  16
ENDBRANCH   7  10
BRANCH   1  18
ATOM     18  C   UNL     1       2.638   4.963   5.165  0.00  0.00    +0.339 C 
ATOM     19  O   UNL     1       1.474   4.859   4.823  0.00  0.00    -0.245 OA
BRANCH  18  20
ATOM     20  O   UNL     1       3.186   6.184   5.328  0.00  0.00    -0.462 OA
BRANCH  20  22
ATOM     21  C   UNL     1       3.135   8.601   5.317  0.00  0.00    +0.048 C 
ATOM     22  C   UNL     1       2.344   7.312   5.083  0.00  0.00    +0.229 C 
ENDBRANCH  20  22
ENDBRANCH  18  20
ENDBRANCH   1  18
BRANCH   2  23
ATOM     23  C   UNL     1       1.567   2.439   4.482  0.00  0.00    +0.128 C 
BRANCH  23  24
ATOM     24  S   UNL     1       0.393   1.961   5.774  0.00  0.00    -0.080 S 
BRANCH  24  25
ATOM     25  C   UNL     1      -1.089   1.876   4.824  0.00  0.00    +0.192 A 
ATOM     26  N   UNL     1      -1.204   2.112   3.536  0.00  0.00    -0.122 NA
ATOM     27  N   UNL     1      -2.425   1.959   3.167  0.00  0.00    -0.128 NA
ATOM     28  C   UNL     1      -3.163   1.609   4.195  0.00  0.00    +0.165 A 
ATOM     29  N   UNL     1      -2.331   1.551   5.288  0.00  0.00    -0.305 N 
ATOM     30  C   UNL     1      -2.700   1.207   6.664  0.00  0.00    +0.153 C 
BRANCH  28  31
ATOM     31  C   UNL     1      -4.616   1.333   4.180  0.00  0.00    +0.022 A 
ATOM     32  C   UNL     1      -5.114   0.169   4.768  0.00  0.00    +0.012 A 
ATOM     33  C   UNL     1      -6.470  -0.080   4.755  0.00  0.00    +0.001 A 
ATOM     34  C   UNL     1      -7.336   0.815   4.151  0.00  0.00    +0.000 A 
ATOM     35  C   UNL     1      -6.848   1.968   3.562  0.00  0.00    +0.004 A 
ATOM     36  C   UNL     1      -5.494   2.232   3.573  0.00  0.00    -0.040 A 
ATOM     37  C   UNL     1      -4.964   3.488   2.930  0.00  0.00    +0.044 C 
ENDBRANCH  28  31
ENDBRANCH  24  25
ENDBRANCH  23  24
ENDBRANCH   2  23
TORSDOF 9
