REMARK  Name = ZINC35167360
REMARK  6 active torsions:
REMARK  status: ('A' for Active; 'I' for Inactive)
REMARK    1  A    between atoms: C_1  and  C_2
REMARK    2  A    between atoms: C_5  and  N_9
REMARK    3  A    between atoms: C_10  and  C_12
REMARK    4  A    between atoms: C_12  and  S_13
REMARK    5  A    between atoms: S_13  and  C_14
REMARK    6  A    between atoms: C_17  and  C_19
REMARK                            x       y       z     vdW  Elec       q    Type
REMARK                         _______ _______ _______ _____ _____    ______ ____
ROOT
ATOM      1  C   UNL     1      -0.136  -6.343  -1.191  0.00  0.00    +0.175 C 
ENDROOT
BRANCH   1   3
ATOM      2  N   UNL     1       0.057  -4.171  -0.023  0.00  0.00    -0.284 N 
ATOM      3  C   UNL     1      -0.042  -4.839  -1.190  0.00  0.00    +0.228 C 
ATOM      4  O   UNL     1      -0.055  -4.230  -2.238  0.00  0.00    -0.275 OA
ATOM      5  H   UNL     1       0.149  -4.660   0.809  0.00  0.00    +0.155 HD
BRANCH   2  10
ATOM      6  C   UNL     1      -0.064   1.502   0.016  0.00  0.00    +0.044 C 
ATOM      7  C   UNL     1      -0.031  -0.005   0.006  0.00  0.00    -0.049 A 
ATOM      8  C   UNL     1      -0.622  -0.701  -1.033  0.00  0.00    +0.005 A 
ATOM      9  C   UNL     1      -0.594  -2.082  -1.045  0.00  0.00    +0.025 A 
ATOM     10  C   UNL     1       0.028  -2.772  -0.014  0.00  0.00    +0.052 A 
ATOM     11  C   UNL     1       0.621  -2.070   1.029  0.00  0.00    +0.062 A 
ATOM     12  C   UNL     1       0.595  -0.688   1.032  0.00  0.00    +0.025 A 
ATOM     13 CL   UNL     1       1.401  -2.928   2.321  0.00  0.00    -0.082 Cl
ENDBRANCH   2  10
ENDBRANCH   1   3
BRANCH   1  14
ATOM     14  S   UNL     1      -0.257  -6.940  -2.899  0.00  0.00    -0.056 S 
BRANCH  14  15
ATOM     15  C   UNL     1      -0.358  -8.691  -2.733  0.00  0.00    +0.278 A 
ATOM     16  N   UNL     1      -0.351  -9.367  -1.607  0.00  0.00    -0.101 NA
ATOM     17  N   UNL     1      -0.440 -10.624  -1.861  0.00  0.00    -0.106 NA
ATOM     18  C   UNL     1      -0.508 -10.803  -3.158  0.00  0.00    +0.250 A 
ATOM     19  O   UNL     1      -0.464  -9.583  -3.737  0.00  0.00    -0.411 OA
BRANCH  18  20
ATOM     20  C   UNL     1      -0.619 -12.100  -3.858  0.00  0.00    +0.052 A 
ATOM     21  C   UNL     1      -0.676 -12.141  -5.252  0.00  0.00    +0.014 A 
ATOM     22  C   UNL     1      -0.779 -13.355  -5.899  0.00  0.00    +0.001 A 
ATOM     23  C   UNL     1      -0.827 -14.530  -5.170  0.00  0.00    +0.001 A 
ATOM     24  C   UNL     1      -0.771 -14.497  -3.788  0.00  0.00    +0.016 A 
ATOM     25  C   UNL     1      -0.661 -13.290  -3.128  0.00  0.00    +0.030 A 
ATOM     26 BR   UNL     1      -0.576 -13.246  -1.239  0.00  0.00    -0.050 Br
ENDBRANCH  18  20
ENDBRANCH  14  15
ENDBRANCH   1  14
TORSDOF 5
