REMARK  Name = ZINC21800585
REMARK  10 active torsions:
REMARK  status: ('A' for Active; 'I' for Inactive)
REMARK    1  A    between atoms: C_1  and  C_2
REMARK    2  A    between atoms: C_5  and  C_8
REMARK    3  A    between atoms: C_14  and  C_16
REMARK    4  A    between atoms: C_16  and  C_18
REMARK    5  A    between atoms: C_16  and  O_19
REMARK    6  A    between atoms: O_19  and  C_20
REMARK    7  A    between atoms: C_22  and  C_29
REMARK    8  A    between atoms: C_25  and  C_26
REMARK    9  A    between atoms: C_26  and  C_27
REMARK   10  A    between atoms: C_26  and  C_28
REMARK                            x       y       z     vdW  Elec       q    Type
REMARK                         _______ _______ _______ _____ _____    ______ ____
ROOT
ATOM      1  C   UNL     1       0.496   7.408   1.745  0.00  0.00    +0.260 A 
ATOM      2  N   UNL     1       1.046   6.217   1.899  0.00  0.00    -0.174 NA
ATOM      3  C   UNL     1       0.061   5.332   1.654  0.00  0.00    +0.262 A 
ATOM      4  N   UNL     1      -1.019   6.013   1.377  0.00  0.00    -0.039 NA
ATOM      5  O   UNL     1      -0.791   7.203   1.425  0.00  0.00    -0.331 OA
ATOM      6  N   UNL     1       0.172   3.943   1.694  0.00  0.00    -0.249 N 
ATOM      7  C   UNL     1      -0.902   3.173   1.431  0.00  0.00    +0.260 C 
ATOM      8  O   UNL     1      -1.966   3.689   1.159  0.00  0.00    -0.271 OA
ATOM      9  H   UNL     1       1.137   3.476   1.940  0.00  0.00    +0.158 HD
ENDROOT
BRANCH   1  14
ATOM     10  C   UNL     1       3.108  12.498   2.361  0.00  0.00    +0.044 C 
ATOM     11  C   UNL     1       2.424  11.165   2.199  0.00  0.00    -0.050 A 
ATOM     12  C   UNL     1       1.083  11.116   1.863  0.00  0.00    +0.004 A 
ATOM     13  C   UNL     1       0.451   9.899   1.714  0.00  0.00    +0.013 A 
ATOM     14  C   UNL     1       1.167   8.716   1.903  0.00  0.00    +0.039 A 
ATOM     15  C   UNL     1       2.518   8.773   2.248  0.00  0.00    +0.013 A 
ATOM     16  C   UNL     1       3.140   9.996   2.389  0.00  0.00    +0.004 A 
ENDBRANCH   1  14
BRANCH   7  17
ATOM     17  C   UNL     1      -0.782   1.672   1.474  0.00  0.00    +0.256 C 
ATOM     18  C   UNL     1       0.167   1.204   0.368  0.00  0.00    +0.062 C 
BRANCH  17  19
ATOM     19  O   UNL     1      -2.070   1.085   1.277  0.00  0.00    -0.480 OA
BRANCH  19  20
ATOM     20  C   UNL     1      -2.264  -0.161   1.784  0.00  0.00    +0.125 A 
ATOM     21  C   UNL     1      -1.205  -0.851   2.356  0.00  0.00    +0.049 A 
ATOM     22  C   UNL     1      -1.405  -2.118   2.871  0.00  0.00    -0.047 A 
ATOM     23  C   UNL     1      -2.659  -2.697   2.816  0.00  0.00    +0.004 A 
ATOM     24  C   UNL     1      -3.716  -2.012   2.246  0.00  0.00    +0.008 A 
ATOM     25  C   UNL     1      -3.522  -0.743   1.735  0.00  0.00    -0.003 A 
ATOM     26  C   UNL     1      -0.255  -2.868   3.492  0.00  0.00    +0.044 C 
BRANCH  25  27
ATOM     27  C   UNL     1      -4.676   0.006   1.120  0.00  0.00    +0.016 C 
ATOM     28  C   UNL     1      -5.231  -0.792  -0.061  0.00  0.00    +0.012 C 
ATOM     29  C   UNL     1      -5.775   0.199   2.167  0.00  0.00    +0.012 C 
ENDBRANCH  25  27
ENDBRANCH  19  20
ENDBRANCH  17  19
ENDBRANCH   7  17
TORSDOF 5
