REMARK  Name = ZINC40004218
REMARK  5 active torsions:
REMARK  status: ('A' for Active; 'I' for Inactive)
REMARK    1  A    between atoms: C_1  and  C_2
REMARK    2  A    between atoms: C_4  and  C_13
REMARK    3  A    between atoms: N_17  and  N_21
REMARK    4  A    between atoms: C_22  and  C_24
REMARK    5  A    between atoms: C_29  and  O_30
REMARK                            x       y       z     vdW  Elec       q    Type
REMARK                         _______ _______ _______ _____ _____    ______ ____
ROOT
ATOM      1  C   UNL     1      -2.262   0.329  -0.647  0.00  0.00    +0.027 C 
ATOM      2  C   UNL     1      -1.869   1.450  -1.321  0.00  0.00    +0.079 C 
ATOM      3  C   UNL     1      -2.687   2.511  -1.935  0.00  0.00    +0.275 C 
ATOM      4  O   UNL     1      -3.904   2.484  -1.893  0.00  0.00    -0.267 OA
ATOM      5  N   UNL     1      -2.034   3.494  -2.532  0.00  0.00    -0.169 N 
ATOM      6  C   UNL     1      -0.687   3.519  -2.575  0.00  0.00    +0.138 C 
ATOM      7  S   UNL     1       0.332   4.693  -3.294  0.00  0.00    -0.026 S 
ATOM      8  S   UNL     1      -0.223   2.037  -1.696  0.00  0.00    -0.060 S 
ENDROOT
BRANCH   1  11
ATOM      9  C   UNL     1      -1.749  -2.175  -1.803  0.00  0.00    +0.057 C 
ATOM     10  C   UNL     1      -1.235  -1.964  -0.377  0.00  0.00    +0.201 C 
ATOM     11  C   UNL     1      -1.300  -0.498  -0.036  0.00  0.00    -0.006 C 
ATOM     12  C   UNL     1      -0.423   0.024   0.865  0.00  0.00    +0.018 C 
ATOM     13  C   UNL     1       0.573  -0.882   1.456  0.00  0.00    +0.017 A 
ATOM     14  C   UNL     1       1.280  -0.535   2.607  0.00  0.00    +0.011 A 
ATOM     15  C   UNL     1       2.206  -1.416   3.128  0.00  0.00    +0.001 A 
ATOM     16  C   UNL     1       2.433  -2.637   2.513  0.00  0.00    +0.004 A 
ATOM     17  C   UNL     1       1.737  -2.991   1.371  0.00  0.00    +0.046 A 
ATOM     18  C   UNL     1       0.806  -2.122   0.834  0.00  0.00    +0.128 A 
ATOM     19  O   UNL     1       0.110  -2.435  -0.286  0.00  0.00    -0.484 OA
ENDBRANCH   1  11
BRANCH   5  20
ATOM     20  N   UNL     1      -2.759   4.531  -3.133  0.00  0.00    -0.222 N 
ATOM     21  C   UNL     1      -2.829   5.738  -2.537  0.00  0.00    +0.264 C 
ATOM     22  O   UNL     1      -2.264   5.926  -1.477  0.00  0.00    -0.269 OA
ATOM     23  H   UNL     1      -3.211   4.381  -3.978  0.00  0.00    +0.174 HD
BRANCH  21  24
ATOM     24  C   UNL     1      -3.592   6.830  -3.170  0.00  0.00    +0.079 A 
ATOM     25  C   UNL     1      -4.249   6.617  -4.385  0.00  0.00    +0.017 A 
ATOM     26  C   UNL     1      -4.960   7.641  -4.971  0.00  0.00    +0.001 A 
ATOM     27  C   UNL     1      -5.027   8.883  -4.361  0.00  0.00    +0.004 A 
ATOM     28  C   UNL     1      -4.384   9.108  -3.160  0.00  0.00    +0.046 A 
ATOM     29  C   UNL     1      -3.668   8.086  -2.553  0.00  0.00    +0.129 A 
BRANCH  29  30
ATOM     30  O   UNL     1      -3.040   8.304  -1.371  0.00  0.00    -0.506 OA
ATOM     31  H   UNL     1      -2.132   8.623  -1.461  0.00  0.00    +0.292 HD
ENDBRANCH  29  30
ENDBRANCH  21  24
ENDBRANCH   5  20
TORSDOF 4
