REMARK  Name = ZINC16450122
REMARK  4 active torsions:
REMARK  status: ('A' for Active; 'I' for Inactive)
REMARK    1  A    between atoms: C_5  and  C_7
REMARK    2  A    between atoms: C_7  and  S_8
REMARK    3  A    between atoms: S_8  and  C_9
REMARK    4  A    between atoms: C_15  and  N_19
REMARK                            x       y       z     vdW  Elec       q    Type
REMARK                         _______ _______ _______ _____ _____    ______ ____
ROOT
ATOM      1  C   UNL     1      -3.317  -1.966  -1.395  0.00  0.00    +0.168 A 
ATOM      2  N   UNL     1      -4.149  -2.452  -2.364  0.00  0.00    -0.333 N 
ATOM      3  H   UNL     1      -4.023  -2.366  -3.352  0.00  0.00    +0.168 HD
ATOM      4  C   UNL     1      -5.200  -3.086  -1.722  0.00  0.00    +0.067 A 
ATOM      5  C   UNL     1      -6.332  -3.756  -2.162  0.00  0.00    +0.030 A 
ATOM      6  C   UNL     1      -7.213  -4.291  -1.245  0.00  0.00    +0.035 A 
ATOM      7  C   UNL     1      -6.975  -4.163   0.116  0.00  0.00    +0.128 A 
ATOM      8  C   UNL     1      -5.857  -3.502   0.571  0.00  0.00    +0.062 A 
ATOM      9  C   UNL     1      -4.954  -2.954  -0.345  0.00  0.00    +0.092 A 
ATOM     10  N   UNL     1      -3.789  -2.268  -0.210  0.00  0.00    -0.222 NA
ENDROOT
BRANCH   7  11
ATOM     11  N   UNL     1      -7.931  -4.743   1.086  0.00  0.00    +0.056 N 
ATOM     12  O   UNL     1      -7.726  -4.634   2.282  0.00  0.00    -0.126 OA
ATOM     13  O   UNL     1      -8.922  -5.329   0.689  0.00  0.00    -0.126 OA
ENDBRANCH   7  11
BRANCH   1  14
ATOM     14  S   UNL     1      -1.826  -1.075  -1.694  0.00  0.00    -0.083 S 
BRANCH  14  15
ATOM     15  C   UNL     1      -1.292  -0.775   0.010  0.00  0.00    +0.115 C 
BRANCH  15  20
ATOM     16  C   UNL     1       2.396   0.029  -0.021  0.00  0.00    +0.000 A 
ATOM     17  C   UNL     1       2.379   1.412  -0.013  0.00  0.00    +0.003 A 
ATOM     18  C   UNL     1       1.174   2.088   0.002  0.00  0.00    +0.038 A 
ATOM     19  C   UNL     1      -0.017   1.380   0.010  0.00  0.00    +0.127 A 
ATOM     20  C   UNL     1       0.002  -0.004   0.002  0.00  0.00    -0.002 A 
ATOM     21  C   UNL     1       1.209  -0.678  -0.013  0.00  0.00    +0.007 A 
ATOM     22  F   UNL     1      -1.195   2.040   0.019  0.00  0.00    -0.205 F 
ENDBRANCH  15  20
ENDBRANCH  14  15
ENDBRANCH   1  14
TORSDOF 4
