REMARK  Name = ZINC35711519
REMARK  10 active torsions:
REMARK  status: ('A' for Active; 'I' for Inactive)
REMARK    1  A    between atoms: C_1  and  C_2
REMARK    2  A    between atoms: C_2  and  C_4
REMARK    3  A    between atoms: C_2  and  N_10
REMARK    4  A    between atoms: N_10  and  C_11
REMARK    5  A    between atoms: N_10  and  C_21
REMARK    6  A    between atoms: C_11  and  C_12
REMARK    7  A    between atoms: C_21  and  C_22
REMARK    8  A    between atoms: C_24  and  C_27
REMARK    9  A    between atoms: N_29  and  C_30
REMARK   10  A    between atoms: C_30  and  C_31
REMARK                            x       y       z     vdW  Elec       q    Type
REMARK                         _______ _______ _______ _____ _____    ______ ____
ROOT
ATOM      1  N   UNL     1      -2.271  -0.490  -0.162  0.00  0.00    +0.393 N 
ATOM      2  H   UNL     1      -3.232  -0.186  -0.117  0.00  0.00    -0.080 HD
ENDROOT
BRANCH   1   4
ATOM      3  C   UNL     1      -1.397   1.590   0.791  0.00  0.00    -0.008 C 
ATOM      4  C   UNL     1      -1.525   0.076   0.970  0.00  0.00    -0.040 C 
BRANCH   4   5
ATOM      5  C   UNL     1      -2.260  -0.217   2.252  0.00  0.00    -0.061 A 
ATOM      6  C   UNL     1      -3.634  -0.071   2.311  0.00  0.00    +0.002 A 
ATOM      7  C   UNL     1      -4.308  -0.341   3.487  0.00  0.00    +0.000 A 
ATOM      8  C   UNL     1      -3.609  -0.756   4.605  0.00  0.00    +0.000 A 
ATOM      9  C   UNL     1      -2.235  -0.903   4.546  0.00  0.00    +0.000 A 
ATOM     10  C   UNL     1      -1.562  -0.638   3.369  0.00  0.00    +0.002 A 
ENDBRANCH   4   5
ENDBRANCH   1   4
BRANCH   1  11
ATOM     11  C   UNL     1      -1.671  -0.031  -1.422  0.00  0.00    -0.041 C 
BRANCH  11  12
ATOM     12  C   UNL     1      -2.089   1.392  -1.689  0.00  0.00    -0.060 A 
ATOM     13  C   UNL     1      -3.416   1.757  -1.558  0.00  0.00    +0.005 A 
ATOM     14  C   UNL     1      -3.804   3.062  -1.801  0.00  0.00    +0.050 A 
ATOM     15  C   UNL     1      -2.863   4.007  -2.177  0.00  0.00    +0.166 A 
ATOM     16  C   UNL     1      -1.526   3.639  -2.308  0.00  0.00    +0.166 A 
ATOM     17  C   UNL     1      -1.143   2.331  -2.058  0.00  0.00    +0.051 A 
ATOM     18  O   UNL     1      -0.807   4.737  -2.684  0.00  0.00    -0.453 OA
ATOM     19  C   UNL     1      -1.776   5.681  -3.177  0.00  0.00    +0.466 C 
ATOM     20  O   UNL     1      -2.981   5.335  -2.470  0.00  0.00    -0.453 OA
ENDBRANCH  11  12
ENDBRANCH   1  11
BRANCH   1  21
ATOM     21  C   UNL     1      -2.217  -1.956  -0.100  0.00  0.00    +0.020 C 
BRANCH  21  22
ATOM     22  C   UNL     1      -3.025  -2.439   1.077  0.00  0.00    +0.179 A 
ATOM     23  N   UNL     1      -4.317  -2.581   1.095  0.00  0.00    -0.210 NA
ATOM     24  C   UNL     1      -4.684  -3.036   2.324  0.00  0.00    +0.163 A 
ATOM     25  C   UNL     1      -3.546  -3.165   3.059  0.00  0.00    +0.230 A 
ATOM     26  O   UNL     1      -2.525  -2.796   2.268  0.00  0.00    -0.449 OA
BRANCH  24  27
ATOM     27  C   UNL     1      -6.056  -3.332   2.774  0.00  0.00    +0.266 C 
ATOM     28  O   UNL     1      -6.250  -3.735   3.905  0.00  0.00    -0.268 OA
ATOM     29  N   UNL     1      -7.094  -3.156   1.933  0.00  0.00    -0.308 N 
ATOM     30  H   UNL     1      -6.939  -2.834   1.032  0.00  0.00    +0.149 HD
BRANCH  29  31
ATOM     31  C   UNL     1      -8.457  -3.450   2.381  0.00  0.00    +0.136 C 
BRANCH  31  32
ATOM     32  C   UNL     1      -9.440  -3.167   1.243  0.00  0.00    +0.135 C 
ATOM     33  C   UNL     1     -10.889  -3.359   1.743  0.00  0.00    +0.035 C 
ATOM     34  C   UNL     1     -11.570  -4.037   0.523  0.00  0.00    +0.031 C 
ATOM     35  C   UNL     1     -10.402  -4.893  -0.028  0.00  0.00    +0.160 C 
ATOM     36  O   UNL     1      -9.223  -4.094   0.173  0.00  0.00    -0.375 OA
ENDBRANCH  31  32
ENDBRANCH  29  31
ENDBRANCH  24  27
ENDBRANCH  21  22
ENDBRANCH   1  21
TORSDOF 9
