REMARK  Name = ZINC20715445
REMARK  5 active torsions:
REMARK  status: ('A' for Active; 'I' for Inactive)
REMARK    1  A    between atoms: C_1  and  C_2
REMARK    2  A    between atoms: C_2  and  C_3
REMARK    3  A    between atoms: C_2  and  C_4
REMARK    4  A    between atoms: C_16  and  C_19
REMARK    5  A    between atoms: N_21  and  C_22
REMARK                            x       y       z     vdW  Elec       q    Type
REMARK                         _______ _______ _______ _____ _____    ______ ____
ROOT
ATOM      1  C   UNL     1       3.194  10.614   0.084  0.00  0.00    +0.158 A 
ATOM      2  N   UNL     1       2.953  11.756  -0.513  0.00  0.00    -0.132 NA
ATOM      3  N   UNL     1       2.256  11.562  -1.578  0.00  0.00    -0.128 NA
ATOM      4  C   UNL     1       2.017  10.267  -1.713  0.00  0.00    +0.178 A 
ATOM      5  N   UNL     1       2.615   9.639  -0.648  0.00  0.00    -0.195 N 
ATOM      6  N   UNL     1       2.529   8.251  -0.516  0.00  0.00    -0.148 NA
ATOM      7  C   UNL     1       1.886   7.535  -1.409  0.00  0.00    +0.142 A 
ATOM      8  C   UNL     1       1.262   8.149  -2.512  0.00  0.00    +0.049 A 
ATOM      9  C   UNL     1       1.324   9.498  -2.667  0.00  0.00    +0.053 A 
ATOM     10  N   UNL     1       1.817   6.154  -1.261  0.00  0.00    -0.314 N 
ATOM     11  C   UNL     1       2.528   5.718  -0.053  0.00  0.00    +0.107 C 
ATOM     12  C   UNL     1       2.556   4.189   0.000  0.00  0.00    +0.031 C 
ATOM     13  C   UNL     1       1.120   3.657   0.011  0.00  0.00    +0.078 C 
ATOM     14  C   UNL     1       0.386   4.166  -1.233  0.00  0.00    +0.031 C 
ATOM     15  C   UNL     1       0.422   5.696  -1.250  0.00  0.00    +0.107 C 
ENDROOT
BRANCH  13  16
ATOM     16  C   UNL     1       1.140   2.151   0.003  0.00  0.00    +0.216 C 
ATOM     17  O   UNL     1       2.199   1.558  -0.011  0.00  0.00    -0.276 OA
ATOM     18  N   UNL     1      -0.018   1.461   0.010  0.00  0.00    -0.312 N 
ATOM     19  H   UNL     1      -0.978   1.998   0.022  0.00  0.00    +0.149 HD
BRANCH  18  20
ATOM     20  C   UNL     1       0.002  -0.004   0.002  0.00  0.00    +0.073 C 
ATOM     21  C   UNL     1       0.069  -0.524  -1.449  0.00  0.00    +0.022 C 
ATOM     22  C   UNL     1      -0.823  -1.791  -1.439  0.00  0.00    +0.002 C 
ATOM     23  C   UNL     1      -1.984  -1.386  -0.498  0.00  0.00    +0.002 C 
ATOM     24  C   UNL     1      -1.302  -0.552   0.607  0.00  0.00    +0.022 C 
ENDBRANCH  18  20
ENDBRANCH  13  16
BRANCH   1  26
ATOM     25  C   UNL     1       5.401  10.947   1.163  0.00  0.00    +0.015 C 
ATOM     26  C   UNL     1       3.976  10.424   1.357  0.00  0.00    +0.053 C 
ATOM     27  C   UNL     1       3.300  11.197   2.492  0.00  0.00    +0.015 C 
ENDBRANCH   1  26
TORSDOF 3
