REMARK  Name = ZINC36597744
REMARK  10 active torsions:
REMARK  status: ('A' for Active; 'I' for Inactive)
REMARK    1  A    between atoms: C_1  and  C_2
REMARK    2  A    between atoms: C_5  and  C_7
REMARK    3  A    between atoms: C_7  and  N_8
REMARK    4  A    between atoms: N_8  and  C_9
REMARK    5  A    between atoms: C_9  and  C_11
REMARK    6  A    between atoms: C_9  and  C_17
REMARK    7  A    between atoms: N_19  and  C_20
REMARK    8  A    between atoms: C_26  and  C_28
REMARK    9  A    between atoms: C_32  and  O_35
REMARK   10  A    between atoms: C_33  and  O_34
REMARK                            x       y       z     vdW  Elec       q    Type
REMARK                         _______ _______ _______ _____ _____    ______ ____
ROOT
ATOM      1  N   UNL     1       1.803  -3.167  -2.116  0.00  0.00    -0.275 N 
ATOM      2  C   UNL     1       1.565  -4.035  -1.113  0.00  0.00    +0.252 C 
ATOM      3  O   UNL     1       0.512  -4.641  -1.070  0.00  0.00    -0.270 OA
ENDROOT
BRANCH   2   4
ATOM      4  C   UNL     1       2.583  -4.250  -0.066  0.00  0.00    +0.082 A 
ATOM      5  C   UNL     1       3.831  -3.628  -0.162  0.00  0.00    +0.017 A 
ATOM      6  C   UNL     1       4.779  -3.831   0.817  0.00  0.00    +0.005 A 
ATOM      7  C   UNL     1       4.502  -4.650   1.900  0.00  0.00    +0.049 A 
ATOM      8  C   UNL     1       3.271  -5.273   2.009  0.00  0.00    +0.159 A 
ATOM      9  C   UNL     1       2.301  -5.073   1.030  0.00  0.00    +0.171 A 
BRANCH   9  10
ATOM     10  O   UNL     1       1.091  -5.678   1.136  0.00  0.00    -0.503 OA
ATOM     11  H   UNL     1       1.049  -6.551   0.722  0.00  0.00    +0.292 HD
ENDBRANCH   9  10
BRANCH   8  12
ATOM     12  O   UNL     1       3.007  -6.076   3.074  0.00  0.00    -0.503 OA
ATOM     13  H   UNL     1       2.618  -5.613   3.829  0.00  0.00    +0.292 HD
ENDBRANCH   8  12
ENDBRANCH   2   4
BRANCH   1  14
ATOM     14  C   UNL     1       0.901  -3.115  -3.269  0.00  0.00    +0.183 C 
BRANCH  14  19
ATOM     15  C   UNL     1       3.656  -3.107  -7.494  0.00  0.00    +0.086 C 
ATOM     16  C   UNL     1       2.825  -3.594  -6.335  0.00  0.00    +0.102 A 
ATOM     17  C   UNL     1       2.473  -4.871  -6.101  0.00  0.00    +0.045 A 
ATOM     18  C   UNL     1       1.701  -4.873  -4.917  0.00  0.00    +0.046 A 
ATOM     19  C   UNL     1       1.627  -3.598  -4.498  0.00  0.00    +0.122 A 
ATOM     20  O   UNL     1       2.314  -2.828  -5.357  0.00  0.00    -0.463 OA
ENDBRANCH  14  19
ENDBRANCH   1  14
BRANCH   1  21
ATOM     21  C   UNL     1       2.964  -2.276  -2.054  0.00  0.00    +0.193 C 
BRANCH  21  22
ATOM     22  C   UNL     1       4.173  -2.986  -2.606  0.00  0.00    -0.018 A 
ATOM     23  C   UNL     1       4.013  -4.095  -3.416  0.00  0.00    +0.006 A 
ATOM     24  C   UNL     1       5.122  -4.746  -3.923  0.00  0.00    +0.000 A 
ATOM     25  C   UNL     1       6.391  -4.289  -3.620  0.00  0.00    +0.000 A 
ATOM     26  C   UNL     1       6.551  -3.180  -2.810  0.00  0.00    +0.000 A 
ATOM     27  C   UNL     1       5.442  -2.526  -2.307  0.00  0.00    +0.006 A 
ENDBRANCH  21  22
BRANCH  21  28
ATOM     28  C   UNL     1       2.692  -1.038  -2.870  0.00  0.00    +0.238 C 
ATOM     29  O   UNL     1       1.578  -0.829  -3.301  0.00  0.00    -0.273 OA
ATOM     30  N   UNL     1       3.687  -0.164  -3.120  0.00  0.00    -0.311 N 
ATOM     31  H   UNL     1       4.578  -0.332  -2.775  0.00  0.00    +0.149 HD
BRANCH  30  32
ATOM     32  C   UNL     1       3.423   1.039  -3.913  0.00  0.00    +0.073 C 
ATOM     33  C   UNL     1       3.540   0.704  -5.402  0.00  0.00    +0.022 C 
ATOM     34  C   UNL     1       3.264   1.960  -6.230  0.00  0.00    +0.002 C 
ATOM     35  C   UNL     1       4.282   3.043  -5.870  0.00  0.00    +0.000 C 
ATOM     36  C   UNL     1       4.165   3.378  -4.381  0.00  0.00    +0.002 C 
ATOM     37  C   UNL     1       4.441   2.122  -3.553  0.00  0.00    +0.022 C 
ENDBRANCH  30  32
ENDBRANCH  21  28
ENDBRANCH   1  21
TORSDOF 9
