REMARK  Name = ZINC20933339
REMARK  6 active torsions:
REMARK  status: ('A' for Active; 'I' for Inactive)
REMARK    1  A    between atoms: C_1  and  C_2
REMARK    2  A    between atoms: C_2  and  C_10
REMARK    3  A    between atoms: C_3  and  C_4
REMARK    4  A    between atoms: N_11  and  N_12
REMARK    5  A    between atoms: C_13  and  C_15
REMARK    6  A    between atoms: C_17  and  N_23
REMARK                            x       y       z     vdW  Elec       q    Type
REMARK                         _______ _______ _______ _____ _____    ______ ____
ROOT
ATOM      1  N   UNL     1       6.008   6.153  -0.937  0.00  0.00    -0.202 N 
ATOM      2  C   UNL     1       5.981   7.476  -1.196  0.00  0.00    +0.283 C 
ATOM      3  O   UNL     1       4.923   8.076  -1.184  0.00  0.00    -0.267 OA
ATOM      4  H   UNL     1       6.964   5.610  -0.948  0.00  0.00    +0.178 HD
ENDROOT
BRANCH   2   5
ATOM      5  C   UNL     1       7.237   8.197  -1.496  0.00  0.00    +0.149 A 
ATOM      6  C   UNL     1       7.201   9.562  -1.768  0.00  0.00    +0.094 A 
ATOM      7  C   UNL     1       8.395  10.228  -2.043  0.00  0.00    +0.067 A 
ATOM      8  C   UNL     1       9.579   9.492  -2.044  0.00  0.00    +0.100 A 
ATOM      9  C   UNL     1       9.533   8.134  -1.769  0.00  0.00    +0.150 A 
ATOM     10  N   UNL     1       8.390   7.534  -1.507  0.00  0.00    -0.228 NA
ATOM     11 CL   UNL     1      11.003   7.211  -1.768  0.00  0.00    -0.060 Cl
ATOM     12 CL   UNL     1      11.094  10.266  -2.387  0.00  0.00    -0.078 Cl
ATOM     13 CL   UNL     1       5.693  10.422  -1.759  0.00  0.00    -0.079 Cl
BRANCH   7  14
ATOM     14  N   UNL     1       8.404  11.595  -2.316  0.00  0.00    -0.356 N 
ATOM     15  H   UNL     1       9.354  12.106  -2.531  0.00  0.00    +0.142 HD
ATOM     16  H   UNL     1       7.462  12.161  -2.316  0.00  0.00    +0.142 HD
ENDBRANCH   7  14
ENDBRANCH   2   5
BRANCH   1  18
ATOM     17  C   UNL     1       4.844   4.192  -0.403  0.00  0.00    +0.133 C 
ATOM     18  N   UNL     1       4.818   5.470  -0.653  0.00  0.00    -0.188 NA
BRANCH  17  20
ATOM     19  C   UNL     1       2.330   4.245  -0.100  0.00  0.00    +0.045 C 
ATOM     20  C   UNL     1       3.640   3.501  -0.116  0.00  0.00    -0.030 C 
ATOM     21  C   UNL     1       3.667   2.178   0.144  0.00  0.00    +0.012 C 
BRANCH  21  22
ATOM     22  C   UNL     1       2.446   1.490   0.593  0.00  0.00    -0.025 A 
ATOM     23  C   UNL     1       1.550   2.138   1.449  0.00  0.00    +0.008 A 
ATOM     24  C   UNL     1       0.408   1.487   1.866  0.00  0.00    +0.001 A 
ATOM     25  C   UNL     1       0.147   0.197   1.439  0.00  0.00    +0.000 A 
ATOM     26  C   UNL     1       1.030  -0.451   0.592  0.00  0.00    +0.001 A 
ATOM     27  C   UNL     1       2.176   0.186   0.167  0.00  0.00    +0.008 A 
ENDBRANCH  21  22
ENDBRANCH  17  20
ENDBRANCH   1  18
TORSDOF 5
