REMARK  Name = ZINC40562268
REMARK  12 active torsions:
REMARK  status: ('A' for Active; 'I' for Inactive)
REMARK    1  A    between atoms: C_1  and  C_2
REMARK    2  A    between atoms: C_2  and  N_3
REMARK    3  A    between atoms: C_4  and  N_30
REMARK    4  A    between atoms: C_5  and  C_13
REMARK    5  A    between atoms: C_6  and  C_12
REMARK    6  A    between atoms: C_7  and  C_10
REMARK    7  A    between atoms: N_17  and  C_21
REMARK    8  A    between atoms: C_21  and  C_22
REMARK    9  A    between atoms: C_22  and  C_23
REMARK   10  A    between atoms: C_23  and  C_24
REMARK   11  A    between atoms: N_30  and  C_31
REMARK   12  A    between atoms: C_31  and  C_32
REMARK                            x       y       z     vdW  Elec       q    Type
REMARK                         _______ _______ _______ _____ _____    ______ ____
ROOT
ATOM      1  N   UNL     1       0.523  -0.683  -1.265  0.00  0.00    -0.296 N 
ATOM      2  C   UNL     1      -0.274  -0.883  -2.346  0.00  0.00    +0.109 A 
ATOM      3  C   UNL     1       0.285  -1.196  -3.596  0.00  0.00    +0.019 A 
ATOM      4  C   UNL     1       1.681  -1.301  -3.722  0.00  0.00    -0.017 A 
ATOM      5  C   UNL     1       2.476  -1.090  -2.599  0.00  0.00    +0.120 A 
ATOM      6  C   UNL     1       1.862  -0.771  -1.361  0.00  0.00    +0.270 A 
ATOM      7  O   UNL     1       2.553  -0.581  -0.375  0.00  0.00    -0.266 OA
ATOM      8  C   UNL     1       2.307  -1.636  -5.052  0.00  0.00    +0.046 C 
ENDROOT
BRANCH   3   9
ATOM      9  C   UNL     1      -0.579  -1.412  -4.758  0.00  0.00    +0.032 C 
ATOM     10  C   UNL     1      -1.453  -0.443  -5.145  0.00  0.00    +0.077 C 
ATOM     11  C   UNL     1      -2.452  -0.476  -6.165  0.00  0.00    +0.258 C 
ATOM     12  O   UNL     1      -2.625  -1.474  -6.842  0.00  0.00    -0.269 OA
ATOM     13  N   UNL     1      -3.185   0.608  -6.351  0.00  0.00    -0.255 N 
ATOM     14  C   UNL     1      -2.993   1.714  -5.599  0.00  0.00    +0.121 C 
ATOM     15  S   UNL     1      -3.817   3.214  -5.668  0.00  0.00    -0.027 S 
ATOM     16  S   UNL     1      -1.667   1.214  -4.511  0.00  0.00    -0.061 S 
BRANCH  13  17
ATOM     17  C   UNL     1      -4.220   0.610  -7.388  0.00  0.00    +0.115 C 
BRANCH  17  18
ATOM     18  C   UNL     1      -5.542   0.126  -6.790  0.00  0.00    +0.024 C 
BRANCH  18  19
ATOM     19  C   UNL     1      -6.623   0.129  -7.873  0.00  0.00    +0.036 C 
BRANCH  19  20
ATOM     20  C   UNL     1      -7.925  -0.348  -7.284  0.00  0.00    -0.047 A 
ATOM     21  C   UNL     1      -8.236  -1.695  -7.295  0.00  0.00    +0.003 A 
ATOM     22  C   UNL     1      -9.431  -2.133  -6.755  0.00  0.00    +0.000 A 
ATOM     23  C   UNL     1     -10.315  -1.224  -6.203  0.00  0.00    +0.000 A 
ATOM     24  C   UNL     1     -10.003   0.123  -6.192  0.00  0.00    +0.000 A 
ATOM     25  C   UNL     1      -8.806   0.560  -6.728  0.00  0.00    +0.003 A 
ENDBRANCH  19  20
ENDBRANCH  18  19
ENDBRANCH  17  18
ENDBRANCH  13  17
ENDBRANCH   3   9
BRANCH   1  27
ATOM     26  C   UNL     1      -0.331   1.150   0.111  0.00  0.00    +0.027 C 
ATOM     27  C   UNL     1      -0.085  -0.358   0.028  0.00  0.00    +0.123 C 
ENDBRANCH   1  27
BRANCH   5  28
ATOM     28  C   UNL     1       3.901  -1.190  -2.694  0.00  0.00    +0.105 C 
ATOM     29  N   UNL     1       5.032  -1.268  -2.770  0.00  0.00    -0.191 NA
ENDBRANCH   5  28
BRANCH   2  30
ATOM     30  N   UNL     1      -1.628  -0.780  -2.217  0.00  0.00    -0.323 N 
ATOM     31  H   UNL     1      -2.058   0.086  -2.290  0.00  0.00    +0.148 HD
BRANCH  30  32
ATOM     32  C   UNL     1      -2.433  -1.978  -1.968  0.00  0.00    +0.177 C 
BRANCH  32  33
ATOM     33  C   UNL     1      -3.895  -1.613  -1.981  0.00  0.00    +0.122 A 
ATOM     34  C   UNL     1      -4.699  -1.624  -3.060  0.00  0.00    +0.046 A 
ATOM     35  C   UNL     1      -5.979  -1.215  -2.621  0.00  0.00    +0.041 A 
ATOM     36  C   UNL     1      -5.881  -0.978  -1.301  0.00  0.00    +0.195 A 
ATOM     37  O   UNL     1      -4.618  -1.227  -0.918  0.00  0.00    -0.466 OA
ENDBRANCH  32  33
ENDBRANCH  30  32
ENDBRANCH   2  30
TORSDOF 10
