REMARK  Name = ZINC06193700
REMARK  11 active torsions:
REMARK  status: ('A' for Active; 'I' for Inactive)
REMARK    1  A    between atoms: C_1  and  C_2
REMARK    2  A    between atoms: C_2  and  N_66
REMARK    3  A    between atoms: C_3  and  C_4
REMARK    4  A    between atoms: C_3  and  N_66
REMARK    5  A    between atoms: C_10  and  C_12
REMARK    6  A    between atoms: C_10  and  C_26
REMARK    7  A    between atoms: C_10  and  N_66
REMARK    8  A    between atoms: C_15  and  C_25
REMARK    9  A    between atoms: C_18  and  C_24
REMARK   10  A    between atoms: N_30  and  C_31
REMARK   11  A    between atoms: C_31  and  C_32
REMARK                            x       y       z     vdW  Elec       q    Type
REMARK                         _______ _______ _______ _____ _____    ______ ____
ROOT
ATOM      1  C   UNL     1       1.416  -2.381  -1.394  0.00  0.00    +0.039 C 
ENDROOT
BRANCH   1   2
ATOM      2  C   UNL     1       0.195  -2.281  -2.271  0.00  0.00    +0.011 A 
ATOM      3  C   UNL     1      -0.146  -1.090  -2.822  0.00  0.00    +0.018 A 
ATOM      4  C   UNL     1      -1.336  -1.028  -3.673  0.00  0.00    +0.002 A 
ATOM      5  C   UNL     1      -1.736   0.172  -4.271  0.00  0.00    -0.041 A 
ATOM      6  C   UNL     1      -2.853   0.198  -5.056  0.00  0.00    +0.004 A 
ATOM      7  C   UNL     1      -3.596  -0.956  -5.265  0.00  0.00    +0.005 A 
ATOM      8  C   UNL     1      -3.222  -2.149  -4.685  0.00  0.00    -0.026 A 
ATOM      9  C   UNL     1      -2.087  -2.199  -3.881  0.00  0.00    +0.052 A 
ATOM     10  N   UNL     1      -1.690  -3.379  -3.289  0.00  0.00    -0.322 N 
ATOM     11  H   UNL     1      -2.225  -4.210  -3.438  0.00  0.00    +0.169 HD
ATOM     12  C   UNL     1      -0.593  -3.427  -2.512  0.00  0.00    +0.251 A 
ATOM     13  O   UNL     1      -0.271  -4.487  -2.004  0.00  0.00    -0.268 OA
ATOM     14  C   UNL     1      -4.039  -3.393  -4.919  0.00  0.00    +0.046 C 
ATOM     15  C   UNL     1      -0.937   1.431  -4.051  0.00  0.00    +0.044 C 
ENDBRANCH   1   2
BRANCH   1  16
ATOM     16  C   UNL     1       1.944  -0.998  -1.110  0.00  0.00    +0.143 A 
ATOM     17  N   UNL     1       2.353  -0.120  -1.993  0.00  0.00    -0.115 NA
ATOM     18  N   UNL     1       2.733   0.935  -1.358  0.00  0.00    -0.023 NA
ATOM     19  N   UNL     1       2.573   0.754  -0.094  0.00  0.00    -0.044 NA
ATOM     20  N   UNL     1       2.086  -0.425   0.100  0.00  0.00    -0.226 N 
BRANCH  20  21
ATOM     21  C   UNL     1       1.754  -1.028   1.393  0.00  0.00    +0.182 C 
BRANCH  21  22
ATOM     22  C   UNL     1       0.317  -0.730   1.732  0.00  0.00    -0.026 A 
ATOM     23  C   UNL     1      -0.687  -1.570   1.287  0.00  0.00    +0.005 A 
ATOM     24  C   UNL     1      -2.006  -1.293   1.594  0.00  0.00    +0.000 A 
ATOM     25  C   UNL     1      -2.321  -0.183   2.355  0.00  0.00    +0.000 A 
ATOM     26  C   UNL     1      -1.317   0.656   2.802  0.00  0.00    +0.000 A 
ATOM     27  C   UNL     1       0.002   0.382   2.490  0.00  0.00    +0.005 A 
ENDBRANCH  21  22
ENDBRANCH  20  21
ENDBRANCH   1  16
BRANCH   1  28
ATOM     28  N   UNL     1       2.471  -3.172  -2.062  0.00  0.00    +0.392 N 
ATOM     29  H   UNL     1       3.248  -3.314  -1.405  0.00  0.00    -0.080 HD
BRANCH  28  31
ATOM     30  C   UNL     1       1.874  -2.334  -4.310  0.00  0.00    -0.017 C 
ATOM     31  C   UNL     1       2.971  -2.448  -3.249  0.00  0.00    -0.080 C 
ENDBRANCH  28  31
BRANCH  28  32
ATOM     32  C   UNL     1       1.935  -4.490  -2.463  0.00  0.00    -0.042 C 
BRANCH  32  33
ATOM     33  C   UNL     1       3.060  -5.324  -3.020  0.00  0.00    -0.064 A 
ATOM     34  C   UNL     1       3.327  -5.307  -4.377  0.00  0.00    +0.002 A 
ATOM     35  C   UNL     1       4.362  -6.067  -4.887  0.00  0.00    +0.000 A 
ATOM     36  C   UNL     1       5.123  -6.854  -4.043  0.00  0.00    +0.000 A 
ATOM     37  C   UNL     1       4.853  -6.876  -2.688  0.00  0.00    +0.000 A 
ATOM     38  C   UNL     1       3.822  -6.111  -2.176  0.00  0.00    +0.002 A 
ENDBRANCH  32  33
ENDBRANCH  28  32
ENDBRANCH   1  28
TORSDOF 8
