REMARK  Name = ZINC57773898
REMARK  14 active torsions:
REMARK  status: ('A' for Active; 'I' for Inactive)
REMARK    1  A    between atoms: C_1  and  C_2
REMARK    2  A    between atoms: C_2  and  O_3
REMARK    3  A    between atoms: O_3  and  C_4
REMARK    4  A    between atoms: C_5  and  C_13
REMARK    5  A    between atoms: C_8  and  O_10
REMARK    6  A    between atoms: O_10  and  C_11
REMARK    7  A    between atoms: C_11  and  C_12
REMARK    8  A    between atoms: C_13  and  O_34
REMARK    9  A    between atoms: N_21  and  C_23
REMARK   10  A    between atoms: C_23  and  C_24
REMARK   11  A    between atoms: C_27  and  O_30
REMARK   12  A    between atoms: O_30  and  C_31
REMARK   13  A    between atoms: C_31  and  C_32
REMARK   14  A    between atoms: C_32  and  O_33
REMARK                            x       y       z     vdW  Elec       q    Type
REMARK                         _______ _______ _______ _____ _____    ______ ____
ROOT
ATOM      1  C   UNL     1       2.057  -1.467   3.465  0.00  0.00    +0.099 C 
ATOM      2  C   UNL     1       1.019  -0.400   3.931  0.00  0.00    +0.040 C 
ATOM      3  C   UNL     1       1.554   0.972   3.403  0.00  0.00    +0.005 C 
ATOM      4  C   UNL     1       2.393   0.538   2.225  0.00  0.00    -0.023 C 
ATOM      5  C   UNL     1       3.184  -0.657   2.888  0.00  0.00    +0.010 C 
ATOM      6  C   UNL     1       4.038  -1.052   1.708  0.00  0.00    -0.072 C 
ATOM      7  N   UNL     1       4.526   0.276   1.210  0.00  0.00    +0.383 N 
ATOM      8  C   UNL     1       3.545   1.309   1.643  0.00  0.00    -0.075 C 
ATOM      9  H   UNL     1       5.430   0.480   1.610  0.00  0.00    -0.081 HD
ENDROOT
BRANCH   1  11
ATOM     10  C   UNL     1       2.107  -3.528   2.011  0.00  0.00    +0.227 A 
ATOM     11  C   UNL     1       1.456  -2.361   2.411  0.00  0.00    +0.064 A 
ATOM     12  C   UNL     1       0.249  -2.044   1.819  0.00  0.00    +0.128 A 
ATOM     13  N   UNL     1      -0.251  -2.852   0.896  0.00  0.00    -0.203 NA
ATOM     14  C   UNL     1       0.389  -3.953   0.537  0.00  0.00    +0.321 A 
ATOM     15  N   UNL     1       1.550  -4.288   1.076  0.00  0.00    -0.159 NA
BRANCH  10  16
ATOM     16  O   UNL     1       3.293  -3.878   2.565  0.00  0.00    -0.476 OA
BRANCH  16  18
ATOM     17  C   UNL     1       5.219  -5.314   2.832  0.00  0.00    +0.048 C 
ATOM     18  C   UNL     1       3.897  -5.085   2.096  0.00  0.00    +0.227 C 
ENDBRANCH  16  18
ENDBRANCH  10  16
BRANCH  14  19
ATOM     19  O   UNL     1      -0.155  -4.754  -0.410  0.00  0.00    -0.463 OA
BRANCH  19  20
ATOM     20  C   UNL     1      -1.407  -4.344  -0.966  0.00  0.00    +0.229 C 
ATOM     21  C   UNL     1      -1.860  -5.366  -2.010  0.00  0.00    +0.048 C 
ENDBRANCH  19  20
ENDBRANCH  14  19
ENDBRANCH   1  11
BRANCH   1  22
ATOM     22  O   UNL     1       2.514  -2.242   4.575  0.00  0.00    -0.384 OA
ATOM     23  H   UNL     1       1.821  -2.762   5.004  0.00  0.00    +0.211 HD
ENDBRANCH   1  22
BRANCH   7  24
ATOM     24  C   UNL     1       4.624   0.252  -0.256  0.00  0.00    -0.043 C 
BRANCH  24  25
ATOM     25  C   UNL     1       5.231   1.544  -0.740  0.00  0.00    -0.064 A 
ATOM     26  C   UNL     1       4.415   2.620  -1.038  0.00  0.00    +0.005 A 
ATOM     27  C   UNL     1       4.968   3.805  -1.482  0.00  0.00    +0.046 A 
ATOM     28  C   UNL     1       6.343   3.916  -1.629  0.00  0.00    +0.121 A 
ATOM     29  C   UNL     1       7.160   2.834  -1.330  0.00  0.00    +0.046 A 
ATOM     30  C   UNL     1       6.602   1.653  -0.881  0.00  0.00    +0.005 A 
BRANCH  28  31
ATOM     31  O   UNL     1       6.890   5.080  -2.067  0.00  0.00    -0.490 OA
BRANCH  31  32
ATOM     32  C   UNL     1       8.313   5.122  -2.195  0.00  0.00    +0.256 C 
BRANCH  32  33
ATOM     33  C   UNL     1       8.740   6.503  -2.696  0.00  0.00    +0.196 C 
BRANCH  33  34
ATOM     34  O   UNL     1       8.420   7.487  -1.710  0.00  0.00    -0.392 OA
ATOM     35  H   UNL     1       8.664   8.388  -1.961  0.00  0.00    +0.210 HD
ENDBRANCH  33  34
ENDBRANCH  32  33
ENDBRANCH  31  32
ENDBRANCH  28  31
ENDBRANCH  24  25
ENDBRANCH   7  24
TORSDOF 12
