REMARK  Name = ZINC56704448
REMARK  4 active torsions:
REMARK  status: ('A' for Active; 'I' for Inactive)
REMARK    1  A    between atoms: C_1  and  C_2
REMARK    2  A    between atoms: C_8  and  C_10
REMARK    3  A    between atoms: C_15  and  N_16
REMARK    4  A    between atoms: C_23  and  C_25
REMARK                            x       y       z     vdW  Elec       q    Type
REMARK                         _______ _______ _______ _____ _____    ______ ____
ROOT
ATOM      1  C   UNL     1      -0.126  -3.921   3.009  0.00  0.00    +0.058 A 
ATOM      2  C   UNL     1       1.150  -3.363   3.119  0.00  0.00    +0.015 A 
ATOM      3  C   UNL     1       2.009  -3.801   4.103  0.00  0.00    +0.001 A 
ATOM      4  C   UNL     1       1.615  -4.794   4.985  0.00  0.00    +0.002 A 
ATOM      5  C   UNL     1       0.357  -5.354   4.889  0.00  0.00    +0.024 A 
ATOM      6  C   UNL     1      -0.525  -4.921   3.908  0.00  0.00    +0.047 A 
ENDROOT
BRANCH   1  14
ATOM      7  C   UNL     1      -3.957   1.084   2.775  0.00  0.00    +0.007 C 
ATOM      8  C   UNL     1      -2.793   0.255   2.227  0.00  0.00    -0.011 C 
ATOM      9  C   UNL     1      -3.337  -0.844   1.311  0.00  0.00    +0.022 C 
ATOM     10  C   UNL     1      -2.167  -1.650   0.738  0.00  0.00    +0.108 C 
ATOM     11  N   UNL     1      -1.343  -2.144   1.850  0.00  0.00    -0.297 N 
ATOM     12  C   UNL     1      -0.844  -1.181   2.841  0.00  0.00    +0.108 C 
ATOM     13  C   UNL     1      -2.028  -0.381   3.391  0.00  0.00    +0.022 C 
ATOM     14  C   UNL     1      -1.052  -3.456   1.959  0.00  0.00    +0.248 C 
ATOM     15  O   UNL     1      -1.551  -4.255   1.191  0.00  0.00    -0.270 OA
ENDBRANCH   1  14
BRANCH   6  16
ATOM     16  N   UNL     1      -1.796  -5.482   3.812  0.00  0.00    -0.269 N 
ATOM     17  C   UNL     1      -2.022  -6.724   4.285  0.00  0.00    +0.307 C 
ATOM     18  O   UNL     1      -1.096  -7.395   4.697  0.00  0.00    -0.252 OA
ATOM     19  N   UNL     1      -3.275  -7.221   4.300  0.00  0.00    -0.278 N 
ATOM     20  C   UNL     1      -4.483  -6.521   3.827  0.00  0.00    +0.110 C 
ATOM     21  C   UNL     1      -5.482  -7.651   3.472  0.00  0.00    +0.021 C 
ATOM     22  C   UNL     1      -5.186  -8.690   4.585  0.00  0.00    +0.029 C 
ATOM     23  C   UNL     1      -3.662  -8.554   4.785  0.00  0.00    +0.114 C 
ATOM     24  H   UNL     1      -2.519  -4.978   3.406  0.00  0.00    +0.156 HD
BRANCH  23  25
ATOM     25  C   UNL     1      -3.326  -8.684   6.249  0.00  0.00    +0.010 A 
ATOM     26  C   UNL     1      -2.833  -9.753   6.920  0.00  0.00    +0.013 A 
ATOM     27  C   UNL     1      -2.598  -9.643   8.278  0.00  0.00    +0.008 A 
ATOM     28  C   UNL     1      -2.868  -8.468   8.898  0.00  0.00    +0.045 A 
ATOM     29  S   UNL     1      -3.467  -7.466   7.547  0.00  0.00    -0.100 S 
ENDBRANCH  23  25
ENDBRANCH   6  16
TORSDOF 3
