REMARK  Name = ZINC27575958
REMARK  8 active torsions:
REMARK  status: ('A' for Active; 'I' for Inactive)
REMARK    1  A    between atoms: C_3  and  C_6
REMARK    2  A    between atoms: C_6  and  N_7
REMARK    3  A    between atoms: N_7  and  C_8
REMARK    4  A    between atoms: N_7  and  C_21
REMARK    5  A    between atoms: C_8  and  C_9
REMARK    6  A    between atoms: C_12  and  C_15
REMARK    7  A    between atoms: N_17  and  C_18
REMARK    8  A    between atoms: C_21  and  C_22
REMARK                            x       y       z     vdW  Elec       q    Type
REMARK                         _______ _______ _______ _____ _____    ______ ____
ROOT
ATOM      1  N   UNL     1      -1.006   1.427  -0.929  0.00  0.00    +0.392 N 
ATOM      2  H   UNL     1      -1.372   2.434  -0.682  0.00  0.00    -0.080 HD
ENDROOT
BRANCH   1   3
ATOM      3  C   UNL     1      -2.148   0.505  -0.874  0.00  0.00    -0.002 C 
BRANCH   3   6
ATOM      4  C   UNL     1      -4.507   1.740   1.673  0.00  0.00    +0.041 A 
ATOM      5  C   UNL     1      -3.969   1.769   0.366  0.00  0.00    +0.042 A 
ATOM      6  C   UNL     1      -3.002   0.834   0.323  0.00  0.00    +0.089 A 
ATOM      7  O   UNL     1      -2.931   0.241   1.526  0.00  0.00    -0.470 OA
ATOM      8  C   UNL     1      -3.838   0.790   2.350  0.00  0.00    +0.195 A 
ENDBRANCH   3   6
ENDBRANCH   1   3
BRANCH   1   9
ATOM      9  C   UNL     1       0.015   1.062   0.063  0.00  0.00    -0.042 C 
BRANCH   9  10
ATOM     10  C   UNL     1       0.905   2.248   0.328  0.00  0.00    -0.064 A 
ATOM     11  C   UNL     1       2.108   2.371  -0.344  0.00  0.00    +0.002 A 
ATOM     12  C   UNL     1       2.925   3.458  -0.110  0.00  0.00    +0.013 A 
ATOM     13  C   UNL     1       2.540   4.429   0.816  0.00  0.00    +0.037 A 
ATOM     14  C   UNL     1       1.328   4.296   1.495  0.00  0.00    +0.013 A 
ATOM     15  C   UNL     1       0.518   3.207   1.248  0.00  0.00    +0.002 A 
BRANCH  13  16
ATOM     16  C   UNL     1       3.413   5.594   1.076  0.00  0.00    +0.244 C 
ATOM     17  O   UNL     1       3.076   6.438   1.883  0.00  0.00    -0.270 OA
ATOM     18  N   UNL     1       4.583   5.719   0.419  0.00  0.00    -0.308 N 
ATOM     19  H   UNL     1       4.889   4.955  -0.311  0.00  0.00    +0.149 HD
BRANCH  18  20
ATOM     20  C   UNL     1       5.448   6.873   0.677  0.00  0.00    +0.073 C 
ATOM     21  C   UNL     1       6.082   7.564  -0.532  0.00  0.00    +0.024 C 
ATOM     22  C   UNL     1       6.944   6.710   0.400  0.00  0.00    +0.024 C 
ENDBRANCH  18  20
ENDBRANCH  13  16
ENDBRANCH   9  10
ENDBRANCH   1   9
BRANCH   1  23
ATOM     23  C   UNL     1      -0.432   1.475  -2.281  0.00  0.00    -0.002 C 
BRANCH  23  24
ATOM     24  C   UNL     1      -1.432   2.085  -3.229  0.00  0.00    +0.094 A 
ATOM     25  N   UNL     1      -1.105   2.232  -4.539  0.00  0.00    -0.312 N 
ATOM     26  H   UNL     1      -0.116   1.909  -4.898  0.00  0.00    +0.170 HD
ATOM     27  C   UNL     1      -1.970   2.768  -5.421  0.00  0.00    +0.260 A 
ATOM     28  O   UNL     1      -1.664   2.889  -6.595  0.00  0.00    -0.267 OA
ATOM     29  C   UNL     1      -3.253   3.198  -4.953  0.00  0.00    +0.075 A 
ATOM     30  C   UNL     1      -4.343   3.811  -5.728  0.00  0.00    -0.023 A 
ATOM     31  C   UNL     1      -5.463   4.128  -5.056  0.00  0.00    -0.004 A 
ATOM     32  S   UNL     1      -5.144   3.642  -3.376  0.00  0.00    -0.073 S 
ATOM     33  C   UNL     1      -3.500   3.011  -3.586  0.00  0.00    +0.116 A 
ATOM     34  N   UNL     1      -2.595   2.469  -2.775  0.00  0.00    -0.229 NA
ATOM     35  C   UNL     1      -6.506   4.742  -5.950  0.00  0.00    +0.043 C 
ATOM     36  C   UNL     1      -6.055   4.376  -7.381  0.00  0.00    +0.010 C 
ATOM     37  C   UNL     1      -4.535   4.203  -7.196  0.00  0.00    +0.037 C 
ENDBRANCH  23  24
ENDBRANCH   1  23
TORSDOF 8
