REMARK  Name = ZINC40316767
REMARK  13 active torsions:
REMARK  status: ('A' for Active; 'I' for Inactive)
REMARK    1  A    between atoms: C_1  and  C_2
REMARK    2  A    between atoms: C_2  and  C_3
REMARK    3  A    between atoms: C_2  and  C_4
REMARK    4  A    between atoms: C_7  and  C_10
REMARK    5  A    between atoms: C_10  and  N_11
REMARK    6  A    between atoms: N_11  and  C_12
REMARK    7  A    between atoms: N_11  and  C_18
REMARK    8  A    between atoms: C_12  and  C_13
REMARK    9  A    between atoms: C_18  and  C_19
REMARK   10  A    between atoms: C_19  and  C_21
REMARK   11  A    between atoms: C_19  and  O_30
REMARK   12  A    between atoms: C_21  and  O_22
REMARK   13  A    between atoms: O_22  and  C_23
REMARK                            x       y       z     vdW  Elec       q    Type
REMARK                         _______ _______ _______ _____ _____    ______ ____
ROOT
ATOM      1  N   UNL     1       2.564  -0.569   5.828  0.00  0.00    +0.389 N 
ATOM      2  H   UNL     1       2.860   0.374   5.625  0.00  0.00    -0.081 HD
ENDROOT
BRANCH   1   3
ATOM      3  C   UNL     1       2.629  -1.377   4.603  0.00  0.00    -0.042 C 
BRANCH   3   7
ATOM      4  C   UNL     1       0.160   0.389   1.597  0.00  0.00    -0.045 A 
ATOM      5  C   UNL     1       1.489   0.755   1.704  0.00  0.00    +0.004 A 
ATOM      6  C   UNL     1       2.287   0.184   2.677  0.00  0.00    +0.002 A 
ATOM      7  C   UNL     1       1.758  -0.753   3.543  0.00  0.00    -0.064 A 
ATOM      8  C   UNL     1       0.429  -1.120   3.437  0.00  0.00    +0.002 A 
ATOM      9  C   UNL     1      -0.371  -0.545   2.467  0.00  0.00    +0.004 A 
BRANCH   4  11
ATOM     10  C   UNL     1      -0.756   2.527   0.739  0.00  0.00    +0.012 C 
ATOM     11  C   UNL     1      -0.711   1.012   0.537  0.00  0.00    +0.013 C 
ATOM     12  C   UNL     1      -0.134   0.698  -0.846  0.00  0.00    +0.012 C 
ENDBRANCH   4  11
ENDBRANCH   3   7
ENDBRANCH   1   3
BRANCH   1  13
ATOM     13  C   UNL     1       1.183  -0.551   6.330  0.00  0.00    -0.003 C 
BRANCH  13  14
ATOM     14  C   UNL     1       1.108   0.313   7.562  0.00  0.00    +0.089 A 
ATOM     15  C   UNL     1       0.957   1.650   7.578  0.00  0.00    +0.042 A 
ATOM     16  C   UNL     1       0.937   2.044   8.936  0.00  0.00    +0.041 A 
ATOM     17  C   UNL     1       1.077   0.924   9.668  0.00  0.00    +0.195 A 
ATOM     18  O   UNL     1       1.175  -0.121   8.832  0.00  0.00    -0.470 OA
ENDBRANCH  13  14
ENDBRANCH   1  13
BRANCH   1  19
ATOM     19  C   UNL     1       3.447  -1.152   6.847  0.00  0.00    -0.043 C 
BRANCH  19  20
ATOM     20  C   UNL     1       4.905  -0.984   6.413  0.00  0.00    +0.135 C 
BRANCH  20  21
ATOM     21  O   UNL     1       5.173  -1.841   5.302  0.00  0.00    -0.390 OA
ATOM     22  H   UNL     1       5.037  -2.780   5.487  0.00  0.00    +0.210 HD
ENDBRANCH  20  21
BRANCH  20  23
ATOM     23  C   UNL     1       5.828  -1.353   7.576  0.00  0.00    +0.258 C 
BRANCH  23  24
ATOM     24  O   UNL     1       7.184  -1.086   7.212  0.00  0.00    -0.489 OA
BRANCH  24  25
ATOM     25  C   UNL     1       8.138  -1.360   8.139  0.00  0.00    +0.121 A 
ATOM     26  C   UNL     1       7.778  -1.881   9.373  0.00  0.00    +0.047 A 
ATOM     27  C   UNL     1       8.749  -2.160  10.315  0.00  0.00    +0.019 A 
ATOM     28  C   UNL     1      10.081  -1.919  10.029  0.00  0.00    +0.018 A 
ATOM     29  C   UNL     1      10.443  -1.399   8.799  0.00  0.00    +0.019 A 
ATOM     30  C   UNL     1       9.475  -1.125   7.852  0.00  0.00    +0.047 A 
ATOM     31 BR   UNL     1      11.409  -2.301  11.320  0.00  0.00    -0.050 Br
ENDBRANCH  24  25
ENDBRANCH  23  24
ENDBRANCH  20  23
ENDBRANCH  19  20
ENDBRANCH   1  19
TORSDOF 11
