REMARK  Name = ZINC14775288
REMARK  15 active torsions:
REMARK  status: ('A' for Active; 'I' for Inactive)
REMARK    1  A    between atoms: C_1  and  C_2
REMARK    2  A    between atoms: C_2  and  C_3
REMARK    3  A    between atoms: C_3  and  O_4
REMARK    4  A    between atoms: O_4  and  C_5
REMARK    5  A    between atoms: C_8  and  C_12
REMARK    6  A    between atoms: N_14  and  C_15
REMARK    7  A    between atoms: C_15  and  N_17
REMARK    8  A    between atoms: C_23  and  C_25
REMARK    9  A    between atoms: C_25  and  C_26
REMARK   10  A    between atoms: C_26  and  O_28
REMARK   11  A    between atoms: O_28  and  C_29
REMARK   12  A    between atoms: C_29  and  C_30
REMARK   13  A    between atoms: C_30  and  C_31
REMARK   14  A    between atoms: C_31  and  C_32
REMARK   15  A    between atoms: C_31  and  C_33
REMARK                            x       y       z     vdW  Elec       q    Type
REMARK                         _______ _______ _______ _____ _____    ______ ____
ROOT
ATOM      1  C   UNL     1      -1.734   3.735  -5.826  0.00  0.00    +0.140 C 
ATOM      2  S   UNL     1      -1.667   5.417  -6.143  0.00  0.00    -0.018 S 
ENDROOT
BRANCH   1   3
ATOM      3  N   UNL     1      -0.728   2.933  -6.228  0.00  0.00    -0.299 N 
ATOM      4  C   UNL     1       0.464   3.478  -6.900  0.00  0.00    +0.126 C 
ATOM      5  C   UNL     1       0.544   2.867  -8.300  0.00  0.00    +0.123 C 
ATOM      6  N   UNL     1       0.334   1.427  -8.248  0.00  0.00    -0.312 N 
ATOM      7  C   UNL     1      -0.290   0.787  -7.258  0.00  0.00    +0.234 C 
ATOM      8  O   UNL     1      -0.473  -0.407  -7.364  0.00  0.00    -0.274 OA
ATOM      9  C   UNL     1      -0.776   1.480  -6.014  0.00  0.00    +0.171 C 
ATOM     10  H   UNL     1       0.672   0.895  -8.986  0.00  0.00    +0.149 HD
BRANCH   9  11
ATOM     11  C   UNL     1       0.123   1.105  -4.834  0.00  0.00    +0.152 C 
BRANCH  11  12
ATOM     12  C   UNL     1      -0.457   1.667  -3.562  0.00  0.00    +0.309 C 
ATOM     13  O   UNL     1      -1.434   2.377  -3.605  0.00  0.00    -0.251 OA
BRANCH  12  14
ATOM     14  O   UNL     1       0.111   1.378  -2.380  0.00  0.00    -0.465 OA
BRANCH  14  15
ATOM     15  C   UNL     1      -0.502   1.954  -1.196  0.00  0.00    +0.232 C 
BRANCH  15  16
ATOM     16  C   UNL     1       0.278   1.517   0.045  0.00  0.00    +0.044 C 
BRANCH  16  17
ATOM     17  C   UNL     1      -0.367   2.123   1.293  0.00  0.00    -0.014 C 
ATOM     18  C   UNL     1      -1.772   1.545   1.473  0.00  0.00    +0.007 C 
ATOM     19  C   UNL     1       0.482   1.790   2.520  0.00  0.00    +0.007 C 
ENDBRANCH  16  17
ENDBRANCH  15  16
ENDBRANCH  14  15
ENDBRANCH  12  14
ENDBRANCH  11  12
ENDBRANCH   9  11
ENDBRANCH   1   3
BRANCH   1  22
ATOM     20  C   UNL     1      -3.747   4.027  -4.680  0.00  0.00    +0.250 C 
ATOM     21  O   UNL     1      -3.653   5.231  -4.821  0.00  0.00    -0.270 OA
ATOM     22  N   UNL     1      -2.792   3.214  -5.175  0.00  0.00    -0.264 N 
ATOM     23  H   UNL     1      -2.867   2.253  -5.062  0.00  0.00    +0.157 HD
BRANCH  20  27
ATOM     24  C   UNL     1      -7.081   2.382  -2.628  0.00  0.00    +0.134 A 
ATOM     25  C   UNL     1      -6.098   1.543  -3.139  0.00  0.00    +0.047 A 
ATOM     26  C   UNL     1      -5.018   2.072  -3.809  0.00  0.00    +0.017 A 
ATOM     27  C   UNL     1      -4.905   3.456  -3.968  0.00  0.00    +0.038 A 
ATOM     28  C   UNL     1      -5.896   4.297  -3.454  0.00  0.00    +0.032 A 
ATOM     29  C   UNL     1      -6.976   3.760  -2.789  0.00  0.00    +0.060 A 
ATOM     30 BR   UNL     1      -8.318   4.897  -2.093  0.00  0.00    -0.046 Br
BRANCH  24  31
ATOM     31  O   UNL     1      -8.147   1.857  -1.972  0.00  0.00    -0.491 OA
BRANCH  31  32
ATOM     32  C   UNL     1      -8.192   0.434  -1.843  0.00  0.00    +0.229 C 
BRANCH  32  34
ATOM     33  C   UNL     1      -9.504  -1.492  -0.943  0.00  0.00    +0.007 C 
ATOM     34  C   UNL     1      -9.456   0.031  -1.081  0.00  0.00    +0.038 C 
ENDBRANCH  32  34
ENDBRANCH  31  32
ENDBRANCH  24  31
ENDBRANCH  20  27
ENDBRANCH   1  22
TORSDOF 12
