REMARK  Name = ZINC09725067
REMARK  16 active torsions:
REMARK  status: ('A' for Active; 'I' for Inactive)
REMARK    1  A    between atoms: C_1  and  C_2
REMARK    2  A    between atoms: C_2  and  C_3
REMARK    3  A    between atoms: C_3  and  N_4
REMARK    4  A    between atoms: N_4  and  C_5
REMARK    5  A    between atoms: N_4  and  C_8
REMARK    6  A    between atoms: C_5  and  C_6
REMARK    7  A    between atoms: C_6  and  C_7
REMARK    8  A    between atoms: C_8  and  C_9
REMARK    9  A    between atoms: C_9  and  C_10
REMARK   10  A    between atoms: C_10  and  N_11
REMARK   11  A    between atoms: C_12  and  C_14
REMARK   12  A    between atoms: N_16  and  C_36
REMARK   13  A    between atoms: C_20  and  S_25
REMARK   14  A    between atoms: S_25  and  N_28
REMARK   15  A    between atoms: N_28  and  C_29
REMARK   16  A    between atoms: N_28  and  C_30
REMARK                            x       y       z     vdW  Elec       q    Type
REMARK                         _______ _______ _______ _____ _____    ______ ____
ROOT
ATOM      1  C   UNL     1       2.467  -7.673   5.263  0.00  0.00    +0.100 A 
ATOM      2  C   UNL     1       2.879  -8.209   6.465  0.00  0.00    +0.102 A 
ATOM      3  N   UNL     1       3.060  -9.526   6.634  0.00  0.00    -0.349 N 
ATOM      4  C   UNL     1       2.851 -10.444   5.628  0.00  0.00    +0.053 A 
ATOM      5  C   UNL     1       3.054 -11.802   5.857  0.00  0.00    +0.028 A 
ATOM      6  C   UNL     1       2.841 -12.710   4.843  0.00  0.00    +0.030 A 
ATOM      7  C   UNL     1       2.425 -12.287   3.588  0.00  0.00    +0.106 A 
ATOM      8  C   UNL     1       2.219 -10.948   3.340  0.00  0.00    +0.042 A 
ATOM      9  C   UNL     1       2.429 -10.018   4.357  0.00  0.00    +0.048 A 
ATOM     10  C   UNL     1       2.213  -8.577   4.130  0.00  0.00    +0.202 A 
ATOM     11  O   UNL     1       1.843  -8.153   3.050  0.00  0.00    -0.286 OA
ATOM     12  C   UNL     1       3.500 -10.010   7.945  0.00  0.00    +0.149 C 
ENDROOT
BRANCH   1  14
ATOM     13  N   UNL     1       1.763  -5.719   3.978  0.00  0.00    -0.311 N 
ATOM     14  C   UNL     1       2.279  -6.220   5.117  0.00  0.00    +0.249 C 
ATOM     15  O   UNL     1       2.590  -5.473   6.025  0.00  0.00    -0.270 OA
ATOM     16  H   UNL     1       1.450  -6.318   3.282  0.00  0.00    +0.149 HD
BRANCH  13  17
ATOM     17  C   UNL     1       1.675  -4.268   3.790  0.00  0.00    +0.102 C 
BRANCH  17  18
ATOM     18  C   UNL     1       1.056  -3.968   2.424  0.00  0.00    +0.000 C 
BRANCH  18  19
ATOM     19  C   UNL     1       0.963  -2.453   2.228  0.00  0.00    -0.077 C 
BRANCH  19  20
ATOM     20  N   UNL     1       0.487  -2.163   0.869  0.00  0.00    +0.380 N 
ATOM     21  H   UNL     1       1.094  -2.609   0.197  0.00  0.00    -0.082 HD
BRANCH  20  22
ATOM     22  C   UNL     1      -0.880  -2.677   0.709  0.00  0.00    -0.079 C 
BRANCH  22  24
ATOM     23  C   UNL     1      -2.754  -3.023  -0.906  0.00  0.00    +0.002 C 
ATOM     24  C   UNL     1      -1.331  -2.488  -0.741  0.00  0.00    -0.022 C 
ENDBRANCH  22  24
ENDBRANCH  20  22
BRANCH  20  25
ATOM     25  C   UNL     1       0.493  -0.711   0.647  0.00  0.00    -0.079 C 
BRANCH  25  26
ATOM     26  C   UNL     1       1.932  -0.194   0.694  0.00  0.00    -0.022 C 
ATOM     27  C   UNL     1       1.931   1.330   0.564  0.00  0.00    +0.002 C 
ENDBRANCH  25  26
ENDBRANCH  20  25
ENDBRANCH  19  20
ENDBRANCH  18  19
ENDBRANCH  17  18
ENDBRANCH  13  17
ENDBRANCH   1  14
BRANCH   7  28
ATOM     28  S   UNL     1       2.161 -13.468   2.308  0.00  0.00    +0.061 S 
ATOM     29  O   UNL     1       2.302 -12.771   1.077  0.00  0.00    -0.153 OA
ATOM     30  O   UNL     1       2.948 -14.605   2.634  0.00  0.00    -0.153 OA
BRANCH  28  31
ATOM     31  N   UNL     1       0.578 -13.946   2.402  0.00  0.00    -0.177 NA
ATOM     32  C   UNL     1      -0.451 -13.223   1.650  0.00  0.00    +0.132 C 
BRANCH  31  33
ATOM     33  C   UNL     1       0.207 -15.091   3.236  0.00  0.00    +0.080 C 
ATOM     34  C   UNL     1      -0.440 -16.170   2.365  0.00  0.00    +0.020 C 
ATOM     35  C   UNL     1      -0.827 -17.366   3.236  0.00  0.00    +0.002 C 
ATOM     36  C   UNL     1      -1.820 -16.914   4.309  0.00  0.00    +0.000 C 
ATOM     37  C   UNL     1      -1.173 -15.836   5.181  0.00  0.00    +0.002 C 
ATOM     38  C   UNL     1      -0.786 -14.640   4.309  0.00  0.00    +0.020 C 
ENDBRANCH  31  33
ENDBRANCH  28  31
ENDBRANCH   7  28
TORSDOF 12
