REMARK  Name = ZINC03666083
REMARK  7 active torsions:
REMARK  status: ('A' for Active; 'I' for Inactive)
REMARK    1  A    between atoms: C_1  and  C_2
REMARK    2  A    between atoms: C_2  and  C_35
REMARK    3  A    between atoms: C_6  and  C_25
REMARK    4  A    between atoms: C_8  and  C_23
REMARK    5  A    between atoms: C_9  and  N_22
REMARK    6  A    between atoms: N_10  and  C_11
REMARK    7  A    between atoms: C_12  and  C_20
REMARK                            x       y       z     vdW  Elec       q    Type
REMARK                         _______ _______ _______ _____ _____    ______ ____
ROOT
ATOM      1  C   UNL     1      -3.944   5.818  -4.856  0.00  0.00    +0.011 C 
ATOM      2  C   UNL     1      -2.543   6.303  -5.234  0.00  0.00    -0.023 C 
ATOM      3  C   UNL     1      -1.643   6.290  -3.996  0.00  0.00    +0.058 C 
ATOM      4  C   UNL     1      -2.194   7.231  -2.955  0.00  0.00    +0.025 C 
ATOM      5  C   UNL     1      -2.889   8.333  -3.311  0.00  0.00    +0.025 C 
ATOM      6  C   UNL     1      -3.439   9.274  -2.269  0.00  0.00    +0.097 C 
ATOM      7  C   UNL     1      -2.773   9.062  -0.941  0.00  0.00    +0.077 C 
ATOM      8  C   UNL     1      -2.087   7.922  -0.674  0.00  0.00    +0.107 C 
ATOM      9  N   UNL     1      -1.984   6.938  -1.632  0.00  0.00    -0.253 N 
ATOM     10  C   UNL     1      -3.119   8.638  -4.665  0.00  0.00    +0.162 C 
ATOM     11  O   UNL     1      -3.732   9.647  -4.953  0.00  0.00    -0.292 OA
ATOM     12  C   UNL     1      -2.620   7.739  -5.762  0.00  0.00    +0.086 C 
ATOM     13  C   UNL     1      -1.951   5.390  -6.310  0.00  0.00    +0.011 C 
ENDROOT
BRANCH   9  14
ATOM     14  C   UNL     1      -1.658   5.641  -1.257  0.00  0.00    +0.095 A 
ATOM     15  C   UNL     1      -0.400   5.071  -1.129  0.00  0.00    +0.084 A 
ATOM     16  C   UNL     1      -0.331   3.680  -0.717  0.00  0.00    -0.018 A 
ATOM     17  C   UNL     1      -1.525   3.085  -0.499  0.00  0.00    -0.004 A 
ATOM     18  S   UNL     1      -2.725   4.343  -0.834  0.00  0.00    -0.076 S 
ATOM     19  C   UNL     1      -1.764   1.670  -0.070  0.00  0.00    +0.043 C 
ATOM     20  C   UNL     1      -0.464   0.878  -0.272  0.00  0.00    +0.005 C 
ATOM     21  C   UNL     1       0.701   1.675   0.323  0.00  0.00    +0.005 C 
ATOM     22  C   UNL     1       0.973   2.915  -0.531  0.00  0.00    +0.037 C 
BRANCH  15  23
ATOM     23  C   UNL     1       0.787   5.826  -1.395  0.00  0.00    +0.102 C 
ATOM     24  N   UNL     1       1.729   6.425  -1.605  0.00  0.00    -0.191 NA
ENDBRANCH  15  23
ENDBRANCH   9  14
BRANCH   6  25
ATOM     25  C   UNL     1      -4.920   9.039  -2.122  0.00  0.00    -0.035 A 
ATOM     26  C   UNL     1      -5.385   7.805  -1.708  0.00  0.00    +0.007 A 
ATOM     27  C   UNL     1      -6.743   7.589  -1.568  0.00  0.00    +0.038 A 
ATOM     28  C   UNL     1      -7.638   8.606  -1.854  0.00  0.00    +0.123 A 
ATOM     29  C   UNL     1      -7.171   9.840  -2.274  0.00  0.00    +0.038 A 
ATOM     30  C   UNL     1      -5.813  10.055  -2.408  0.00  0.00    +0.007 A 
ATOM     31  F   UNL     1      -8.966   8.395  -1.722  0.00  0.00    -0.205 F 
ENDBRANCH   6  25
BRANCH   8  32
ATOM     32  N   UNL     1      -1.495   7.749   0.554  0.00  0.00    -0.345 N 
ATOM     33  H   UNL     1      -0.932   6.976   0.717  0.00  0.00    +0.144 HD
ATOM     34  H   UNL     1      -1.639   8.400   1.258  0.00  0.00    +0.144 HD
ENDBRANCH   8  32
BRANCH   7  35
ATOM     35  C   UNL     1      -2.864  10.081   0.061  0.00  0.00    +0.099 C 
ATOM     36  N   UNL     1      -2.935  10.888   0.857  0.00  0.00    -0.191 NA
ENDBRANCH   7  35
TORSDOF 5
