REMARK  Name = ZINC00341030
REMARK  4 active torsions:
REMARK  status: ('A' for Active; 'I' for Inactive)
REMARK    1  A    between atoms: C_4  and  C_7
REMARK    2  A    between atoms: N_9  and  C_10
REMARK    3  A    between atoms: C_10  and  C_16
REMARK    4  A    between atoms: N_18  and  C_19
REMARK                            x       y       z     vdW  Elec       q    Type
REMARK                         _______ _______ _______ _____ _____    ______ ____
ROOT
ATOM      1  C   UNL     1      -0.027   1.524   0.013  0.00  0.00    +0.111 C 
ATOM      2  C   UNL     1       1.377   2.127  -0.063  0.00  0.00    +0.035 C 
ATOM      3  C   UNL     1       2.076   1.634  -1.331  0.00  0.00    +0.003 C 
ATOM      4  C   UNL     1       2.177   0.108  -1.298  0.00  0.00    +0.000 C 
ATOM      5  C   UNL     1       0.773  -0.495  -1.223  0.00  0.00    +0.003 C 
ATOM      6  C   UNL     1       0.074  -0.002   0.046  0.00  0.00    +0.035 C 
ENDROOT
BRANCH   1   9
ATOM      7  C   UNL     1      -1.108   3.236  -1.344  0.00  0.00    +0.245 C 
ATOM      8  O   UNL     1      -0.669   4.077  -0.583  0.00  0.00    -0.270 OA
ATOM      9  N   UNL     1      -0.799   1.937  -1.162  0.00  0.00    -0.297 N 
ATOM     10  H   UNL     1      -1.089   1.275  -1.809  0.00  0.00    +0.150 HD
BRANCH   7  14
ATOM     11  C   UNL     1      -3.611   4.394  -4.574  0.00  0.00    +0.000 A 
ATOM     12  C   UNL     1      -3.113   5.354  -3.710  0.00  0.00    +0.001 A 
ATOM     13  C   UNL     1      -2.300   4.984  -2.659  0.00  0.00    +0.013 A 
ATOM     14  C   UNL     1      -1.979   3.639  -2.468  0.00  0.00    +0.037 A 
ATOM     15  C   UNL     1      -2.480   2.677  -3.346  0.00  0.00    +0.013 A 
ATOM     16  C   UNL     1      -3.297   3.060  -4.390  0.00  0.00    +0.001 A 
ENDBRANCH   7  14
ENDBRANCH   1   9
BRANCH   1  17
ATOM     17  C   UNL     1      -0.716   2.010   1.262  0.00  0.00    +0.237 C 
ATOM     18  O   UNL     1      -0.059   2.381   2.211  0.00  0.00    -0.273 OA
ATOM     19  N   UNL     1      -2.062   2.030   1.325  0.00  0.00    -0.311 N 
ATOM     20  H   UNL     1      -2.588   1.802   0.542  0.00  0.00    +0.149 HD
BRANCH  19  21
ATOM     21  C   UNL     1      -2.732   2.398   2.575  0.00  0.00    +0.073 C 
ATOM     22  C   UNL     1      -2.927   1.147   3.457  0.00  0.00    +0.022 C 
ATOM     23  C   UNL     1      -4.308   1.365   4.125  0.00  0.00    +0.002 C 
ATOM     24  C   UNL     1      -5.137   2.016   2.990  0.00  0.00    +0.002 C 
ATOM     25  C   UNL     1      -4.137   2.950   2.278  0.00  0.00    +0.022 C 
ENDBRANCH  19  21
ENDBRANCH   1  17
TORSDOF 4
