REMARK  Name = ZINC01827329
REMARK  6 active torsions:
REMARK  status: ('A' for Active; 'I' for Inactive)
REMARK    1  A    between atoms: C_1  and  C_2
REMARK    2  A    between atoms: C_6  and  N_9
REMARK    3  A    between atoms: C_7  and  C_8
REMARK    4  A    between atoms: C_15  and  C_22
REMARK    5  A    between atoms: C_18  and  C_20
REMARK    6  A    between atoms: C_18  and  C_21
REMARK                            x       y       z     vdW  Elec       q    Type
REMARK                         _______ _______ _______ _____ _____    ______ ____
ROOT
ATOM      1  N   UNL     1       0.008  -2.493   2.751  0.00  0.00    -0.212 N 
ATOM      2  C   UNL     1      -1.091  -3.055   3.325  0.00  0.00    +0.161 C 
ATOM      3  N   UNL     1      -0.741  -3.812   4.407  0.00  0.00    -0.347 N 
ATOM      4  C   UNL     1       0.719  -3.720   4.529  0.00  0.00    +0.108 C 
ATOM      5  N   UNL     1       1.143  -2.853   3.419  0.00  0.00    -0.209 NA
ATOM      6  C   UNL     1       1.099  -3.098   5.870  0.00  0.00    +0.049 C 
ATOM      7  C   UNL     1       0.621  -4.004   7.007  0.00  0.00    -0.010 C 
ATOM      8  C   UNL     1       1.271  -5.382   6.867  0.00  0.00    +0.010 C 
ATOM      9  C   UNL     1       0.871  -6.003   5.528  0.00  0.00    -0.031 C 
ATOM     10  C   UNL     1       1.349  -5.103   4.386  0.00  0.00    +0.052 C 
ATOM     11  C   UNL     1      -0.651  -6.142   5.464  0.00  0.00    +0.011 C 
ATOM     12  C   UNL     1       1.516  -7.384   5.393  0.00  0.00    +0.011 C 
ATOM     13  C   UNL     1       1.016  -3.387   8.351  0.00  0.00    +0.007 C 
ATOM     14  S   UNL     1      -2.646  -2.848   2.784  0.00  0.00    -0.014 SA
ATOM     15  H   UNL     1       1.633  -2.041   3.764  0.00  0.00    +0.147 HD
ATOM     16  H   UNL     1      -1.340  -4.313   4.982  0.00  0.00    +0.163 HD
ENDROOT
BRANCH   1  22
ATOM     17  C   UNL     1      -0.101   2.031   0.829  0.00  0.00    +0.044 C 
ATOM     18  C   UNL     1      -0.075   0.534   0.664  0.00  0.00    -0.046 A 
ATOM     19  C   UNL     1      -0.080  -0.022  -0.602  0.00  0.00    +0.004 A 
ATOM     20  C   UNL     1      -0.056  -1.395  -0.758  0.00  0.00    +0.002 A 
ATOM     21  C   UNL     1      -0.027  -2.217   0.351  0.00  0.00    +0.025 A 
ATOM     22  C   UNL     1      -0.021  -1.663   1.625  0.00  0.00    +0.055 A 
ATOM     23  C   UNL     1      -0.040  -0.282   1.778  0.00  0.00    -0.025 A 
ATOM     24  C   UNL     1      -0.028   0.324   3.157  0.00  0.00    +0.046 C 
ENDBRANCH   1  22
TORSDOF 1
