REMARK  Name = ZINC49150185
REMARK  5 active torsions:
REMARK  status: ('A' for Active; 'I' for Inactive)
REMARK    1  A    between atoms: C_5  and  C_7
REMARK    2  A    between atoms: C_7  and  C_8
REMARK    3  A    between atoms: C_8  and  C_9
REMARK    4  A    between atoms: N_11  and  N_12
REMARK    5  A    between atoms: N_15  and  C_16
REMARK                            x       y       z     vdW  Elec       q    Type
REMARK                         _______ _______ _______ _____ _____    ______ ____
ROOT
ATOM      1  C   UNL     1       1.395  -4.209   1.402  0.00  0.00    +0.229 C 
ATOM      2  O   UNL     1       1.302  -4.811   0.353  0.00  0.00    -0.274 OA
ATOM      3  N   UNL     1       1.518  -4.888   2.560  0.00  0.00    -0.233 N 
ATOM      4  H   UNL     1       1.593  -4.407   3.399  0.00  0.00    +0.173 HD
ENDROOT
BRANCH   3   5
ATOM      5  N   UNL     1       1.537  -6.289   2.551  0.00  0.00    -0.218 N 
ATOM      6  C   UNL     1       1.659  -6.968   3.709  0.00  0.00    +0.316 C 
ATOM      7  O   UNL     1       1.675  -8.184   3.702  0.00  0.00    -0.251 OA
ATOM      8  N   UNL     1       1.763  -6.300   4.875  0.00  0.00    -0.295 N 
ATOM      9  H   UNL     1       1.462  -6.770   1.713  0.00  0.00    +0.174 HD
ATOM     10  H   UNL     1       1.750  -5.330   4.881  0.00  0.00    +0.151 HD
BRANCH   8  11
ATOM     11  C   UNL     1       1.895  -7.038   6.133  0.00  0.00    +0.075 C 
ATOM     12  C   UNL     1       1.064  -6.558   7.325  0.00  0.00    +0.024 C 
ATOM     13  C   UNL     1       2.575  -6.324   7.303  0.00  0.00    +0.024 C 
ENDBRANCH   8  11
ENDBRANCH   3   5
BRANCH   1  14
ATOM     14  C   UNL     1       1.375  -2.702   1.411  0.00  0.00    +0.102 C 
BRANCH  14  15
ATOM     15  C   UNL     1       1.229  -2.186  -0.022  0.00  0.00    +0.045 C 
BRANCH  15  20
ATOM     16  C   UNL     1      -0.017   1.378   0.010  0.00  0.00    +0.000 A 
ATOM     17  C   UNL     1       1.171   2.086   0.002  0.00  0.00    +0.001 A 
ATOM     18  C   UNL     1       2.377   1.412  -0.013  0.00  0.00    +0.015 A 
ATOM     19  C   UNL     1       2.397   0.029  -0.021  0.00  0.00    +0.021 A 
ATOM     20  C   UNL     1       1.208  -0.679  -0.013  0.00  0.00    -0.033 A 
ATOM     21  C   UNL     1       0.002  -0.004   0.002  0.00  0.00    +0.005 A 
ATOM     22 BR   UNL     1       4.047  -0.894  -0.042  0.00  0.00    -0.050 Br
ENDBRANCH  15  20
ENDBRANCH  14  15
ENDBRANCH   1  14
TORSDOF 5
