REMARK  Name = ZINC46577299
REMARK  10 active torsions:
REMARK  status: ('A' for Active; 'I' for Inactive)
REMARK    1  A    between atoms: C_1  and  C_2
REMARK    2  A    between atoms: C_3  and  C_33
REMARK    3  A    between atoms: C_11  and  C_13
REMARK    4  A    between atoms: C_13  and  S_14
REMARK    5  A    between atoms: S_14  and  C_15
REMARK    6  A    between atoms: C_15  and  C_17
REMARK    7  A    between atoms: C_15  and  C_18
REMARK    8  A    between atoms: N_20  and  C_21
REMARK    9  A    between atoms: C_25  and  O_27
REMARK   10  A    between atoms: O_27  and  C_28
REMARK                            x       y       z     vdW  Elec       q    Type
REMARK                         _______ _______ _______ _____ _____    ______ ____
ROOT
ATOM      1  C   UNL     1      -0.939  -6.257   4.916  0.00  0.00    +0.130 C 
ATOM      2  C   UNL     1      -2.337  -6.187   5.534  0.00  0.00    +0.029 C 
ENDROOT
BRANCH   1   3
ATOM      3  C   UNL     1      -0.577  -7.696   4.654  0.00  0.00    +0.230 C 
ATOM      4  O   UNL     1      -0.685  -8.154   3.536  0.00  0.00    -0.274 OA
ATOM      5  N   UNL     1      -0.134  -8.474   5.661  0.00  0.00    -0.284 N 
ATOM      6  H   UNL     1       0.017  -8.091   6.539  0.00  0.00    +0.155 HD
BRANCH   5   7
ATOM      7  C   UNL     1       0.107  -9.835   5.440  0.00  0.00    +0.037 A 
ATOM      8  C   UNL     1      -0.176 -10.761   6.436  0.00  0.00    +0.023 A 
ATOM      9  C   UNL     1       0.062 -12.104   6.218  0.00  0.00    +0.005 A 
ATOM     10  C   UNL     1       0.582 -12.530   5.010  0.00  0.00    +0.046 A 
ATOM     11  C   UNL     1       0.867 -11.608   4.012  0.00  0.00    +0.123 A 
ATOM     12  C   UNL     1       0.623 -10.260   4.225  0.00  0.00    +0.069 A 
BRANCH  11  13
ATOM     13  O   UNL     1       1.379 -12.027   2.825  0.00  0.00    -0.489 OA
BRANCH  13  14
ATOM     14  C   UNL     1       1.756 -11.017   1.888  0.00  0.00    +0.173 C 
ATOM     15  C   UNL     1       0.542 -10.617   1.024  0.00  0.00    +0.044 C 
ATOM     16  C   UNL     1       1.142 -10.370  -0.382  0.00  0.00    +0.004 C 
ATOM     17  C   UNL     1       2.217 -11.479  -0.495  0.00  0.00    +0.004 C 
ATOM     18  C   UNL     1       2.821 -11.565   0.922  0.00  0.00    +0.044 C 
ENDBRANCH  13  14
ENDBRANCH  11  13
ENDBRANCH   5   7
ENDBRANCH   1   3
BRANCH   1  19
ATOM     19  S   UNL     1      -0.921  -5.334   3.354  0.00  0.00    -0.141 S 
BRANCH  19  20
ATOM     20  C   UNL     1      -1.221  -3.617   3.856  0.00  0.00    +0.144 C 
BRANCH  20  31
ATOM     21  C   UNL     1      -1.432   1.041  -0.962  0.00  0.00    +0.045 C 
ATOM     22  C   UNL     1      -1.223  -0.449  -0.875  0.00  0.00    -0.026 A 
ATOM     23  C   UNL     1      -1.004  -1.169  -1.986  0.00  0.00    -0.008 A 
ATOM     24  S   UNL     1      -0.822  -2.833  -1.371  0.00  0.00    -0.073 S 
ATOM     25  C   UNL     1      -1.046  -2.511   0.360  0.00  0.00    +0.116 A 
ATOM     26  C   UNL     1      -1.249  -1.120   0.411  0.00  0.00    +0.075 A 
ATOM     27  C   UNL     1      -1.457  -0.572   1.718  0.00  0.00    +0.260 A 
ATOM     28  O   UNL     1      -1.647   0.623   1.866  0.00  0.00    -0.267 OA
ATOM     29  N   UNL     1      -1.440  -1.398   2.781  0.00  0.00    -0.310 N 
ATOM     30  H   UNL     1      -1.580  -1.033   3.669  0.00  0.00    +0.170 HD
ATOM     31  C   UNL     1      -1.231  -2.732   2.636  0.00  0.00    +0.121 A 
ATOM     32  N   UNL     1      -1.048  -3.263   1.457  0.00  0.00    -0.226 NA
ATOM     33  C   UNL     1      -0.930  -0.688  -3.413  0.00  0.00    +0.052 C 
ENDBRANCH  20  31
ENDBRANCH  19  20
ENDBRANCH   1  19
TORSDOF 7
