REMARK  Name = ZINC14548114
REMARK  6 active torsions:
REMARK  status: ('A' for Active; 'I' for Inactive)
REMARK    1  A    between atoms: C_1  and  C_2
REMARK    2  A    between atoms: C_2  and  C_3
REMARK    3  A    between atoms: C_2  and  N_4
REMARK    4  A    between atoms: C_5  and  C_7
REMARK    5  A    between atoms: C_14  and  C_23
REMARK    6  A    between atoms: C_32  and  O_33
REMARK                            x       y       z     vdW  Elec       q    Type
REMARK                         _______ _______ _______ _____ _____    ______ ____
ROOT
ATOM      1  C   UNL     1       1.645   4.111  -1.051  0.00  0.00    +0.058 A 
ATOM      2  C   UNL     1       0.896   4.869  -0.150  0.00  0.00    +0.015 A 
ATOM      3  C   UNL     1       0.267   4.246   0.905  0.00  0.00    +0.001 A 
ATOM      4  C   UNL     1       0.374   2.877   1.070  0.00  0.00    +0.006 A 
ATOM      5  C   UNL     1       1.113   2.106   0.184  0.00  0.00    -0.019 A 
ATOM      6  C   UNL     1       1.754   2.718  -0.879  0.00  0.00    +0.044 A 
ATOM      7  N   UNL     1       2.515   2.007  -1.795  0.00  0.00    -0.336 N 
ATOM      8  C   UNL     1       2.110   0.602  -1.907  0.00  0.00    +0.109 C 
ATOM      9  C   UNL     1       2.184  -0.057  -0.527  0.00  0.00    +0.029 C 
ATOM     10  C   UNL     1       1.181   0.627   0.427  0.00  0.00    +0.049 C 
ATOM     11  C   UNL     1      -0.142  -0.028   0.101  0.00  0.00    -0.023 C 
ATOM     12  C   UNL     1       0.050  -1.180  -0.489  0.00  0.00    -0.030 C 
ATOM     13  C   UNL     1       1.532  -1.464  -0.635  0.00  0.00    +0.033 C 
ATOM     14  H   UNL     1       3.498   2.072  -1.576  0.00  0.00    +0.147 HD
ENDROOT
BRANCH   8  15
ATOM     15  C   UNL     1       0.694   0.541  -2.417  0.00  0.00    +0.022 A 
ATOM     16  C   UNL     1       0.203  -0.640  -2.999  0.00  0.00    -0.009 A 
ATOM     17  C   UNL     1       1.010  -1.784  -3.119  0.00  0.00    +0.009 A 
ATOM     18  C   UNL     1       0.501  -2.910  -3.688  0.00  0.00    +0.001 A 
ATOM     19  C   UNL     1      -0.812  -2.949  -4.154  0.00  0.00    +0.001 A 
ATOM     20  C   UNL     1      -1.623  -1.860  -4.054  0.00  0.00    +0.008 A 
ATOM     21  C   UNL     1      -1.133  -0.679  -3.473  0.00  0.00    -0.017 A 
ATOM     22  C   UNL     1      -1.942   0.465  -3.353  0.00  0.00    +0.012 A 
ATOM     23  C   UNL     1      -1.437   1.592  -2.785  0.00  0.00    +0.046 A 
ATOM     24  C   UNL     1      -0.122   1.631  -2.312  0.00  0.00    +0.122 A 
BRANCH  24  25
ATOM     25  O   UNL     1       0.353   2.771  -1.744  0.00  0.00    -0.506 OA
ATOM     26  H   UNL     1       0.633   3.441  -2.382  0.00  0.00    +0.292 HD
ENDBRANCH  24  25
ENDBRANCH   8  15
BRANCH   1  28
ATOM     27  N   UNL     1       2.218   6.104  -2.347  0.00  0.00    -0.309 N 
ATOM     28  C   UNL     1       2.322   4.770  -2.183  0.00  0.00    +0.246 C 
ATOM     29  O   UNL     1       2.974   4.110  -2.969  0.00  0.00    -0.270 OA
ATOM     30  H   UNL     1       1.698   6.630  -1.721  0.00  0.00    +0.149 HD
BRANCH  27  32
ATOM     31  C   UNL     1       2.166   8.061  -3.812  0.00  0.00    +0.027 C 
ATOM     32  C   UNL     1       2.891   6.758  -3.472  0.00  0.00    +0.067 C 
ATOM     33  C   UNL     1       4.340   7.065  -3.091  0.00  0.00    +0.027 C 
ENDBRANCH  27  32
ENDBRANCH   1  28
TORSDOF 4
