REMARK  Name = ZINC48371450
REMARK  7 active torsions:
REMARK  status: ('A' for Active; 'I' for Inactive)
REMARK    1  A    between atoms: C_1  and  C_2
REMARK    2  A    between atoms: C_3  and  C_9
REMARK    3  A    between atoms: C_4  and  C_8
REMARK    4  A    between atoms: N_5  and  C_7
REMARK    5  A    between atoms: C_10  and  C_11
REMARK    6  A    between atoms: N_13  and  C_14
REMARK    7  A    between atoms: C_14  and  C_15
REMARK                            x       y       z     vdW  Elec       q    Type
REMARK                         _______ _______ _______ _____ _____    ______ ____
ROOT
ATOM      1  C   UNL     1      -0.904   0.994  -4.298  0.00  0.00    +0.237 C 
ATOM      2  O   UNL     1      -0.107   0.533  -5.095  0.00  0.00    -0.271 OA
ATOM      3  N   UNL     1      -1.816   1.899  -4.704  0.00  0.00    -0.308 N 
ATOM      4  H   UNL     1      -2.451   2.267  -4.069  0.00  0.00    +0.149 HD
ENDROOT
BRANCH   1   6
ATOM      5  C   UNL     1       0.043  -0.327  -2.535  0.00  0.00    +0.016 C 
ATOM      6  C   UNL     1      -0.871   0.580  -2.942  0.00  0.00    +0.068 C 
BRANCH   5   9
ATOM      7  C   UNL     1       0.074   1.592  -0.009  0.00  0.00    +0.068 C 
ATOM      8  C   UNL     1       0.090   0.085   0.006  0.00  0.00    +0.067 A 
ATOM      9  C   UNL     1       0.077  -0.757  -1.130  0.00  0.00    +0.018 A 
ATOM     10  C   UNL     1       0.100  -2.061  -0.670  0.00  0.00    +0.043 A 
ATOM     11  N   UNL     1       0.126  -2.012   0.673  0.00  0.00    -0.271 N 
ATOM     12  N   UNL     1       0.126  -0.670   1.069  0.00  0.00    -0.176 NA
ATOM     13  C   UNL     1       0.157  -3.170   1.570  0.00  0.00    +0.172 C 
ATOM     14  C   UNL     1       0.096  -3.307  -1.518  0.00  0.00    +0.066 C 
ENDBRANCH   5   9
ENDBRANCH   1   6
BRANCH   3  15
ATOM     15  C   UNL     1      -1.850   2.328  -6.105  0.00  0.00    +0.141 C 
BRANCH  15  16
ATOM     16  C   UNL     1      -2.953   3.336  -6.295  0.00  0.00    -0.014 A 
ATOM     17  C   UNL     1      -4.234   2.918  -6.631  0.00  0.00    +0.010 A 
ATOM     18  C   UNL     1      -5.218   3.876  -6.797  0.00  0.00    +0.042 A 
ATOM     19  C   UNL     1      -4.893   5.218  -6.623  0.00  0.00    +0.099 A 
ATOM     20  N   UNL     1      -3.660   5.576  -6.302  0.00  0.00    -0.349 N 
ATOM     21  C   UNL     1      -2.702   4.683  -6.132  0.00  0.00    +0.089 A 
ATOM     22  N   UNL     1      -5.872   6.191  -6.787  0.00  0.00    -0.317 N 
ATOM     23  C   UNL     1      -5.587   7.599  -6.481  0.00  0.00    +0.106 C 
ATOM     24  C   UNL     1      -5.943   8.451  -7.703  0.00  0.00    +0.019 C 
ATOM     25  C   UNL     1      -7.394   8.177  -8.105  0.00  0.00    +0.003 C 
ATOM     26  C   UNL     1      -7.551   6.702  -8.482  0.00  0.00    +0.019 C 
ATOM     27  C   UNL     1      -7.211   5.831  -7.275  0.00  0.00    +0.106 C 
ATOM     28  H   UNL     1      -3.455   6.517  -6.186  0.00  0.00    +0.167 HD
ENDBRANCH  15  16
ENDBRANCH   3  15
TORSDOF 4
