REMARK  Name = ZINC64898954
REMARK  7 active torsions:
REMARK  status: ('A' for Active; 'I' for Inactive)
REMARK    1  A    between atoms: C_1  and  O_2
REMARK    2  A    between atoms: O_2  and  C_3
REMARK    3  A    between atoms: C_3  and  C_4
REMARK    4  A    between atoms: C_4  and  N_5
REMARK    5  A    between atoms: N_8  and  N_9
REMARK    6  A    between atoms: C_10  and  C_12
REMARK    7  A    between atoms: C_17  and  C_21
REMARK                            x       y       z     vdW  Elec       q    Type
REMARK                         _______ _______ _______ _____ _____    ______ ____
ROOT
ATOM      1  N   UNL     1      -3.371  -3.365  -1.267  0.00  0.00    -0.229 N 
ATOM      2  C   UNL     1      -4.649  -3.788  -1.339  0.00  0.00    +0.268 C 
ATOM      3  O   UNL     1      -4.901  -4.977  -1.281  0.00  0.00    -0.268 OA
ATOM      4  H   UNL     1      -3.170  -2.418  -1.314  0.00  0.00    +0.173 HD
ENDROOT
BRANCH   2   5
ATOM      5  C   UNL     1      -5.737  -2.813  -1.487  0.00  0.00    +0.095 A 
ATOM      6  C   UNL     1      -7.076  -3.043  -1.570  0.00  0.00    +0.068 A 
ATOM      7  C   UNL     1      -7.966  -1.961  -1.710  0.00  0.00    +0.008 A 
ATOM      8  C   UNL     1      -9.380  -1.996  -1.813  0.00  0.00    +0.011 A 
ATOM      9  C   UNL     1     -10.095  -0.849  -1.946  0.00  0.00    +0.013 A 
ATOM     10  C   UNL     1      -9.476   0.395  -1.985  0.00  0.00    +0.056 A 
ATOM     11  C   UNL     1      -8.102   0.474  -1.888  0.00  0.00    +0.028 A 
ATOM     12  C   UNL     1      -7.363  -0.682  -1.754  0.00  0.00    +0.022 A 
ATOM     13  S   UNL     1      -5.630  -1.035  -1.594  0.00  0.00    -0.082 S 
ATOM     14 CL   UNL     1      -7.685  -4.668  -1.504  0.00  0.00    -0.082 Cl
BRANCH  10  15
ATOM     15  C   UNL     1     -10.300   1.648  -2.134  0.00  0.00    +0.417 C 
ATOM     16  F   UNL     1     -11.655   1.309  -2.212  0.00  0.00    -0.166 F 
ATOM     17  F   UNL     1     -10.090   2.478  -1.028  0.00  0.00    -0.166 F 
ATOM     18  F   UNL     1      -9.919   2.321  -3.300  0.00  0.00    -0.166 F 
ENDBRANCH  10  15
ENDBRANCH   2   5
BRANCH   1  22
ATOM     19  N   UNL     1      -0.776  -2.556  -1.119  0.00  0.00    -0.296 N 
ATOM     20  C   UNL     1      -1.055  -3.873  -1.054  0.00  0.00    +0.316 C 
ATOM     21  O   UNL     1      -0.154  -4.680  -0.932  0.00  0.00    -0.251 OA
ATOM     22  N   UNL     1      -2.333  -4.295  -1.126  0.00  0.00    -0.218 N 
ATOM     23  H   UNL     1      -1.495  -1.912  -1.217  0.00  0.00    +0.150 HD
ATOM     24  H   UNL     1      -2.534  -5.243  -1.079  0.00  0.00    +0.174 HD
BRANCH  19  25
ATOM     25  C   UNL     1       0.613  -2.097  -1.041  0.00  0.00    +0.134 C 
BRANCH  25  26
ATOM     26  C   UNL     1       0.652  -0.570  -1.138  0.00  0.00    +0.178 C 
BRANCH  26  28
ATOM     27  C   UNL     1      -0.017   1.425   0.010  0.00  0.00    +0.194 C 
ATOM     28  O   UNL     1       0.002  -0.004   0.002  0.00  0.00    -0.381 OA
ENDBRANCH  26  28
ENDBRANCH  25  26
ENDBRANCH  19  25
ENDBRANCH   1  22
TORSDOF 6
