REMARK  Name = ZINC63060504
REMARK  12 active torsions:
REMARK  status: ('A' for Active; 'I' for Inactive)
REMARK    1  A    between atoms: C_1  and  C_2
REMARK    2  A    between atoms: C_2  and  O_3
REMARK    3  A    between atoms: O_3  and  C_4
REMARK    4  A    between atoms: C_4  and  C_6
REMARK    5  A    between atoms: C_8  and  C_38
REMARK    6  A    between atoms: C_10  and  C_35
REMARK    7  A    between atoms: C_13  and  N_15
REMARK    8  A    between atoms: C_16  and  C_18
REMARK    9  A    between atoms: C_18  and  S_19
REMARK   10  A    between atoms: S_19  and  C_20
REMARK   11  A    between atoms: C_21  and  C_26
REMARK   12  A    between atoms: C_35  and  C_37
REMARK                            x       y       z     vdW  Elec       q    Type
REMARK                         _______ _______ _______ _____ _____    ______ ____
ROOT
ATOM      1  C   UNL     1       4.725   0.138   0.183  0.00  0.00    +0.171 C 
ENDROOT
BRANCH   1   3
ATOM      2  N   UNL     1       3.338  -0.434  -1.783  0.00  0.00    -0.302 N 
ATOM      3  C   UNL     1       4.496  -0.595  -1.114  0.00  0.00    +0.224 C 
ATOM      4  O   UNL     1       5.355  -1.329  -1.555  0.00  0.00    -0.275 OA
ATOM      5  H   UNL     1       2.651   0.154  -1.431  0.00  0.00    +0.150 HD
BRANCH   2  10
ATOM      6  C   UNL     1       1.705  -1.766  -3.077  0.00  0.00    +0.132 C 
ATOM      7  C   UNL     1       1.714  -3.294  -3.075  0.00  0.00    +0.022 C 
ATOM      8  C   UNL     1       2.986  -3.826  -3.792  0.00  0.00    +0.118 C 
ATOM      9  S   UNL     1       4.224  -2.607  -3.167  0.00  0.00    -0.126 S 
ATOM     10  C   UNL     1       3.115  -1.146  -3.044  0.00  0.00    +0.146 C 
ATOM     11  C   UNL     1       1.701  -3.797  -1.630  0.00  0.00    +0.010 C 
BRANCH   8  12
ATOM     12  C   UNL     1       3.321  -5.227  -3.348  0.00  0.00    +0.143 C 
ATOM     13  O   UNL     1       2.935  -6.173  -3.992  0.00  0.00    -0.297 OA
ATOM     14  C   UNL     1       4.138  -5.447  -2.101  0.00  0.00    +0.087 C 
ENDBRANCH   8  12
BRANCH   6  15
ATOM     15  C   UNL     1       0.938  -1.285  -1.872  0.00  0.00    +0.313 C 
ATOM     16  O   UNL     1       1.399  -1.430  -0.765  0.00  0.00    -0.250 OA
BRANCH  15  17
ATOM     17  O   UNL     1      -0.258  -0.696  -2.029  0.00  0.00    -0.465 OA
BRANCH  17  19
ATOM     18  C   UNL     1      -2.266   0.377  -1.219  0.00  0.00    +0.048 C 
ATOM     19  C   UNL     1      -0.929  -0.266  -0.843  0.00  0.00    +0.229 C 
ENDBRANCH  17  19
ENDBRANCH  15  17
ENDBRANCH   6  15
ENDBRANCH   2  10
ENDBRANCH   1   3
BRANCH   1  20
ATOM     20  S   UNL     1       6.364  -0.284   0.835  0.00  0.00    -0.096 S 
BRANCH  20  21
ATOM     21  C   UNL     1       6.478   0.639   2.332  0.00  0.00    +0.104 A 
ATOM     22  C   UNL     1       7.632   0.557   3.107  0.00  0.00    +0.027 A 
ATOM     23  C   UNL     1       7.708   1.286   4.279  0.00  0.00    +0.011 A 
ATOM     24  C   UNL     1       6.624   2.077   4.639  0.00  0.00    +0.020 A 
ATOM     25  C   UNL     1       5.511   2.111   3.823  0.00  0.00    +0.112 A 
ATOM     26  N   UNL     1       5.468   1.409   2.707  0.00  0.00    -0.248 NA
BRANCH  22  27
ATOM     27  C   UNL     1       8.782  -0.316   2.674  0.00  0.00    +0.208 C 
ATOM     28  N   UNL     1      10.027   0.143   3.304  0.00  0.00    -0.360 N 
ATOM     29  C   UNL     1      10.480  -0.836   4.032  0.00  0.00    +0.060 A 
ATOM     30  C   UNL     1      11.667  -0.980   4.886  0.00  0.00    +0.027 A 
ATOM     31  C   UNL     1      11.883  -2.141   5.535  0.00  0.00    +0.002 A 
ATOM     32  C   UNL     1      11.011  -3.240   5.434  0.00  0.00    +0.002 A 
ATOM     33  C   UNL     1       9.895  -3.214   4.679  0.00  0.00    +0.027 A 
ATOM     34  C   UNL     1       9.557  -1.999   3.925  0.00  0.00    +0.060 A 
ATOM     35  N   UNL     1       8.569  -1.694   3.134  0.00  0.00    -0.360 N 
ATOM     36  H   UNL     1      10.437   1.015   3.196  0.00  0.00    +0.162 HD
ATOM     37  H   UNL     1       7.828  -2.272   2.892  0.00  0.00    +0.162 HD
ENDBRANCH  22  27
ENDBRANCH  20  21
ENDBRANCH   1  20
TORSDOF 9
