REMARK  Name = ZINC20424969
REMARK  11 active torsions:
REMARK  status: ('A' for Active; 'I' for Inactive)
REMARK    1  A    between atoms: C_1  and  C_2
REMARK    2  A    between atoms: C_4  and  C_33
REMARK    3  A    between atoms: C_5  and  C_9
REMARK    4  A    between atoms: C_6  and  C_8
REMARK    5  A    between atoms: C_9  and  S_10
REMARK    6  A    between atoms: S_10  and  C_11
REMARK    7  A    between atoms: N_16  and  N_17
REMARK    8  A    between atoms: C_18  and  C_19
REMARK    9  A    between atoms: C_22  and  O_24
REMARK   10  A    between atoms: O_24  and  C_25
REMARK   11  A    between atoms: C_25  and  C_26
REMARK                            x       y       z     vdW  Elec       q    Type
REMARK                         _______ _______ _______ _____ _____    ______ ____
ROOT
ATOM      1  C   UNL     1       1.307  -0.408  -0.013  0.00  0.00    +0.210 A 
ATOM      2  N   UNL     1       0.002  -0.004   0.002  0.00  0.00    -0.186 NA
ATOM      3  C   UNL     1      -0.017   1.363   0.009  0.00  0.00    +0.232 A 
ATOM      4  N   UNL     1       1.225   1.785  -0.000  0.00  0.00    -0.245 N 
ATOM      5  N   UNL     1       2.063   0.663  -0.014  0.00  0.00    -0.144 NA
ATOM      6  N   UNL     1      -1.149   2.163   0.019  0.00  0.00    -0.205 N 
ATOM      7  H   UNL     1      -2.148   1.702   0.022  0.00  0.00    +0.177 HD
ATOM      8  H   UNL     1       1.439   2.864   0.004  0.00  0.00    +0.192 HD
ENDROOT
BRANCH   6   9
ATOM      9  N   UNL     1      -1.021   3.558   0.026  0.00  0.00    -0.184 NA
ATOM     10  C   UNL     1      -2.085   4.309   0.036  0.00  0.00    +0.176 C 
BRANCH  10  11
ATOM     11  C   UNL     1      -1.952   5.768   0.043  0.00  0.00    +0.151 A 
ATOM     12  C   UNL     1      -2.979   6.666   0.053  0.00  0.00    +0.055 A 
ATOM     13  C   UNL     1      -2.399   7.947   0.058  0.00  0.00    +0.091 A 
ATOM     14  C   UNL     1      -1.054   7.774   0.051  0.00  0.00    +0.287 A 
ATOM     15  O   UNL     1      -0.790   6.457   0.047  0.00  0.00    -0.424 OA
BRANCH  14  16
ATOM     16  O   UNL     1      -0.129   8.767   0.052  0.00  0.00    -0.459 OA
BRANCH  16  17
ATOM     17  C   UNL     1       1.245   8.373   0.044  0.00  0.00    +0.267 C 
BRANCH  17  18
ATOM     18  C   UNL     1       2.119   9.600   0.047  0.00  0.00    -0.010 A 
ATOM     19  C   UNL     1       2.519  10.166  -1.149  0.00  0.00    +0.010 A 
ATOM     20  C   UNL     1       3.317  11.294  -1.147  0.00  0.00    +0.039 A 
ATOM     21  C   UNL     1       3.725  11.851   0.053  0.00  0.00    +0.123 A 
ATOM     22  C   UNL     1       3.328  11.280   1.250  0.00  0.00    +0.039 A 
ATOM     23  C   UNL     1       2.526  10.155   1.246  0.00  0.00    +0.010 A 
ATOM     24  F   UNL     1       4.509  12.952   0.056  0.00  0.00    -0.205 F 
ENDBRANCH  17  18
ENDBRANCH  16  17
ENDBRANCH  14  16
ENDBRANCH  10  11
ENDBRANCH   6   9
BRANCH   1  25
ATOM     25  S   UNL     1       1.874  -2.077  -0.027  0.00  0.00    -0.080 S 
BRANCH  25  26
ATOM     26  C   UNL     1       3.682  -1.926  -0.043  0.00  0.00    +0.113 C 
BRANCH  26  31
ATOM     27  C   UNL     1       6.054  -7.195  -0.094  0.00  0.00    +0.044 C 
ATOM     28  C   UNL     1       5.436  -5.820  -0.081  0.00  0.00    -0.050 A 
ATOM     29  C   UNL     1       5.141  -5.184  -1.272  0.00  0.00    +0.007 A 
ATOM     30  C   UNL     1       4.573  -3.923  -1.260  0.00  0.00    -0.046 A 
ATOM     31  C   UNL     1       4.301  -3.300  -0.057  0.00  0.00    -0.031 A 
ATOM     32  C   UNL     1       4.601  -3.934   1.134  0.00  0.00    -0.046 A 
ATOM     33  C   UNL     1       5.165  -5.196   1.122  0.00  0.00    +0.007 A 
ATOM     34  C   UNL     1       4.310  -3.251   2.446  0.00  0.00    +0.044 C 
ATOM     35  C   UNL     1       4.251  -3.229  -2.558  0.00  0.00    +0.044 C 
ENDBRANCH  26  31
ENDBRANCH  25  26
ENDBRANCH   1  25
TORSDOF 8
