REMARK  Name = ZINC59403493
REMARK  5 active torsions:
REMARK  status: ('A' for Active; 'I' for Inactive)
REMARK    1  A    between atoms: C_1  and  C_2
REMARK    2  A    between atoms: C_7  and  C_8
REMARK    3  A    between atoms: N_10  and  N_11
REMARK    4  A    between atoms: C_15  and  C_23
REMARK    5  A    between atoms: N_16  and  C_17
REMARK                            x       y       z     vdW  Elec       q    Type
REMARK                         _______ _______ _______ _____ _____    ______ ____
ROOT
ATOM      1  N   UNL     1       0.573   0.036   4.838  0.00  0.00    -0.232 N 
ATOM      2  C   UNL     1       0.802  -0.660   6.013  0.00  0.00    +0.238 A 
ATOM      3  N   UNL     1       0.943  -1.960   6.134  0.00  0.00    -0.111 NA
ATOM      4  N   UNL     1       1.143  -2.271   7.364  0.00  0.00    -0.127 NA
ATOM      5  C   UNL     1       1.141  -1.188   8.107  0.00  0.00    +0.170 A 
ATOM      6  N   UNL     1       0.929  -0.121   7.263  0.00  0.00    -0.262 N 
ATOM      7  H   UNL     1       0.487   1.002   4.855  0.00  0.00    +0.173 HD
ENDROOT
BRANCH   6   8
ATOM      8  C   UNL     1       0.855   1.235   7.613  0.00  0.00    +0.051 A 
ATOM      9  C   UNL     1       1.973   1.885   8.116  0.00  0.00    +0.026 A 
ATOM     10  C   UNL     1       1.897   3.221   8.460  0.00  0.00    +0.002 A 
ATOM     11  C   UNL     1       0.708   3.910   8.304  0.00  0.00    +0.000 A 
ATOM     12  C   UNL     1      -0.407   3.265   7.803  0.00  0.00    +0.002 A 
ATOM     13  C   UNL     1      -0.336   1.931   7.452  0.00  0.00    +0.026 A 
ENDBRANCH   6   8
BRANCH   5  14
ATOM     14  C   UNL     1       1.338  -1.126   9.571  0.00  0.00    +0.020 A 
ATOM     15  C   UNL     1       1.001   0.031  10.274  0.00  0.00    +0.011 A 
ATOM     16  C   UNL     1       1.187   0.083  11.641  0.00  0.00    +0.001 A 
ATOM     17  C   UNL     1       1.705  -1.010  12.313  0.00  0.00    +0.000 A 
ATOM     18  C   UNL     1       2.041  -2.160  11.621  0.00  0.00    +0.001 A 
ATOM     19  C   UNL     1       1.855  -2.227  10.256  0.00  0.00    +0.011 A 
ENDBRANCH   5  14
BRANCH   1  22
ATOM     20  C   UNL     1       0.242   0.021   2.481  0.00  0.00    +0.260 C 
ATOM     21  O   UNL     1       0.135   1.232   2.502  0.00  0.00    -0.269 OA
ATOM     22  N   UNL     1       0.465  -0.656   3.624  0.00  0.00    -0.230 N 
ATOM     23  H   UNL     1       0.551  -1.622   3.607  0.00  0.00    +0.173 HD
BRANCH  20  30
ATOM     24  C   UNL     1      -0.511   1.453   0.082  0.00  0.00    +0.044 C 
ATOM     25  C   UNL     1      -0.234  -0.028   0.036  0.00  0.00    -0.037 A 
ATOM     26  C   UNL     1      -0.333  -0.713  -1.157  0.00  0.00    +0.019 A 
ATOM     27  C   UNL     1      -0.079  -2.074  -1.200  0.00  0.00    +0.018 A 
ATOM     28  C   UNL     1       0.276  -2.755  -0.048  0.00  0.00    +0.016 A 
ATOM     29  C   UNL     1       0.378  -2.081   1.151  0.00  0.00    +0.014 A 
ATOM     30  C   UNL     1       0.128  -0.708   1.200  0.00  0.00    +0.041 A 
ATOM     31 BR   UNL     1      -0.218  -3.006  -2.840  0.00  0.00    -0.050 Br
ENDBRANCH  20  30
ENDBRANCH   1  22
TORSDOF 4
