REMARK  Name = ZINC39674971
REMARK  7 active torsions:
REMARK  status: ('A' for Active; 'I' for Inactive)
REMARK    1  A    between atoms: C_1  and  C_2
REMARK    2  A    between atoms: C_4  and  C_32
REMARK    3  A    between atoms: N_5  and  C_7
REMARK    4  A    between atoms: C_7  and  C_8
REMARK    5  A    between atoms: C_8  and  N_9
REMARK    6  A    between atoms: C_10  and  C_12
REMARK    7  A    between atoms: C_23  and  C_25
REMARK                            x       y       z     vdW  Elec       q    Type
REMARK                         _______ _______ _______ _____ _____    ______ ____
ROOT
ATOM      1  C   UNL     1       2.470  -7.135   4.304  0.00  0.00    +0.100 C 
ATOM      2  C   UNL     1       1.772  -8.109   3.329  0.00  0.00    +0.121 C 
ATOM      3  N   UNL     1       2.881  -8.814   2.645  0.00  0.00    -0.296 N 
ATOM      4  C   UNL     1       3.885  -9.044   3.711  0.00  0.00    +0.115 C 
ATOM      5  C   UNL     1       3.856  -7.754   4.555  0.00  0.00    -0.004 C 
ATOM      6  C   UNL     1       4.952  -6.799   4.095  0.00  0.00    -0.010 C 
ATOM      7  C   UNL     1       6.321  -7.412   4.407  0.00  0.00    -0.082 C 
ATOM      8  N   UNL     1       6.431  -7.657   5.850  0.00  0.00    +0.379 N 
ATOM      9  C   UNL     1       5.432  -8.648   6.268  0.00  0.00    -0.082 C 
ATOM     10  C   UNL     1       4.026  -8.087   6.034  0.00  0.00    -0.010 C 
ATOM     11  C   UNL     1       2.960  -9.167   1.347  0.00  0.00    +0.247 C 
ATOM     12  O   UNL     1       2.107  -8.796   0.563  0.00  0.00    -0.270 OA
ATOM     13  H   UNL     1       7.355  -8.004   6.061  0.00  0.00    -0.086 HD
ATOM     14  H   UNL     1       6.277  -6.794   6.349  0.00  0.00    -0.086 HD
ENDROOT
BRANCH  11  15
ATOM     15  C   UNL     1       4.082 -10.004   0.875  0.00  0.00    +0.037 A 
ATOM     16  C   UNL     1       4.804 -10.783   1.781  0.00  0.00    +0.014 A 
ATOM     17  C   UNL     1       5.851 -11.563   1.335  0.00  0.00    +0.016 A 
ATOM     18  C   UNL     1       6.186 -11.573  -0.009  0.00  0.00    +0.018 A 
ATOM     19  C   UNL     1       5.474 -10.803  -0.912  0.00  0.00    +0.016 A 
ATOM     20  C   UNL     1       4.422 -10.024  -0.479  0.00  0.00    +0.014 A 
ATOM     21 BR   UNL     1       7.623 -12.644  -0.612  0.00  0.00    -0.050 Br
ENDBRANCH  11  15
BRANCH   1  23
ATOM     22  N   UNL     1       2.736  -4.681   4.455  0.00  0.00    -0.313 N 
ATOM     23  C   UNL     1       2.610  -5.773   3.675  0.00  0.00    +0.218 C 
ATOM     24  O   UNL     1       2.610  -5.660   2.468  0.00  0.00    -0.275 OA
ATOM     25  H   UNL     1       2.736  -4.771   5.420  0.00  0.00    +0.149 HD
BRANCH  22  26
ATOM     26  C   UNL     1       2.872  -3.356   3.843  0.00  0.00    +0.127 C 
BRANCH  26  27
ATOM     27  C   UNL     1       2.998  -2.298   4.941  0.00  0.00    +0.162 C 
BRANCH  27  32
ATOM     28  C   UNL     1       5.053   1.821   2.941  0.00  0.00    +0.067 C 
ATOM     29  C   UNL     1       4.054   0.819   3.458  0.00  0.00    +0.060 A 
ATOM     30  C   UNL     1       2.664   0.977   3.469  0.00  0.00    +0.047 A 
ATOM     31  C   UNL     1       2.123  -0.139   4.010  0.00  0.00    +0.036 A 
ATOM     32  N   UNL     1       3.134  -0.974   4.330  0.00  0.00    -0.267 N 
ATOM     33  N   UNL     1       4.336  -0.352   3.969  0.00  0.00    -0.176 NA
ATOM     34  C   UNL     1       0.653  -0.403   4.217  0.00  0.00    +0.065 C 
ENDBRANCH  27  32
ENDBRANCH  26  27
ENDBRANCH  22  26
ENDBRANCH   1  23
TORSDOF 5
