REMARK  Name = ZINC40223901
REMARK  11 active torsions:
REMARK  status: ('A' for Active; 'I' for Inactive)
REMARK    1  A    between atoms: C_8  and  C_26
REMARK    2  A    between atoms: N_9  and  C_10
REMARK    3  A    between atoms: C_10  and  C_11
REMARK    4  A    between atoms: N_13  and  C_14
REMARK    5  A    between atoms: N_13  and  C_20
REMARK    6  A    between atoms: C_26  and  C_27
REMARK    7  A    between atoms: C_27  and  C_28
REMARK    8  A    between atoms: C_28  and  C_29
REMARK    9  A    between atoms: C_29  and  C_30
REMARK   10  A    between atoms: C_30  and  N_31
REMARK   11  A    between atoms: C_32  and  C_34
REMARK                            x       y       z     vdW  Elec       q    Type
REMARK                         _______ _______ _______ _____ _____    ______ ____
ROOT
ATOM      1  C   UNL     1       0.692   2.497  -0.469  0.00  0.00    +0.002 A 
ATOM      2  C   UNL     1       2.026   2.877  -0.517  0.00  0.00    +0.002 A 
ATOM      3  C   UNL     1       3.025   1.935  -0.392  0.00  0.00    +0.028 A 
ATOM      4  C   UNL     1       2.693   0.599  -0.217  0.00  0.00    +0.069 A 
ATOM      5  C   UNL     1       1.342   0.215  -0.168  0.00  0.00    +0.089 A 
ATOM      6  C   UNL     1       0.346   1.187  -0.297  0.00  0.00    +0.030 A 
ATOM      7  N   UNL     1       1.320  -1.131   0.009  0.00  0.00    -0.232 NA
ATOM      8  C   UNL     1       2.538  -1.585   0.070  0.00  0.00    +0.111 A 
ATOM      9  N   UNL     1       3.425  -0.562  -0.064  0.00  0.00    -0.319 N 
ENDROOT
BRANCH   9  10
ATOM     10  C   UNL     1       4.885  -0.671  -0.048  0.00  0.00    +0.219 C 
BRANCH  10  11
ATOM     11  C   UNL     1       5.385  -0.524   1.366  0.00  0.00    +0.236 C 
ATOM     12  O   UNL     1       4.602  -0.553   2.292  0.00  0.00    -0.274 OA
ATOM     13  N   UNL     1       6.702  -0.361   1.602  0.00  0.00    -0.294 N 
BRANCH  13  14
ATOM     14  C   UNL     1       7.207  -0.373   2.977  0.00  0.00    +0.076 C 
ATOM     15  C   UNL     1       6.879  -1.718   3.629  0.00  0.00    +0.022 C 
ATOM     16  C   UNL     1       7.407  -1.730   5.065  0.00  0.00    +0.002 C 
ATOM     17  C   UNL     1       6.746  -0.603   5.861  0.00  0.00    +0.000 C 
ATOM     18  C   UNL     1       7.074   0.742   5.209  0.00  0.00    +0.002 C 
ATOM     19  C   UNL     1       6.546   0.754   3.773  0.00  0.00    +0.022 C 
ENDBRANCH  13  14
BRANCH  13  20
ATOM     20  C   UNL     1       7.628  -0.171   0.483  0.00  0.00    +0.076 C 
ATOM     21  C   UNL     1       7.320   1.155  -0.215  0.00  0.00    +0.022 C 
ATOM     22  C   UNL     1       8.287   1.353  -1.384  0.00  0.00    +0.002 C 
ATOM     23  C   UNL     1       8.127   0.203  -2.380  0.00  0.00    +0.000 C 
ATOM     24  C   UNL     1       8.435  -1.123  -1.682  0.00  0.00    +0.002 C 
ATOM     25  C   UNL     1       7.468  -1.321  -0.513  0.00  0.00    +0.022 C 
ENDBRANCH  13  20
ENDBRANCH  10  11
ENDBRANCH   9  10
BRANCH   8  26
ATOM     26  C   UNL     1       2.912  -3.032   0.261  0.00  0.00    +0.074 C 
BRANCH  26  27
ATOM     27  C   UNL     1       3.040  -3.710  -1.105  0.00  0.00    +0.008 C 
BRANCH  27  28
ATOM     28  C   UNL     1       3.420  -5.179  -0.911  0.00  0.00    +0.002 C 
BRANCH  28  29
ATOM     29  C   UNL     1       3.548  -5.857  -2.276  0.00  0.00    +0.019 C 
BRANCH  29  30
ATOM     30  C   UNL     1       3.928  -7.327  -2.083  0.00  0.00    +0.104 C 
BRANCH  30  31
ATOM     31  N   UNL     1       4.051  -7.976  -3.390  0.00  0.00    -0.311 N 
ATOM     32  C   UNL     1       4.380  -9.281  -3.466  0.00  0.00    +0.251 C 
ATOM     33  O   UNL     1       4.574  -9.920  -2.449  0.00  0.00    -0.270 OA
ATOM     34  H   UNL     1       3.895  -7.467  -4.201  0.00  0.00    +0.149 HD
BRANCH  32  35
ATOM     35  C   UNL     1       4.503  -9.930  -4.775  0.00  0.00    +0.074 A 
ATOM     36  C   UNL     1       4.822 -11.247  -5.070  0.00  0.00    +0.021 A 
ATOM     37  C   UNL     1       4.862 -11.566  -6.406  0.00  0.00    +0.008 A 
ATOM     38  C   UNL     1       4.595 -10.602  -7.322  0.00  0.00    +0.046 A 
ATOM     39  S   UNL     1       4.273  -9.235  -6.400  0.00  0.00    -0.092 S 
ENDBRANCH  32  35
ENDBRANCH  30  31
ENDBRANCH  29  30
ENDBRANCH  28  29
ENDBRANCH  27  28
ENDBRANCH  26  27
ENDBRANCH   8  26
TORSDOF 11
