REMARK  Name = ZINC57956278
REMARK  11 active torsions:
REMARK  status: ('A' for Active; 'I' for Inactive)
REMARK    1  A    between atoms: C_1  and  C_2
REMARK    2  A    between atoms: C_8  and  N_10
REMARK    3  A    between atoms: C_11  and  C_13
REMARK    4  A    between atoms: C_13  and  C_15
REMARK    5  A    between atoms: C_13  and  O_16
REMARK    6  A    between atoms: O_16  and  C_17
REMARK    7  A    between atoms: C_17  and  C_19
REMARK    8  A    between atoms: C_22  and  S_25
REMARK    9  A    between atoms: S_25  and  N_28
REMARK   10  A    between atoms: N_28  and  C_29
REMARK   11  A    between atoms: N_28  and  C_30
REMARK                            x       y       z     vdW  Elec       q    Type
REMARK                         _______ _______ _______ _____ _____    ______ ____
ROOT
ATOM      1  C   UNL     1       1.657   1.925   7.931  0.00  0.00    +0.059 A 
ATOM      2  C   UNL     1       2.820   1.159   8.039  0.00  0.00    +0.017 A 
ATOM      3  C   UNL     1       3.691   1.378   9.085  0.00  0.00    +0.029 A 
ATOM      4  C   UNL     1       3.415   2.352  10.028  0.00  0.00    +0.106 A 
ATOM      5  C   UNL     1       2.264   3.114   9.928  0.00  0.00    +0.029 A 
ATOM      6  C   UNL     1       1.388   2.911   8.882  0.00  0.00    +0.017 A 
ENDROOT
BRANCH   4   7
ATOM      7  S   UNL     1       4.534   2.624  11.362  0.00  0.00    +0.061 S 
ATOM      8  O   UNL     1       3.779   3.217  12.410  0.00  0.00    -0.153 OA
ATOM      9  O   UNL     1       5.260   1.415  11.536  0.00  0.00    -0.153 OA
BRANCH   7  10
ATOM     10  N   UNL     1       5.625   3.764  10.861  0.00  0.00    -0.177 NA
ATOM     11  C   UNL     1       5.354   5.186  11.085  0.00  0.00    +0.132 C 
BRANCH  10  12
ATOM     12  C   UNL     1       6.862   3.350  10.194  0.00  0.00    +0.080 C 
ATOM     13  C   UNL     1       8.066   3.832  11.007  0.00  0.00    +0.020 C 
ATOM     14  C   UNL     1       9.358   3.400  10.311  0.00  0.00    +0.002 C 
ATOM     15  C   UNL     1       9.411   4.011   8.909  0.00  0.00    +0.000 C 
ATOM     16  C   UNL     1       8.208   3.529   8.097  0.00  0.00    +0.002 C 
ATOM     17  C   UNL     1       6.916   3.961   8.793  0.00  0.00    +0.020 C 
ENDBRANCH  10  12
ENDBRANCH   7  10
ENDBRANCH   4   7
BRANCH   1  18
ATOM     18  C   UNL     1       0.720   1.697   6.813  0.00  0.00    +0.340 C 
ATOM     19  O   UNL     1      -0.289   2.368   6.719  0.00  0.00    -0.245 OA
BRANCH  18  20
ATOM     20  O   UNL     1       0.983   0.745   5.896  0.00  0.00    -0.449 OA
BRANCH  20  21
ATOM     21  C   UNL     1       0.033   0.579   4.842  0.00  0.00    +0.259 C 
ATOM     22  C   UNL     1      -1.023  -0.445   5.263  0.00  0.00    +0.062 C 
BRANCH  21  24
ATOM     23  N   UNL     1       0.056  -0.038   2.447  0.00  0.00    -0.309 N 
ATOM     24  C   UNL     1       0.738   0.093   3.602  0.00  0.00    +0.254 C 
ATOM     25  O   UNL     1       1.919  -0.179   3.644  0.00  0.00    -0.272 OA
ATOM     26  H   UNL     1      -0.888   0.180   2.413  0.00  0.00    +0.149 HD
BRANCH  23  33
ATOM     27  C   UNL     1      -0.019   1.526   0.010  0.00  0.00    +0.009 C 
ATOM     28  C   UNL     1       0.002  -0.004   0.002  0.00  0.00    +0.006 C 
ATOM     29  C   UNL     1      -1.433  -0.534   0.013  0.00  0.00    +0.005 C 
ATOM     30  C   UNL     1      -1.413  -2.063   0.004  0.00  0.00    +0.000 C 
ATOM     31  C   UNL     1      -0.673  -2.570   1.244  0.00  0.00    +0.002 C 
ATOM     32  C   UNL     1       0.763  -2.041   1.233  0.00  0.00    +0.022 C 
ATOM     33  C   UNL     1       0.742  -0.511   1.242  0.00  0.00    +0.076 C 
ENDBRANCH  23  33
ENDBRANCH  21  24
ENDBRANCH  20  21
ENDBRANCH  18  20
ENDBRANCH   1  18
TORSDOF 8
