REMARK  Name = ZINC43092834
REMARK  10 active torsions:
REMARK  status: ('A' for Active; 'I' for Inactive)
REMARK    1  A    between atoms: C_1  and  C_2
REMARK    2  A    between atoms: C_2  and  C_3
REMARK    3  A    between atoms: C_3  and  C_5
REMARK    4  A    between atoms: C_3  and  N_23
REMARK    5  A    between atoms: C_5  and  C_7
REMARK    6  A    between atoms: C_5  and  N_14
REMARK    7  A    between atoms: N_14  and  C_15
REMARK    8  A    between atoms: N_14  and  C_17
REMARK    9  A    between atoms: C_15  and  C_16
REMARK   10  A    between atoms: C_17  and  C_18
REMARK                            x       y       z     vdW  Elec       q    Type
REMARK                         _______ _______ _______ _____ _____    ______ ____
ROOT
ATOM      1  C   UNL     1       0.618  -1.925  -1.281  0.00  0.00    +0.074 C 
ENDROOT
BRANCH   1   2
ATOM      2  C   UNL     1       1.397  -2.133  -2.554  0.00  0.00    -0.018 A 
ATOM      3  C   UNL     1       0.731  -2.252  -3.760  0.00  0.00    +0.006 A 
ATOM      4  C   UNL     1       1.445  -2.442  -4.928  0.00  0.00    +0.000 A 
ATOM      5  C   UNL     1       2.825  -2.513  -4.891  0.00  0.00    +0.001 A 
ATOM      6  C   UNL     1       3.491  -2.394  -3.687  0.00  0.00    +0.015 A 
ATOM      7  C   UNL     1       2.778  -2.199  -2.518  0.00  0.00    +0.022 A 
ATOM      8 BR   UNL     1       3.689  -2.029  -0.870  0.00  0.00    -0.050 Br
ENDBRANCH   1   2
BRANCH   1   9
ATOM      9  C   UNL     1       0.230  -0.451  -1.155  0.00  0.00    -0.053 C 
BRANCH   9  10
ATOM     10  N   UNL     1       1.444   0.377  -1.151  0.00  0.00    +0.381 N 
ATOM     11  H   UNL     1       1.951   0.235  -2.012  0.00  0.00    -0.090 HD
ATOM     12  H   UNL     1       1.188   1.349  -1.068  0.00  0.00    -0.090 HD
ATOM     13  H   UNL     1       2.026   0.115  -0.370  0.00  0.00    -0.090 HD
ENDBRANCH   9  10
BRANCH   9  15
ATOM     14  C   UNL     1      -1.017   1.216   0.227  0.00  0.00    +0.002 C 
ATOM     15  C   UNL     1      -0.539  -0.235   0.150  0.00  0.00    -0.018 C 
ENDBRANCH   9  15
ENDBRANCH   1   9
BRANCH   1  16
ATOM     16  N   UNL     1      -0.597  -2.751  -1.310  0.00  0.00    -0.293 NA
BRANCH  16  17
ATOM     17  C   UNL     1      -1.700  -2.041  -1.970  0.00  0.00    +0.082 C 
ATOM     18  C   UNL     1      -3.025  -2.724  -1.624  0.00  0.00    +0.020 C 
ENDBRANCH  16  17
BRANCH  16  19
ATOM     19  C   UNL     1      -0.340  -4.043  -1.958  0.00  0.00    +0.127 C 
BRANCH  19  20
ATOM     20  C   UNL     1       0.382  -4.953  -0.998  0.00  0.00    +0.004 A 
ATOM     21  C   UNL     1      -0.129  -5.883  -0.155  0.00  0.00    +0.012 A 
ATOM     22  C   UNL     1       0.733  -6.610   0.644  0.00  0.00    +0.008 A 
ATOM     23  C   UNL     1       2.065  -6.372   0.561  0.00  0.00    +0.045 A 
ATOM     24  S   UNL     1       2.134  -5.090  -0.680  0.00  0.00    -0.100 S 
ENDBRANCH  19  20
ENDBRANCH  16  19
ENDBRANCH   1  16
TORSDOF 8
