REMARK  Name = ZINC63383578
REMARK  12 active torsions:
REMARK  status: ('A' for Active; 'I' for Inactive)
REMARK    1  A    between atoms: C_1  and  C_2
REMARK    2  A    between atoms: C_2  and  C_3
REMARK    3  A    between atoms: C_3  and  C_5
REMARK    4  A    between atoms: C_3  and  C_6
REMARK    5  A    between atoms: C_6  and  C_8
REMARK    6  A    between atoms: C_6  and  N_16
REMARK    7  A    between atoms: N_10  and  C_11
REMARK    8  A    between atoms: C_11  and  C_12
REMARK    9  A    between atoms: C_12  and  C_13
REMARK   10  A    between atoms: C_13  and  O_14
REMARK   11  A    between atoms: O_14  and  C_15
REMARK   12  A    between atoms: C_17  and  C_19
REMARK                            x       y       z     vdW  Elec       q    Type
REMARK                         _______ _______ _______ _____ _____    ______ ____
ROOT
ATOM      1  C   UNL     1      -2.554  -3.471  -2.191  0.00  0.00    +0.167 C 
ATOM      2  C   UNL     1      -2.458  -4.864  -1.538  0.00  0.00    +0.065 C 
ATOM      3  C   UNL     1      -1.916  -5.809  -2.581  0.00  0.00    -0.034 C 
ATOM      4  C   UNL     1      -0.886  -6.647  -2.543  0.00  0.00    -0.001 A 
ATOM      5  C   UNL     1       0.029  -7.023  -1.453  0.00  0.00    +0.010 A 
ATOM      6  C   UNL     1       1.005  -7.915  -1.770  0.00  0.00    +0.001 A 
ATOM      7  C   UNL     1       1.160  -8.464  -3.047  0.00  0.00    +0.002 A 
ATOM      8  C   UNL     1       0.360  -8.182  -4.105  0.00  0.00    +0.026 A 
ATOM      9  C   UNL     1      -0.708  -7.262  -3.893  0.00  0.00    +0.043 A 
ATOM     10  N   UNL     1      -1.623  -6.833  -4.711  0.00  0.00    -0.375 N 
ATOM     11  C   UNL     1      -2.521  -5.942  -3.974  0.00  0.00    +0.131 C 
ATOM     12  C   UNL     1      -2.538  -4.532  -4.576  0.00  0.00    +0.134 C 
ATOM     13  N   UNL     1      -3.099  -3.625  -3.546  0.00  0.00    -0.276 N 
ATOM     14  C   UNL     1      -4.174  -2.997  -4.055  0.00  0.00    +0.248 C 
ATOM     15  O   UNL     1      -4.811  -2.134  -3.485  0.00  0.00    -0.270 OA
ATOM     16  C   UNL     1      -4.466  -3.505  -5.397  0.00  0.00    +0.042 A 
ATOM     17  C   UNL     1      -3.464  -4.464  -5.747  0.00  0.00    -0.013 A 
ATOM     18  C   UNL     1      -3.464  -5.124  -6.956  0.00  0.00    +0.006 A 
ATOM     19  C   UNL     1      -4.492  -4.816  -7.843  0.00  0.00    +0.000 A 
ATOM     20  C   UNL     1      -5.468  -3.891  -7.532  0.00  0.00    +0.001 A 
ATOM     21  C   UNL     1      -5.498  -3.194  -6.287  0.00  0.00    +0.013 A 
ATOM     22  H   UNL     1      -1.698  -7.064  -5.650  0.00  0.00    +0.160 HD
ENDROOT
BRANCH   1  24
ATOM     23  N   UNL     1      -0.484  -2.624  -1.134  0.00  0.00    -0.302 N 
ATOM     24  C   UNL     1      -1.182  -2.851  -2.264  0.00  0.00    +0.235 C 
ATOM     25  O   UNL     1      -0.706  -2.557  -3.340  0.00  0.00    -0.274 OA
ATOM     26  H   UNL     1      -0.865  -2.859  -0.273  0.00  0.00    +0.150 HD
BRANCH  23  27
ATOM     27  C   UNL     1       0.849  -2.021  -1.205  0.00  0.00    +0.162 C 
BRANCH  27  28
ATOM     28  C   UNL     1       1.645  -2.416   0.013  0.00  0.00    +0.234 C 
ATOM     29  O   UNL     1       1.147  -3.130   0.857  0.00  0.00    -0.274 OA
ATOM     30  N   UNL     1       2.909  -1.975   0.164  0.00  0.00    -0.314 N 
ATOM     31  H   UNL     1       3.308  -1.403  -0.511  0.00  0.00    +0.149 HD
BRANCH  30  32
ATOM     32  C   UNL     1       3.682  -2.358   1.347  0.00  0.00    +0.106 C 
BRANCH  32  33
ATOM     33  C   UNL     1       5.075  -1.729   1.273  0.00  0.00    +0.047 C 
BRANCH  33  34
ATOM     34  C   UNL     1       5.882  -2.130   2.509  0.00  0.00    +0.161 C 
BRANCH  34  35
ATOM     35  O   UNL     1       7.183  -1.542   2.440  0.00  0.00    -0.383 OA
ATOM     36  C   UNL     1       8.023  -1.855   3.553  0.00  0.00    +0.193 C 
ENDBRANCH  34  35
ENDBRANCH  33  34
ENDBRANCH  32  33
ENDBRANCH  30  32
ENDBRANCH  27  28
BRANCH  27  37
ATOM     37  C   UNL     1       0.718  -0.497  -1.257  0.00  0.00    +0.015 C 
ATOM     38  C   UNL     1      -0.089  -0.097  -2.493  0.00  0.00    +0.010 C 
BRANCH  37  40
ATOM     39  C   UNL     1      -0.019   1.526   0.010  0.00  0.00    +0.004 C 
ATOM     40  C   UNL     1       0.002  -0.004   0.002  0.00  0.00    +0.002 C 
ENDBRANCH  37  40
ENDBRANCH  27  37
ENDBRANCH  23  27
ENDBRANCH   1  24
TORSDOF 9
