REMARK  Name = ZINC39326683
REMARK  5 active torsions:
REMARK  status: ('A' for Active; 'I' for Inactive)
REMARK    1  A    between atoms: C_1  and  C_2
REMARK    2  A    between atoms: C_7  and  C_8
REMARK    3  A    between atoms: C_18  and  C_26
REMARK    4  A    between atoms: C_20  and  C_24
REMARK    5  A    between atoms: C_21  and  N_23
REMARK                            x       y       z     vdW  Elec       q    Type
REMARK                         _______ _______ _______ _____ _____    ______ ____
ROOT
ATOM      1  C   UNL     1       0.658   1.651   0.233  0.00  0.00    +0.109 C 
ATOM      2  C   UNL     1       0.614   0.144   0.255  0.00  0.00    +0.213 C 
ATOM      3  O   UNL     1       0.766  -0.451   1.301  0.00  0.00    -0.276 OA
ATOM      4  N   UNL     1       0.406  -0.541  -0.887  0.00  0.00    -0.293 N 
ATOM      5  C   UNL     1       0.224   0.157  -2.174  0.00  0.00    +0.147 C 
ATOM      6  C   UNL     1       1.291  -0.385  -3.101  0.00  0.00    +0.013 C 
ATOM      7  C   UNL     1       1.919   0.423  -3.975  0.00  0.00    +0.016 C 
ATOM      8  C   UNL     1       1.625  -1.821  -3.023  0.00  0.00    +0.136 C 
ATOM      9  C   UNL     1       1.203  -2.569  -2.005  0.00  0.00    +0.003 C 
ATOM     10  C   UNL     1       0.359  -2.005  -0.894  0.00  0.00    +0.143 C 
ATOM     11  C   UNL     1       1.569  -4.034  -1.932  0.00  0.00    +0.095 C 
ATOM     12  C   UNL     1       1.992  -4.538  -3.282  0.00  0.00    +0.098 C 
ATOM     13  C   UNL     1       2.372  -3.669  -4.253  0.00  0.00    +0.199 C 
ATOM     14  O   UNL     1       2.378  -2.346  -4.025  0.00  0.00    -0.441 OA
ENDROOT
BRANCH   7  15
ATOM     15  C   UNL     1       1.461   1.811  -4.155  0.00  0.00    -0.025 A 
ATOM     16  C   UNL     1       2.378   2.818  -4.467  0.00  0.00    +0.009 A 
ATOM     17  C   UNL     1       1.943   4.115  -4.635  0.00  0.00    +0.020 A 
ATOM     18  C   UNL     1       0.599   4.422  -4.496  0.00  0.00    +0.041 A 
ATOM     19  C   UNL     1      -0.316   3.429  -4.187  0.00  0.00    +0.020 A 
ATOM     20  C   UNL     1       0.105   2.126  -4.022  0.00  0.00    +0.009 A 
ATOM     21 CL   UNL     1       0.059   6.058  -4.709  0.00  0.00    -0.084 Cl
ENDBRANCH   7  15
BRANCH  11  22
ATOM     22  C   UNL     1       2.704  -4.216  -0.958  0.00  0.00    -0.035 A 
ATOM     23  C   UNL     1       3.909  -3.574  -1.174  0.00  0.00    +0.006 A 
ATOM     24  C   UNL     1       4.951  -3.740  -0.281  0.00  0.00    +0.020 A 
ATOM     25  C   UNL     1       4.787  -4.550   0.829  0.00  0.00    +0.041 A 
ATOM     26  C   UNL     1       3.581  -5.192   1.045  0.00  0.00    +0.020 A 
ATOM     27  C   UNL     1       2.538  -5.020   0.154  0.00  0.00    +0.006 A 
ATOM     28 CL   UNL     1       6.095  -4.760   1.951  0.00  0.00    -0.084 Cl
ENDBRANCH  11  22
BRANCH  13  29
ATOM     29  N   UNL     1       2.754  -4.148  -5.481  0.00  0.00    -0.328 N 
ATOM     30  H   UNL     1       2.751  -5.103  -5.651  0.00  0.00    +0.145 HD
ATOM     31  H   UNL     1       3.027  -3.532  -6.179  0.00  0.00    +0.145 HD
ENDBRANCH  13  29
BRANCH  12  32
ATOM     32  C   UNL     1       1.996  -5.945  -3.546  0.00  0.00    +0.101 C 
ATOM     33  N   UNL     1       1.999  -7.061  -3.756  0.00  0.00    -0.191 NA
ENDBRANCH  12  32
TORSDOF 4
