REMARK  Name = ZINC09913727
REMARK  4 active torsions:
REMARK  status: ('A' for Active; 'I' for Inactive)
REMARK    1  A    between atoms: C_14  and  C_15
REMARK    2  A    between atoms: N_16  and  N_17
REMARK    3  A    between atoms: C_18  and  C_20
REMARK    4  A    between atoms: C_20  and  C_21
REMARK                            x       y       z     vdW  Elec       q    Type
REMARK                         _______ _______ _______ _____ _____    ______ ____
ROOT
ATOM      1  N   UNL     1      -2.047   3.776   2.109  0.00  0.00    -0.207 N 
ATOM      2  C   UNL     1      -1.151   3.450   1.157  0.00  0.00    +0.234 C 
ATOM      3  O   UNL     1      -1.480   2.734   0.234  0.00  0.00    -0.274 OA
ATOM      4  H   UNL     1      -1.784   4.349   2.847  0.00  0.00    +0.177 HD
ENDROOT
BRANCH   1   6
ATOM      5  C   UNL     1      -4.223   3.603   2.954  0.00  0.00    +0.139 C 
ATOM      6  N   UNL     1      -3.358   3.288   2.034  0.00  0.00    -0.188 NA
BRANCH   5  20
ATOM      7  C   UNL     1      -8.520   4.346   5.611  0.00  0.00    +0.001 A 
ATOM      8  C   UNL     1      -7.216   4.835   5.689  0.00  0.00    +0.001 A 
ATOM      9  C   UNL     1      -6.253   4.442   4.813  0.00  0.00    +0.009 A 
ATOM     10  C   UNL     1      -6.570   3.520   3.800  0.00  0.00    -0.009 A 
ATOM     11  C   UNL     1      -7.939   3.010   3.712  0.00  0.00    -0.017 A 
ATOM     12  C   UNL     1      -8.893   3.464   4.648  0.00  0.00    +0.008 A 
ATOM     13  C   UNL     1      -8.286   2.089   2.722  0.00  0.00    +0.017 A 
ATOM     14  C   UNL     1      -7.326   1.655   1.807  0.00  0.00    -0.017 A 
ATOM     15  C   UNL     1      -7.653   0.724   0.797  0.00  0.00    +0.008 A 
ATOM     16  C   UNL     1      -6.695   0.322  -0.078  0.00  0.00    +0.001 A 
ATOM     17  C   UNL     1      -5.389   0.805  -0.007  0.00  0.00    +0.001 A 
ATOM     18  C   UNL     1      -5.011   1.703   0.942  0.00  0.00    +0.009 A 
ATOM     19  C   UNL     1      -5.954   2.161   1.879  0.00  0.00    -0.009 A 
ATOM     20  C   UNL     1      -5.595   3.092   2.876  0.00  0.00    +0.010 A 
ENDBRANCH   5  20
ENDBRANCH   1   6
BRANCH   2  21
ATOM     21  C   UNL     1       0.259   3.976   1.237  0.00  0.00    +0.130 C 
BRANCH  21  22
ATOM     22  C   UNL     1       1.030   3.561  -0.018  0.00  0.00    +0.177 C 
ATOM     23  C   UNL     1       1.051   2.046  -0.076  0.00  0.00    +0.254 C 
ATOM     24  O   UNL     1       1.524   1.390   0.830  0.00  0.00    -0.272 OA
ATOM     25  N   UNL     1       0.527   1.451  -1.169  0.00  0.00    -0.204 N 
ATOM     26  N   UNL     1      -0.016   2.201  -2.211  0.00  0.00    -0.164 NA
ATOM     27  C   UNL     1      -0.063   3.496  -2.220  0.00  0.00    +0.154 C 
ATOM     28  N   UNL     1       0.435   4.258  -1.167  0.00  0.00    -0.262 N 
ATOM     29  C   UNL     1       0.370   5.614  -1.208  0.00  0.00    +0.191 C 
ATOM     30  N   UNL     1      -0.146   6.267  -2.204  0.00  0.00    -0.239 NA
ATOM     31  C   UNL     1      -0.667   5.640  -3.294  0.00  0.00    +0.076 A 
ATOM     32  C   UNL     1      -0.652   4.230  -3.357  0.00  0.00    +0.042 A 
ATOM     33  C   UNL     1      -1.180   3.574  -4.461  0.00  0.00    +0.013 A 
ATOM     34  C   UNL     1      -1.720   4.310  -5.498  0.00  0.00    +0.001 A 
ATOM     35  C   UNL     1      -1.737   5.694  -5.441  0.00  0.00    +0.002 A 
ATOM     36  C   UNL     1      -1.217   6.362  -4.352  0.00  0.00    +0.028 A 
ATOM     37  H   UNL     1       0.529   0.483  -1.230  0.00  0.00    +0.177 HD
ENDBRANCH  21  22
ENDBRANCH   2  21
TORSDOF 4
