REMARK  Name = ZINC36892424
REMARK  11 active torsions:
REMARK  status: ('A' for Active; 'I' for Inactive)
REMARK    1  A    between atoms: C_1  and  C_2
REMARK    2  A    between atoms: C_5  and  C_39
REMARK    3  A    between atoms: N_8  and  S_10
REMARK    4  A    between atoms: S_10  and  C_13
REMARK    5  A    between atoms: C_17  and  C_19
REMARK    6  A    between atoms: N_21  and  C_22
REMARK    7  A    between atoms: C_22  and  C_24
REMARK    8  A    between atoms: C_22  and  C_35
REMARK    9  A    between atoms: C_24  and  C_25
REMARK   10  A    between atoms: C_35  and  O_37
REMARK   11  A    between atoms: O_37  and  C_38
REMARK                            x       y       z     vdW  Elec       q    Type
REMARK                         _______ _______ _______ _____ _____    ______ ____
ROOT
ATOM      1  C   UNL     1       3.189  -1.515   6.525  0.00  0.00    +0.245 C 
ATOM      2  O   UNL     1       2.420  -0.589   6.694  0.00  0.00    -0.270 OA
ATOM      3  N   UNL     1       4.232  -1.686   7.361  0.00  0.00    -0.298 N 
ATOM      4  H   UNL     1       4.846  -2.425   7.226  0.00  0.00    +0.150 HD
ENDROOT
BRANCH   1   9
ATOM      5  C   UNL     1       1.712  -3.159   3.488  0.00  0.00    +0.106 A 
ATOM      6  C   UNL     1       2.589  -4.213   3.299  0.00  0.00    +0.028 A 
ATOM      7  C   UNL     1       3.661  -4.390   4.155  0.00  0.00    +0.003 A 
ATOM      8  C   UNL     1       3.862  -3.518   5.205  0.00  0.00    +0.013 A 
ATOM      9  C   UNL     1       2.981  -2.454   5.402  0.00  0.00    +0.039 A 
ATOM     10  C   UNL     1       1.904  -2.277   4.531  0.00  0.00    +0.041 A 
BRANCH   5  11
ATOM     11  S   UNL     1       0.350  -2.942   2.392  0.00  0.00    +0.061 S 
ATOM     12  O   UNL     1      -0.630  -2.199   3.104  0.00  0.00    -0.153 OA
ATOM     13  O   UNL     1       0.077  -4.216   1.825  0.00  0.00    -0.153 OA
BRANCH  11  19
ATOM     14  C   UNL     1      -0.019   1.526   0.010  0.00  0.00    +0.009 C 
ATOM     15  C   UNL     1       0.002  -0.004   0.002  0.00  0.00    +0.002 C 
ATOM     16  C   UNL     1       0.720  -0.498  -1.256  0.00  0.00    +0.009 C 
ATOM     17  C   UNL     1       0.712  -2.028  -1.282  0.00  0.00    +0.002 C 
ATOM     18  C   UNL     1       1.463  -2.559  -0.057  0.00  0.00    +0.112 C 
ATOM     19  N   UNL     1       0.869  -1.973   1.153  0.00  0.00    -0.176 NA
ATOM     20  C   UNL     1       0.744  -0.512   1.242  0.00  0.00    +0.112 C 
ATOM     21  C   UNL     1       1.400  -2.521  -2.557  0.00  0.00    +0.009 C 
ENDBRANCH  11  19
ENDBRANCH   5  11
ENDBRANCH   1   9
BRANCH   3  22
ATOM     22  C   UNL     1       4.439  -0.756   8.474  0.00  0.00    +0.186 C 
BRANCH  22  23
ATOM     23  C   UNL     1       3.607  -1.191   9.653  0.00  0.00    +0.328 C 
ATOM     24  O   UNL     1       2.913  -2.177   9.573  0.00  0.00    -0.249 OA
BRANCH  23  25
ATOM     25  O   UNL     1       3.638  -0.484  10.794  0.00  0.00    -0.467 OA
ATOM     26  C   UNL     1       2.825  -0.954  11.871  0.00  0.00    +0.280 C 
ENDBRANCH  23  25
ENDBRANCH  22  23
BRANCH  22  27
ATOM     27  C   UNL     1       5.917  -0.751   8.867  0.00  0.00    +0.071 C 
BRANCH  27  28
ATOM     28  C   UNL     1       6.737  -0.199   7.729  0.00  0.00    -0.020 A 
ATOM     29  C   UNL     1       7.355  -0.910   6.772  0.00  0.00    +0.087 A 
ATOM     30  N   UNL     1       8.002  -0.068   5.910  0.00  0.00    -0.360 N 
ATOM     31  H   UNL     1       8.518  -0.349   5.138  0.00  0.00    +0.165 HD
ATOM     32  C   UNL     1       7.812   1.239   6.300  0.00  0.00    +0.047 A 
ATOM     33  C   UNL     1       7.006   1.214   7.453  0.00  0.00    +0.003 A 
ATOM     34  C   UNL     1       6.641   2.410   8.074  0.00  0.00    +0.010 A 
ATOM     35  C   UNL     1       7.066   3.601   7.556  0.00  0.00    +0.001 A 
ATOM     36  C   UNL     1       7.858   3.631   6.416  0.00  0.00    +0.002 A 
ATOM     37  C   UNL     1       8.238   2.462   5.793  0.00  0.00    +0.026 A 
ENDBRANCH  27  28
ENDBRANCH  22  27
ENDBRANCH   3  22
TORSDOF 8
