REMARK  Name = ZINC08770076
REMARK  12 active torsions:
REMARK  status: ('A' for Active; 'I' for Inactive)
REMARK    1  A    between atoms: C_1  and  C_2
REMARK    2  A    between atoms: C_13  and  C_14
REMARK    3  A    between atoms: C_13  and  O_15
REMARK    4  A    between atoms: N_21  and  O_22
REMARK    5  A    between atoms: O_22  and  C_23
REMARK    6  A    between atoms: C_23  and  C_24
REMARK    7  A    between atoms: N_26  and  C_27
REMARK    8  A    between atoms: C_27  and  C_29
REMARK    9  A    between atoms: C_27  and  C_35
REMARK   10  A    between atoms: C_35  and  O_37
REMARK   11  A    between atoms: O_37  and  C_38
REMARK   12  A    between atoms: C_41  and  C_42
REMARK                            x       y       z     vdW  Elec       q    Type
REMARK                         _______ _______ _______ _____ _____    ______ ____
ROOT
ATOM      1  C   UNL     1      -2.644  -0.026  -0.568  0.00  0.00    +0.014 C 
ATOM      2  C   UNL     1      -2.264   1.453  -0.698  0.00  0.00    -0.000 C 
ATOM      3  C   UNL     1      -3.161   2.133  -1.704  0.00  0.00    +0.010 C 
ATOM      4  C   UNL     1      -2.925   1.481  -3.085  0.00  0.00    +0.005 C 
ATOM      5  C   UNL     1      -1.480   1.639  -3.521  0.00  0.00    +0.006 C 
ATOM      6  C   UNL     1      -0.491   1.099  -2.482  0.00  0.00    -0.003 C 
ATOM      7  C   UNL     1      -0.797   1.649  -1.129  0.00  0.00    +0.001 C 
ATOM      8  C   UNL     1      -0.034   1.093   0.079  0.00  0.00    +0.007 C 
ATOM      9  C   UNL     1      -0.852   1.648   1.280  0.00  0.00    +0.035 C 
ATOM     10  C   UNL     1      -2.249   2.029   0.725  0.00  0.00    +0.069 C 
ATOM     11  C   UNL     1      -2.429   3.543   0.723  0.00  0.00    +0.042 C 
ATOM     12  C   UNL     1      -0.456  -0.424  -2.584  0.00  0.00    +0.008 C 
ATOM     13  C   UNL     1       0.361  -0.756  -3.840  0.00  0.00    +0.032 C 
ATOM     14  C   UNL     1      -0.137   0.058  -5.006  0.00  0.00    -0.058 C 
ATOM     15  C   UNL     1       0.371  -0.254  -6.208  0.00  0.00    +0.031 C 
ATOM     16  C   UNL     1       0.095   0.638  -7.363  0.00  0.00    +0.102 C 
ATOM     17  N   UNL     1       0.302   0.236  -8.599  0.00  0.00    -0.085 NA
ATOM     18  C   UNL     1      -0.424   2.000  -7.075  0.00  0.00    +0.027 C 
ATOM     19  C   UNL     1      -0.959   2.245  -5.875  0.00  0.00    -0.014 C 
ATOM     20  C   UNL     1      -1.175   1.120  -4.901  0.00  0.00    +0.011 C 
ATOM     21  C   UNL     1      -2.447   0.441  -5.412  0.00  0.00    +0.020 C 
ENDROOT
BRANCH  10  22
ATOM     22  O   UNL     1      -3.272   1.406   1.506  0.00  0.00    -0.388 OA
ATOM     23  H   UNL     1      -3.320   1.724   2.418  0.00  0.00    +0.210 HD
ENDBRANCH  10  22
BRANCH  17  24
ATOM     24  O   UNL     1       0.030   1.107  -9.681  0.00  0.00    -0.384 OA
BRANCH  24  25
ATOM     25  C   UNL     1       0.301   0.541 -10.965  0.00  0.00    +0.358 C 
BRANCH  25  26
ATOM     26  C   UNL     1      -0.022   1.549 -12.037  0.00  0.00    +0.254 C 
ATOM     27  O   UNL     1      -0.443   2.645 -11.732  0.00  0.00    -0.272 OA
ATOM     28  N   UNL     1       0.156   1.234 -13.335  0.00  0.00    -0.296 N 
ATOM     29  H   UNL     1       0.492   0.357 -13.580  0.00  0.00    +0.150 HD
BRANCH  28  30
ATOM     30  C   UNL     1      -0.159   2.214 -14.378  0.00  0.00    +0.213 C 
BRANCH  30  31
ATOM     31  C   UNL     1       0.652   1.913 -15.612  0.00  0.00    -0.017 A 
ATOM     32  C   UNL     1       0.848   0.603 -16.007  0.00  0.00    +0.006 A 
ATOM     33  C   UNL     1       1.588   0.326 -17.142  0.00  0.00    +0.000 A 
ATOM     34  C   UNL     1       2.140   1.360 -17.875  0.00  0.00    +0.000 A 
ATOM     35  C   UNL     1       1.948   2.670 -17.477  0.00  0.00    +0.000 A 
ATOM     36  C   UNL     1       1.204   2.946 -16.345  0.00  0.00    +0.006 A 
ENDBRANCH  30  31
BRANCH  30  37
ATOM     37  C   UNL     1      -1.626   2.140 -14.710  0.00  0.00    +0.332 C 
ATOM     38  O   UNL     1      -2.337   1.350 -14.136  0.00  0.00    -0.248 OA
BRANCH  37  39
ATOM     39  O   UNL     1      -2.144   2.953 -15.645  0.00  0.00    -0.466 OA
ATOM     40  C   UNL     1      -3.566   2.827 -15.914  0.00  0.00    +0.280 C 
ENDBRANCH  37  39
ENDBRANCH  30  37
ENDBRANCH  28  30
ENDBRANCH  25  26
ENDBRANCH  24  25
ENDBRANCH  17  24
TORSDOF 8
