REMARK  Name = ZINC02937311
REMARK  9 active torsions:
REMARK  status: ('A' for Active; 'I' for Inactive)
REMARK    1  A    between atoms: C_7  and  C_11
REMARK    2  A    between atoms: C_11  and  C_12
REMARK    3  A    between atoms: C_12  and  C_14
REMARK    4  A    between atoms: C_12  and  N_27
REMARK    5  A    between atoms: C_14  and  O_16
REMARK    6  A    between atoms: O_16  and  C_17
REMARK    7  A    between atoms: C_17  and  C_18
REMARK    8  A    between atoms: C_18  and  C_20
REMARK    9  A    between atoms: C_28  and  C_30
REMARK                            x       y       z     vdW  Elec       q    Type
REMARK                         _______ _______ _______ _____ _____    ______ ____
ROOT
ATOM      1  C   UNL     1      -0.887   1.682  -3.629  0.00  0.00    +0.187 C 
ENDROOT
BRANCH   1   2
ATOM      2  N   UNL     1       0.060   1.603  -4.744  0.00  0.00    -0.296 N 
ATOM      3  C   UNL     1       0.608   0.419  -5.081  0.00  0.00    +0.280 C 
ATOM      4  O   UNL     1       0.316  -0.586  -4.459  0.00  0.00    -0.267 OA
ATOM      5  H   UNL     1       0.293   2.404  -5.240  0.00  0.00    +0.150 HD
BRANCH   3   6
ATOM      6  C   UNL     1       1.555   0.340  -6.198  0.00  0.00    +0.189 A 
ATOM      7  C   UNL     1       2.180  -0.790  -6.642  0.00  0.00    +0.054 A 
ATOM      8  C   UNL     1       2.991  -0.405  -7.721  0.00  0.00    +0.042 A 
ATOM      9  C   UNL     1       2.828   0.926  -7.886  0.00  0.00    +0.196 A 
ATOM     10  O   UNL     1       1.958   1.371  -6.969  0.00  0.00    -0.458 OA
ENDBRANCH   3   6
ENDBRANCH   1   2
BRANCH   1  11
ATOM     11  C   UNL     1      -0.211   1.220  -2.363  0.00  0.00    +0.328 C 
ATOM     12  O   UNL     1       0.783   0.536  -2.424  0.00  0.00    -0.249 OA
BRANCH  11  13
ATOM     13  O   UNL     1      -0.715   1.567  -1.168  0.00  0.00    -0.455 OA
BRANCH  13  14
ATOM     14  C   UNL     1      -0.013   1.086   0.008  0.00  0.00    +0.311 C 
BRANCH  14  15
ATOM     15  C   UNL     1      -0.718   1.572   1.248  0.00  0.00    +0.200 C 
ATOM     16  O   UNL     1      -1.714   2.256   1.150  0.00  0.00    -0.288 OA
BRANCH  15  17
ATOM     17  C   UNL     1      -0.198   1.216   2.577  0.00  0.00    +0.021 A 
ATOM     18  C   UNL     1       0.948   0.422   2.694  0.00  0.00    +0.012 A 
ATOM     19  C   UNL     1       1.433   0.099   3.943  0.00  0.00    +0.016 A 
ATOM     20  C   UNL     1       0.782   0.547   5.081  0.00  0.00    +0.018 A 
ATOM     21  C   UNL     1      -0.357   1.328   4.973  0.00  0.00    +0.016 A 
ATOM     22  C   UNL     1      -0.850   1.665   3.730  0.00  0.00    +0.012 A 
ATOM     23 BR   UNL     1       1.451   0.090   6.789  0.00  0.00    -0.050 Br
ENDBRANCH  15  17
ENDBRANCH  14  15
ENDBRANCH  13  14
ENDBRANCH  11  13
ENDBRANCH   1  11
BRANCH   1  24
ATOM     24  C   UNL     1      -2.093   0.786  -3.919  0.00  0.00    +0.071 C 
BRANCH  24  31
ATOM     25  C   UNL     1      -1.564   0.230  -8.544  0.00  0.00    +0.001 A 
ATOM     26  C   UNL     1      -2.507   0.931  -9.284  0.00  0.00    +0.002 A 
ATOM     27  C   UNL     1      -3.469   1.691  -8.657  0.00  0.00    +0.026 A 
ATOM     28  C   UNL     1      -3.499   1.759  -7.268  0.00  0.00    +0.047 A 
ATOM     29  C   UNL     1      -2.542   1.047  -6.522  0.00  0.00    +0.003 A 
ATOM     30  C   UNL     1      -1.575   0.283  -7.178  0.00  0.00    +0.010 A 
ATOM     31  C   UNL     1      -2.839   1.322  -5.114  0.00  0.00    -0.020 A 
ATOM     32  C   UNL     1      -3.906   2.136  -5.090  0.00  0.00    +0.087 A 
ATOM     33  N   UNL     1      -4.311   2.412  -6.368  0.00  0.00    -0.360 N 
ATOM     34  H   UNL     1      -5.061   2.980  -6.604  0.00  0.00    +0.165 HD
ENDBRANCH  24  31
ENDBRANCH   1  24
TORSDOF 9
