REMARK  Name = ZINC19939361
REMARK  6 active torsions:
REMARK  status: ('A' for Active; 'I' for Inactive)
REMARK    1  A    between atoms: C_1  and  C_2
REMARK    2  A    between atoms: C_5  and  C_8
REMARK    3  A    between atoms: N_10  and  C_11
REMARK    4  A    between atoms: C_11  and  C_29
REMARK    5  A    between atoms: N_14  and  C_23
REMARK    6  A    between atoms: C_15  and  C_17
REMARK                            x       y       z     vdW  Elec       q    Type
REMARK                         _______ _______ _______ _____ _____    ______ ____
ROOT
ATOM      1  C   UNL     1      -0.165  -6.421   0.934  0.00  0.00    +0.302 C 
ATOM      2  C   UNL     1      -1.482  -7.037   0.507  0.00  0.00    +0.276 C 
ATOM      3  O   UNL     1      -2.127  -6.785  -0.488  0.00  0.00    -0.270 OA
ATOM      4  N   UNL     1      -1.783  -7.929   1.475  0.00  0.00    -0.249 N 
ATOM      5  C   UNL     1      -0.809  -7.935   2.447  0.00  0.00    +0.133 C 
ATOM      6  N   UNL     1       0.149  -7.097   2.203  0.00  0.00    -0.225 NA
ENDROOT
BRANCH   5   7
ATOM      7  C   UNL     1      -0.850  -8.807   3.643  0.00  0.00    +0.015 A 
ATOM      8  C   UNL     1      -1.300 -10.123   3.535  0.00  0.00    +0.011 A 
ATOM      9  C   UNL     1      -1.336 -10.930   4.653  0.00  0.00    +0.001 A 
ATOM     10  C   UNL     1      -0.928 -10.437   5.880  0.00  0.00    +0.000 A 
ATOM     11  C   UNL     1      -0.482  -9.132   5.993  0.00  0.00    +0.001 A 
ATOM     12  C   UNL     1      -0.435  -8.317   4.881  0.00  0.00    +0.011 A 
ENDBRANCH   5   7
BRANCH   4  13
ATOM     13  C   UNL     1      -2.981  -8.772   1.490  0.00  0.00    +0.083 C 
ATOM     14  C   UNL     1      -2.990  -9.667   0.250  0.00  0.00    +0.023 C 
ATOM     15  C   UNL     1      -4.241 -10.548   0.265  0.00  0.00    +0.002 C 
ATOM     16  C   UNL     1      -5.488  -9.662   0.263  0.00  0.00    +0.000 C 
ATOM     17  C   UNL     1      -5.480  -8.766   1.503  0.00  0.00    +0.002 C 
ATOM     18  C   UNL     1      -4.228  -7.885   1.488  0.00  0.00    +0.023 C 
ENDBRANCH   4  13
BRANCH   1  21
ATOM     19  C   UNL     1      -0.819  -4.204   0.162  0.00  0.00    +0.246 C 
ATOM     20  O   UNL     1      -1.075  -4.688  -0.924  0.00  0.00    -0.270 OA
ATOM     21  N   UNL     1      -0.316  -4.979   1.143  0.00  0.00    -0.273 N 
ATOM     22  H   UNL     1      -0.054  -4.582   1.989  0.00  0.00    +0.152 HD
BRANCH  19  27
ATOM     23  C   UNL     1      -1.758   1.394   1.109  0.00  0.00    +0.044 C 
ATOM     24  C   UNL     1      -1.512  -0.072   0.861  0.00  0.00    -0.050 A 
ATOM     25  C   UNL     1      -1.804  -0.620  -0.376  0.00  0.00    +0.004 A 
ATOM     26  C   UNL     1      -1.581  -1.961  -0.610  0.00  0.00    +0.013 A 
ATOM     27  C   UNL     1      -1.060  -2.766   0.405  0.00  0.00    +0.037 A 
ATOM     28  C   UNL     1      -0.768  -2.207   1.650  0.00  0.00    +0.013 A 
ATOM     29  C   UNL     1      -0.990  -0.863   1.869  0.00  0.00    +0.004 A 
ENDBRANCH  19  27
ENDBRANCH   1  21
BRANCH   1  30
ATOM     30  C   UNL     1       0.923  -6.699  -0.106  0.00  0.00    +0.440 C 
ATOM     31  F   UNL     1       2.145  -6.197   0.352  0.00  0.00    -0.166 F 
ATOM     32  F   UNL     1       1.032  -8.079  -0.308  0.00  0.00    -0.166 F 
ATOM     33  F   UNL     1       0.585  -6.076  -1.312  0.00  0.00    -0.166 F 
ENDBRANCH   1  30
TORSDOF 5
