REMARK  Name = ZINC57877014
REMARK  10 active torsions:
REMARK  status: ('A' for Active; 'I' for Inactive)
REMARK    1  A    between atoms: C_1  and  N_2
REMARK    2  A    between atoms: N_2  and  C_3
REMARK    3  A    between atoms: N_2  and  C_15
REMARK    4  A    between atoms: C_3  and  C_4
REMARK    5  A    between atoms: C_4  and  C_5
REMARK    6  A    between atoms: C_5  and  C_6
REMARK    7  A    between atoms: C_7  and  C_13
REMARK    8  A    between atoms: C_8  and  N_12
REMARK    9  A    between atoms: C_18  and  C_24
REMARK   10  A    between atoms: C_20  and  N_21
REMARK                            x       y       z     vdW  Elec       q    Type
REMARK                         _______ _______ _______ _____ _____    ______ ____
ROOT
ATOM      1  C   UNL     1      -0.018   1.461   0.010  0.00  0.00    +0.129 C 
ATOM      2  N   UNL     1       0.002  -0.004   0.002  0.00  0.00    -0.331 N 
ENDROOT
BRANCH   2   3
ATOM      3  C   UNL     1       0.000  -0.696  -1.211  0.00  0.00    +0.061 A 
ATOM      4  C   UNL     1       1.201  -1.029  -1.825  0.00  0.00    +0.046 A 
ATOM      5  C   UNL     1       1.195  -1.714  -3.025  0.00  0.00    +0.054 A 
ATOM      6  C   UNL     1      -0.006  -2.066  -3.616  0.00  0.00    +0.075 A 
ATOM      7  C   UNL     1      -1.202  -1.736  -3.008  0.00  0.00    +0.048 A 
ATOM      8  C   UNL     1      -1.203  -1.057  -1.804  0.00  0.00    +0.148 A 
ATOM      9 CL   UNL     1       2.695  -2.131  -3.793  0.00  0.00    -0.083 Cl
BRANCH   6  10
ATOM     10  C   UNL     1      -0.009  -2.812  -4.926  0.00  0.00    +0.419 C 
ATOM     11  F   UNL     1      -1.329  -3.054  -5.321  0.00  0.00    -0.166 F 
ATOM     12  F   UNL     1       0.636  -2.044  -5.901  0.00  0.00    -0.166 F 
ATOM     13  F   UNL     1       0.663  -4.029  -4.771  0.00  0.00    -0.166 F 
ENDBRANCH   6  10
BRANCH   8  14
ATOM     14  N   UNL     1      -2.485  -0.709  -1.151  0.00  0.00    +0.058 N 
ATOM     15  O   UNL     1      -3.531  -1.023  -1.668  0.00  0.00    -0.126 OA
ATOM     16  O   UNL     1      -2.485  -0.110  -0.101  0.00  0.00    -0.126 OA
ENDBRANCH   8  14
ENDBRANCH   2   3
BRANCH   2  17
ATOM     17  C   UNL     1       0.024  -0.743   1.267  0.00  0.00    +0.105 C 
BRANCH  17  18
ATOM     18  C   UNL     1      -1.411  -1.020   1.720  0.00  0.00    +0.025 C 
BRANCH  18  19
ATOM     19  C   UNL     1      -1.387  -1.792   3.041  0.00  0.00    +0.060 C 
BRANCH  19  20
ATOM     20  C   UNL     1      -2.800  -2.065   3.488  0.00  0.00    +0.082 A 
ATOM     21  C   UNL     1      -3.588  -1.224   4.308  0.00  0.00    +0.113 A 
ATOM     22  C   UNL     1      -4.819  -1.853   4.473  0.00  0.00    +0.129 A 
ATOM     23  N   UNL     1      -4.768  -3.012   3.785  0.00  0.00    -0.263 N 
ATOM     24  H   UNL     1      -5.484  -3.663   3.717  0.00  0.00    +0.190 HD
ATOM     25  N   UNL     1      -3.510  -3.115   3.182  0.00  0.00    -0.176 NA
BRANCH  22  26
ATOM     26  N   UNL     1      -5.892  -1.378   5.204  0.00  0.00    -0.342 N 
ATOM     27  H   UNL     1      -5.826  -0.527   5.665  0.00  0.00    +0.144 HD
ATOM     28  H   UNL     1      -6.710  -1.896   5.256  0.00  0.00    +0.144 HD
ENDBRANCH  22  26
BRANCH  21  29
ATOM     29  C   UNL     1      -3.194   0.036   4.864  0.00  0.00    +0.104 C 
ATOM     30  N   UNL     1      -2.881   1.035   5.304  0.00  0.00    -0.191 NA
ENDBRANCH  21  29
ENDBRANCH  19  20
ENDBRANCH  18  19
ENDBRANCH  17  18
ENDBRANCH   2  17
TORSDOF 9
