REMARK  Name = ZINC57637886
REMARK  2 active torsions:
REMARK  status: ('A' for Active; 'I' for Inactive)
REMARK    1  A    between atoms: C_6  and  C_7
REMARK    2  A    between atoms: N_13  and  C_14
REMARK                            x       y       z     vdW  Elec       q    Type
REMARK                         _______ _______ _______ _____ _____    ______ ____
ROOT
ATOM      1  C   UNL     1      -1.293  -0.775   0.011  0.00  0.00    +0.130 C 
ATOM      2  C   UNL     1      -1.573  -1.347   1.414  0.00  0.00    +0.133 C 
ATOM      3  N   UNL     1      -1.596  -2.802   1.204  0.00  0.00    -0.297 N 
ATOM      4  C   UNL     1      -1.372  -3.063  -0.091  0.00  0.00    +0.307 C 
ATOM      5  O   UNL     1      -1.337  -4.191  -0.543  0.00  0.00    -0.252 OA
ATOM      6  N   UNL     1      -1.190  -1.967  -0.845  0.00  0.00    -0.247 N 
ATOM      7  H   UNL     1      -1.750  -3.467   1.893  0.00  0.00    +0.150 HD
ENDROOT
BRANCH   1  13
ATOM      8  C   UNL     1      -0.017   1.378   0.010  0.00  0.00    +0.007 A 
ATOM      9  C   UNL     1       1.171   2.086   0.002  0.00  0.00    +0.020 A 
ATOM     10  C   UNL     1       2.378   1.410  -0.013  0.00  0.00    +0.041 A 
ATOM     11  C   UNL     1       2.396   0.027  -0.021  0.00  0.00    +0.020 A 
ATOM     12  C   UNL     1       1.208  -0.679  -0.013  0.00  0.00    +0.007 A 
ATOM     13  C   UNL     1       0.002  -0.004   0.002  0.00  0.00    -0.025 A 
ATOM     14 CL   UNL     1       3.870   2.298  -0.023  0.00  0.00    -0.084 Cl
ENDBRANCH   1  13
BRANCH   6  15
ATOM     15  C   UNL     1      -0.941  -1.958  -2.222  0.00  0.00    +0.039 A 
ATOM     16  C   UNL     1      -0.762  -0.752  -2.889  0.00  0.00    +0.025 A 
ATOM     17  C   UNL     1      -0.517  -0.746  -4.248  0.00  0.00    +0.022 A 
ATOM     18  C   UNL     1      -0.448  -1.939  -4.945  0.00  0.00    +0.041 A 
ATOM     19  C   UNL     1      -0.626  -3.142  -4.283  0.00  0.00    +0.022 A 
ATOM     20  C   UNL     1      -0.866  -3.154  -2.923  0.00  0.00    +0.025 A 
ATOM     21 CL   UNL     1      -0.139  -1.928  -6.654  0.00  0.00    -0.084 Cl
ENDBRANCH   6  15
TORSDOF 2
