REMARK  Name = ZINC63387451
REMARK  8 active torsions:
REMARK  status: ('A' for Active; 'I' for Inactive)
REMARK    1  A    between atoms: C_1  and  C_2
REMARK    2  A    between atoms: C_2  and  C_3
REMARK    3  A    between atoms: C_6  and  S_9
REMARK    4  A    between atoms: S_9  and  C_12
REMARK    5  A    between atoms: C_19  and  N_21
REMARK    6  A    between atoms: N_21  and  C_22
REMARK    7  A    between atoms: C_22  and  C_23
REMARK    8  A    between atoms: C_23  and  C_24
REMARK                            x       y       z     vdW  Elec       q    Type
REMARK                         _______ _______ _______ _____ _____    ______ ____
ROOT
ATOM      1  C   UNL     1      -6.703  -0.611   0.056  0.00  0.00    +0.175 C 
ATOM      2  C   UNL     1      -6.417   0.230  -1.220  0.00  0.00    +0.194 C 
ATOM      3  S   UNL     1      -7.964   1.237  -1.279  0.00  0.00    -0.028 S 
ATOM      4  O   UNL     1      -7.847   2.326  -0.374  0.00  0.00    -0.174 OA
ATOM      5  O   UNL     1      -8.309   1.484  -2.635  0.00  0.00    -0.174 OA
ATOM      6  C   UNL     1      -9.118  -0.013  -0.576  0.00  0.00    +0.186 C 
ATOM      7  C   UNL     1      -8.173  -1.028   0.094  0.00  0.00    +0.101 C 
ENDROOT
BRANCH   1   8
ATOM      8  S   UNL     1      -5.658  -2.093   0.045  0.00  0.00    +0.003 S 
ATOM      9  O   UNL     1      -5.799  -2.782  -1.190  0.00  0.00    -0.169 OA
ATOM     10  O   UNL     1      -5.779  -2.786   1.279  0.00  0.00    -0.169 OA
BRANCH   8  14
ATOM     11  C   UNL     1      -1.412  -0.526   0.013  0.00  0.00    -0.048 A 
ATOM     12  C   UNL     1      -2.051  -0.766   1.215  0.00  0.00    +0.005 A 
ATOM     13  C   UNL     1      -3.348  -1.244   1.225  0.00  0.00    +0.027 A 
ATOM     14  C   UNL     1      -4.006  -1.482   0.032  0.00  0.00    +0.089 A 
ATOM     15  C   UNL     1      -3.367  -1.241  -1.170  0.00  0.00    +0.027 A 
ATOM     16  C   UNL     1      -2.072  -0.758  -1.179  0.00  0.00    +0.005 A 
BRANCH  11  18
ATOM     17  C   UNL     1      -0.019   1.526   0.010  0.00  0.00    +0.009 C 
ATOM     18  C   UNL     1       0.002  -0.004   0.002  0.00  0.00    +0.032 C 
ENDBRANCH  11  18
ENDBRANCH   8  14
ENDBRANCH   1   8
BRANCH   7  19
ATOM     19  N   UNL     1      -8.579  -1.193   1.496  0.00  0.00    -0.310 NA
ATOM     20  H   UNL     1      -7.803  -1.498   2.064  0.00  0.00    +0.122 HD
BRANCH  19  21
ATOM     21  C   UNL     1      -9.712  -2.120   1.611  0.00  0.00    +0.085 C 
BRANCH  21  22
ATOM     22  C   UNL     1     -10.106  -2.266   3.082  0.00  0.00    +0.048 C 
BRANCH  22  23
ATOM     23  C   UNL     1     -11.268  -3.217   3.199  0.00  0.00    -0.040 C 
ATOM     24  C   UNL     1     -11.211  -4.543   3.463  0.00  0.00    -0.001 A 
ATOM     25  C   UNL     1     -10.091  -5.460   3.709  0.00  0.00    +0.010 A 
ATOM     26  C   UNL     1     -10.353  -6.765   3.950  0.00  0.00    +0.001 A 
ATOM     27  C   UNL     1     -11.664  -7.262   3.969  0.00  0.00    +0.002 A 
ATOM     28  C   UNL     1     -12.743  -6.481   3.752  0.00  0.00    +0.026 A 
ATOM     29  C   UNL     1     -12.585  -5.093   3.489  0.00  0.00    +0.043 A 
ATOM     30  N   UNL     1     -13.458  -4.144   3.251  0.00  0.00    -0.380 N 
ATOM     31  C   UNL     1     -12.736  -2.883   3.052  0.00  0.00    +0.144 C 
ATOM     32  H   UNL     1     -14.421  -4.257   3.216  0.00  0.00    +0.160 HD
ENDBRANCH  22  23
ENDBRANCH  21  22
ENDBRANCH  19  21
ENDBRANCH   7  19
TORSDOF 7
