REMARK  Name = ZINC15089391
REMARK  8 active torsions:
REMARK  status: ('A' for Active; 'I' for Inactive)
REMARK    1  A    between atoms: C_1  and  C_2
REMARK    2  A    between atoms: C_5  and  N_9
REMARK    3  A    between atoms: C_6  and  C_8
REMARK    4  A    between atoms: C_10  and  S_14
REMARK    5  A    between atoms: S_14  and  C_15
REMARK    6  A    between atoms: C_15  and  C_17
REMARK    7  A    between atoms: C_15  and  C_18
REMARK    8  A    between atoms: N_20  and  C_21
REMARK                            x       y       z     vdW  Elec       q    Type
REMARK                         _______ _______ _______ _____ _____    ______ ____
ROOT
ATOM      1  S   UNL     1       0.092   2.254   0.023  0.00  0.00    -0.072 S 
ENDROOT
BRANCH   1   3
ATOM      2  N   UNL     1       2.518   3.547  -0.457  0.00  0.00    -0.187 N 
ATOM      3  C   UNL     1       1.836   2.408  -0.179  0.00  0.00    +0.215 A 
ATOM      4  N   UNL     1       2.723   1.441  -0.083  0.00  0.00    -0.101 NA
ATOM      5  N   UNL     1       3.906   1.893  -0.289  0.00  0.00    -0.022 NA
ATOM      6  N   UNL     1       3.869   3.161  -0.520  0.00  0.00    -0.038 NA
BRANCH   2  11
ATOM      7  C   UNL     1       0.381   8.752  -1.204  0.00  0.00    +0.044 C 
ATOM      8  C   UNL     1       0.949   7.370  -1.006  0.00  0.00    -0.050 A 
ATOM      9  C   UNL     1       0.381   6.291  -1.658  0.00  0.00    +0.005 A 
ATOM     10  C   UNL     1       0.902   5.024  -1.482  0.00  0.00    +0.028 A 
ATOM     11  C   UNL     1       1.990   4.833  -0.642  0.00  0.00    +0.073 A 
ATOM     12  C   UNL     1       2.558   5.918   0.011  0.00  0.00    -0.025 A 
ATOM     13  C   UNL     1       2.036   7.184  -0.172  0.00  0.00    +0.008 A 
ATOM     14  C   UNL     1       3.744   5.716   0.920  0.00  0.00    +0.046 C 
ENDBRANCH   2  11
ENDBRANCH   1   3
BRANCH   1  15
ATOM     15  C   UNL     1      -0.030   0.480   0.362  0.00  0.00    +0.137 C 
ATOM     16  C   UNL     1       0.414  -0.307  -0.872  0.00  0.00    +0.029 C 
BRANCH  15  17
ATOM     17  C   UNL     1      -1.457   0.130   0.696  0.00  0.00    +0.230 C 
ATOM     18  O   UNL     1      -2.364   0.823   0.285  0.00  0.00    -0.274 OA
ATOM     19  N   UNL     1      -1.726  -0.955   1.450  0.00  0.00    -0.283 N 
ATOM     20  H   UNL     1      -1.007  -1.547   1.722  0.00  0.00    +0.155 HD
BRANCH  19  21
ATOM     21  C   UNL     1      -3.043  -1.226   1.841  0.00  0.00    +0.052 A 
ATOM     22  C   UNL     1      -4.104  -0.807   1.049  0.00  0.00    +0.026 A 
ATOM     23  C   UNL     1      -5.402  -1.077   1.437  0.00  0.00    +0.022 A 
ATOM     24  C   UNL     1      -5.646  -1.764   2.613  0.00  0.00    +0.042 A 
ATOM     25  C   UNL     1      -4.591  -2.183   3.405  0.00  0.00    +0.041 A 
ATOM     26  C   UNL     1      -3.290  -1.921   3.018  0.00  0.00    +0.064 A 
ATOM     27 CL   UNL     1      -1.966  -2.454   4.008  0.00  0.00    -0.082 Cl
ATOM     28 CL   UNL     1      -7.279  -2.100   3.097  0.00  0.00    -0.083 Cl
ENDBRANCH  19  21
ENDBRANCH  15  17
ENDBRANCH   1  15
TORSDOF 5
