REMARK  Name = ZINC07177999
REMARK  7 active torsions:
REMARK  status: ('A' for Active; 'I' for Inactive)
REMARK    1  A    between atoms: C_1  and  C_2
REMARK    2  A    between atoms: C_4  and  C_30
REMARK    3  A    between atoms: C_6  and  N_8
REMARK    4  A    between atoms: C_12  and  S_13
REMARK    5  A    between atoms: S_13  and  C_14
REMARK    6  A    between atoms: C_14  and  C_16
REMARK    7  A    between atoms: C_14  and  C_17
REMARK                            x       y       z     vdW  Elec       q    Type
REMARK                         _______ _______ _______ _____ _____    ______ ____
ROOT
ATOM      1  C   UNL     1       4.112  -1.187  -0.043  0.00  0.00    +0.137 C 
ATOM      2  C   UNL     1       3.600  -1.792   1.265  0.00  0.00    +0.029 C 
ENDROOT
BRANCH   1   3
ATOM      3  C   UNL     1       5.587  -1.465  -0.182  0.00  0.00    +0.233 C 
ATOM      4  O   UNL     1       6.396  -0.638   0.179  0.00  0.00    -0.274 OA
ATOM      5  N   UNL     1       6.005  -2.633  -0.709  0.00  0.00    -0.260 N 
ATOM      6  C   UNL     1       5.044  -3.652  -1.155  0.00  0.00    +0.209 C 
ATOM      7  C   UNL     1       5.533  -5.011  -0.725  0.00  0.00    +0.235 C 
ATOM      8  O   UNL     1       4.731  -5.893  -0.500  0.00  0.00    -0.274 OA
ATOM      9  N   UNL     1       6.849  -5.259  -0.586  0.00  0.00    -0.283 N 
ATOM     10  C   UNL     1       7.792  -4.246  -0.790  0.00  0.00    +0.055 A 
ATOM     11  C   UNL     1       7.373  -2.913  -0.854  0.00  0.00    +0.058 A 
ATOM     12  C   UNL     1       8.295  -1.904  -1.044  0.00  0.00    +0.025 A 
ATOM     13  C   UNL     1       9.637  -2.215  -1.183  0.00  0.00    +0.002 A 
ATOM     14  C   UNL     1      10.054  -3.532  -1.129  0.00  0.00    +0.002 A 
ATOM     15  C   UNL     1       9.137  -4.548  -0.932  0.00  0.00    +0.025 A 
ATOM     16  H   UNL     1       7.146  -6.149  -0.342  0.00  0.00    +0.155 HD
ENDBRANCH   1   3
BRANCH   1  17
ATOM     17  S   UNL     1       3.834   0.602  -0.031  0.00  0.00    -0.075 S 
BRANCH  17  22
ATOM     18  N   UNL     1       1.297   1.760  -0.001  0.00  0.00    -0.295 N 
ATOM     19  C   UNL     1      -0.016   1.340   0.009  0.00  0.00    +0.113 A 
ATOM     20  C   UNL     1       0.002  -0.004   0.002  0.00  0.00    +0.131 A 
ATOM     21  N   UNL     1       1.283  -0.411  -0.012  0.00  0.00    -0.230 NA
ATOM     22  C   UNL     1       2.072   0.638  -0.014  0.00  0.00    +0.174 A 
BRANCH  18  28
ATOM     23  C   UNL     1       4.203   5.239   1.907  0.00  0.00    +0.044 C 
ATOM     24  C   UNL     1       3.156   4.799   0.916  0.00  0.00    -0.048 A 
ATOM     25  C   UNL     1       2.640   5.706   0.008  0.00  0.00    +0.006 A 
ATOM     26  C   UNL     1       1.680   5.306  -0.903  0.00  0.00    -0.048 A 
ATOM     27  C   UNL     1       1.233   3.999  -0.908  0.00  0.00    +0.029 A 
ATOM     28  C   UNL     1       1.749   3.087   0.002  0.00  0.00    +0.049 A 
ATOM     29  C   UNL     1       2.709   3.492   0.919  0.00  0.00    +0.029 A 
ATOM     30  C   UNL     1       1.121   6.297  -1.891  0.00  0.00    +0.044 C 
ENDBRANCH  18  28
ENDBRANCH  17  22
ENDBRANCH   1  17
TORSDOF 4
