REMARK  Name = ZINC13176916
REMARK  12 active torsions:
REMARK  status: ('A' for Active; 'I' for Inactive)
REMARK    1  A    between atoms: C_1  and  C_2
REMARK    2  A    between atoms: C_3  and  C_30
REMARK    3  A    between atoms: C_4  and  C_29
REMARK    4  A    between atoms: C_7  and  C_8
REMARK    5  A    between atoms: C_8  and  C_10
REMARK    6  A    between atoms: C_10  and  S_11
REMARK    7  A    between atoms: S_11  and  C_12
REMARK    8  A    between atoms: N_22  and  C_23
REMARK    9  A    between atoms: C_23  and  C_24
REMARK   10  A    between atoms: C_24  and  C_25
REMARK   11  A    between atoms: C_30  and  O_32
REMARK   12  A    between atoms: O_32  and  C_33
REMARK                            x       y       z     vdW  Elec       q    Type
REMARK                         _______ _______ _______ _____ _____    ______ ____
ROOT
ATOM      1  C   UNL     1       0.092  -1.915   6.339  0.00  0.00    +0.173 A 
ATOM      2  N   UNL     1       0.109  -3.147   5.893  0.00  0.00    -0.223 NA
ATOM      3  C   UNL     1       0.132  -4.204   6.737  0.00  0.00    +0.080 A 
ATOM      4  C   UNL     1       0.151  -5.519   6.264  0.00  0.00    +0.048 A 
ATOM      5  C   UNL     1       0.175  -6.564   7.162  0.00  0.00    +0.043 A 
ATOM      6  C   UNL     1       0.181  -6.326   8.532  0.00  0.00    +0.021 A 
ATOM      7  C   UNL     1       0.163  -5.048   9.018  0.00  0.00    +0.017 A 
ATOM      8  C   UNL     1       0.138  -3.972   8.132  0.00  0.00    +0.065 A 
ATOM      9  C   UNL     1       0.118  -2.581   8.603  0.00  0.00    +0.262 A 
ATOM     10  O   UNL     1       0.123  -2.318   9.792  0.00  0.00    -0.267 OA
ATOM     11  N   UNL     1       0.101  -1.603   7.668  0.00  0.00    -0.287 N 
ATOM     12 CL   UNL     1       0.198  -8.198   6.575  0.00  0.00    -0.083 Cl
ENDROOT
BRANCH   1  13
ATOM     13  S   UNL     1       0.062  -0.598   5.168  0.00  0.00    -0.080 S 
BRANCH  13  14
ATOM     14  C   UNL     1       0.057  -1.440   3.561  0.00  0.00    +0.158 C 
BRANCH  14  15
ATOM     15  C   UNL     1       0.032  -0.415   2.457  0.00  0.00    +0.190 C 
ATOM     16  O   UNL     1       0.019   0.769   2.728  0.00  0.00    -0.290 OA
BRANCH  15  23
ATOM     17  C   UNL     1      -0.018   1.503   0.010  0.00  0.00    +0.047 C 
ATOM     18  C   UNL     1       0.002  -0.004   0.002  0.00  0.00    -0.008 A 
ATOM     19  C   UNL     1       0.008  -0.839  -1.136  0.00  0.00    +0.083 A 
ATOM     20  C   UNL     1       0.028  -2.147  -0.683  0.00  0.00    +0.028 A 
ATOM     21  N   UNL     1       0.034  -2.137   0.658  0.00  0.00    -0.355 N 
ATOM     22  H   UNL     1       0.048  -2.924   1.225  0.00  0.00    +0.166 HD
ATOM     23  C   UNL     1       0.024  -0.832   1.104  0.00  0.00    +0.087 A 
ATOM     24  C   UNL     1       0.040  -3.377  -1.553  0.00  0.00    +0.064 C 
BRANCH  19  25
ATOM     25  C   UNL     1      -0.004  -0.401  -2.542  0.00  0.00    +0.341 C 
ATOM     26  O   UNL     1       1.043  -0.205  -3.127  0.00  0.00    -0.245 OA
BRANCH  25  27
ATOM     27  O   UNL     1      -1.177  -0.216  -3.180  0.00  0.00    -0.464 OA
ATOM     28  C   UNL     1      -1.115   0.209  -4.542  0.00  0.00    +0.280 C 
ENDBRANCH  25  27
ENDBRANCH  19  25
ENDBRANCH  15  23
ENDBRANCH  14  15
ENDBRANCH  13  14
ENDBRANCH   1  13
BRANCH  11  29
ATOM     29  C   UNL     1       0.086  -0.199   8.086  0.00  0.00    +0.138 C 
BRANCH  29  30
ATOM     30  C   UNL     1      -1.361   0.271   8.246  0.00  0.00    +0.147 C 
BRANCH  30  31
ATOM     31  C   UNL     1      -1.376   1.715   8.675  0.00  0.00    +0.358 C 
ATOM     32  O   UNL     1      -0.326   2.313   8.838  0.00  0.00    -0.246 OA
ATOM     33  O   UNL     1      -2.438   2.285   8.860  0.00  0.00    -0.246 OA
ENDBRANCH  30  31
ENDBRANCH  29  30
ENDBRANCH  11  29
TORSDOF 9
