REMARK  Name = ZINC40824806
REMARK  4 active torsions:
REMARK  status: ('A' for Active; 'I' for Inactive)
REMARK    1  A    between atoms: C_1  and  C_2
REMARK    2  A    between atoms: C_6  and  C_7
REMARK    3  A    between atoms: C_17  and  C_19
REMARK    4  A    between atoms: N_24  and  N_25
REMARK                            x       y       z     vdW  Elec       q    Type
REMARK                         _______ _______ _______ _____ _____    ______ ____
ROOT
ATOM      1  C   UNL     1       0.978   0.344  -0.975  0.00  0.00    +0.048 C 
ATOM      2  C   UNL     1       0.833  -1.099  -0.564  0.00  0.00    +0.009 A 
ATOM      3  C   UNL     1       0.860  -2.218  -1.405  0.00  0.00    +0.042 A 
ATOM      4  C   UNL     1       0.688  -3.331  -0.615  0.00  0.00    +0.115 A 
ATOM      5  O   UNL     1       0.565  -2.925   0.646  0.00  0.00    -0.454 OA
ATOM      6  C   UNL     1       0.653  -1.577   0.704  0.00  0.00    +0.193 A 
ATOM      7  C   UNL     1       0.656  -4.732  -1.170  0.00  0.00    +0.075 C 
ATOM      8  C   UNL     1       0.323  -4.681  -2.663  0.00  0.00    +0.014 C 
ATOM      9  C   UNL     1       1.272  -3.728  -3.397  0.00  0.00    +0.058 C 
ATOM     10  C   UNL     1       1.033  -2.320  -2.871  0.00  0.00    +0.072 C 
ATOM     11  N   UNL     1       0.985  -1.285  -3.651  0.00  0.00    -0.175 NA
ENDROOT
BRANCH   6  12
ATOM     12  C   UNL     1       0.568  -0.764   1.922  0.00  0.00    +0.287 C 
ATOM     13  O   UNL     1       0.797   0.430   1.874  0.00  0.00    -0.266 OA
ATOM     14  N   UNL     1       0.235  -1.340   3.095  0.00  0.00    -0.262 N 
ATOM     15  C   UNL     1       0.098  -0.662   4.309  0.00  0.00    +0.040 A 
ATOM     16  C   UNL     1       0.262   0.696   4.588  0.00  0.00    +0.024 A 
ATOM     17  C   UNL     1       0.078   1.169   5.870  0.00  0.00    +0.002 A 
ATOM     18  C   UNL     1      -0.271   0.302   6.889  0.00  0.00    +0.000 A 
ATOM     19  C   UNL     1      -0.435  -1.044   6.620  0.00  0.00    +0.005 A 
ATOM     20  C   UNL     1      -0.252  -1.523   5.337  0.00  0.00    -0.024 A 
ATOM     21  C   UNL     1      -0.365  -2.922   4.776  0.00  0.00    +0.059 C 
ATOM     22  C   UNL     1      -0.041  -2.767   3.281  0.00  0.00    +0.083 C 
ATOM     23  C   UNL     1      -1.238  -3.192   2.428  0.00  0.00    +0.029 C 
ENDBRANCH   6  12
BRANCH  11  24
ATOM     24  N   UNL     1       1.157  -1.441  -5.033  0.00  0.00    -0.248 N 
ATOM     25  C   UNL     1       1.106  -0.348  -5.856  0.00  0.00    +0.187 C 
ATOM     26  N   UNL     1       1.269  -0.496  -7.170  0.00  0.00    -0.370 N 
ATOM     27  N   UNL     1       0.894   0.864  -5.343  0.00  0.00    -0.370 N 
ATOM     28  H   UNL     1       1.311  -2.322  -5.406  0.00  0.00    +0.192 HD
ATOM     29  H   UNL     1       1.424  -1.378  -7.544  0.00  0.00    +0.159 HD
ATOM     30  H   UNL     1       0.775   0.971  -4.387  0.00  0.00    +0.159 HD
ATOM     31  H   UNL     1       0.858   1.638  -5.927  0.00  0.00    +0.159 HD
ATOM     32  H   UNL     1       1.233   0.278  -7.754  0.00  0.00    +0.159 HD
ENDBRANCH  11  24
TORSDOF 2
