REMARK  Name = ZINC06737130
REMARK  7 active torsions:
REMARK  status: ('A' for Active; 'I' for Inactive)
REMARK    1  A    between atoms: C_1  and  C_2
REMARK    2  A    between atoms: C_7  and  N_8
REMARK    3  A    between atoms: C_9  and  C_11
REMARK    4  A    between atoms: C_12  and  N_26
REMARK    5  A    between atoms: C_23  and  C_24
REMARK    6  A    between atoms: C_23  and  C_25
REMARK    7  A    between atoms: C_23  and  N_51
REMARK                            x       y       z     vdW  Elec       q    Type
REMARK                         _______ _______ _______ _____ _____    ______ ____
ROOT
ATOM      1  C   UNL     1      -1.777   6.089   0.074  0.00  0.00    +0.097 A 
ATOM      2  C   UNL     1      -0.458   5.694   0.065  0.00  0.00    +0.053 A 
ATOM      3  C   UNL     1      -0.164   4.269   0.062  0.00  0.00    +0.029 A 
ATOM      4  C   UNL     1       1.095   3.623   0.052  0.00  0.00    +0.016 A 
ATOM      5  C   UNL     1       1.150   2.244   0.051  0.00  0.00    -0.042 A 
ATOM      6  C   UNL     1      -0.019   1.503   0.063  0.00  0.00    +0.042 A 
ATOM      7  N   UNL     1      -1.194   2.113   0.077  0.00  0.00    -0.244 NA
ATOM      8  C   UNL     1      -1.296   3.422   0.071  0.00  0.00    +0.111 A 
ATOM      9  S   UNL     1      -2.670   4.547   0.081  0.00  0.00    -0.062 S 
ATOM     10  C   UNL     1       0.001  -0.005   0.067  0.00  0.00    +0.037 C 
ATOM     11  C   UNL     1       1.380  -0.509  -0.359  0.00  0.00    -0.072 C 
ATOM     12  C   UNL     1       2.506   1.585   0.035  0.00  0.00    -0.041 C 
ATOM     13  N   UNL     1       2.390   0.183   0.469  0.00  0.00    +0.384 N 
ATOM     14  H   UNL     1       2.092   0.159   1.451  0.00  0.00    -0.081 HD
ENDROOT
BRANCH   1  16
ATOM     15  N   UNL     1      -3.632   7.603   0.088  0.00  0.00    -0.281 N 
ATOM     16  C   UNL     1      -2.299   7.407   0.078  0.00  0.00    +0.257 C 
ATOM     17  O   UNL     1      -1.542   8.361   0.072  0.00  0.00    -0.269 OA
ATOM     18  H   UNL     1      -4.234   6.847   0.011  0.00  0.00    +0.155 HD
BRANCH  15  25
ATOM     19  C   UNL     1      -6.240   8.111  -0.929  0.00  0.00    +0.045 C 
ATOM     20  C   UNL     1      -5.416   9.190  -0.275  0.00  0.00    -0.029 A 
ATOM     21  C   UNL     1      -5.922  10.469  -0.154  0.00  0.00    +0.005 A 
ATOM     22  C   UNL     1      -5.166  11.459   0.446  0.00  0.00    +0.000 A 
ATOM     23  C   UNL     1      -3.902  11.172   0.928  0.00  0.00    +0.002 A 
ATOM     24  C   UNL     1      -3.393   9.893   0.816  0.00  0.00    +0.023 A 
ATOM     25  C   UNL     1      -4.147   8.898   0.208  0.00  0.00    +0.037 A 
ENDBRANCH  15  25
ENDBRANCH   1  16
BRANCH  13  26
ATOM     26  C   UNL     1       3.699  -0.496   0.346  0.00  0.00    -0.074 C 
ATOM     27  C   UNL     1       4.758   0.318   1.092  0.00  0.00    -0.014 C 
ATOM     28  C   UNL     1       3.596  -1.891   0.967  0.00  0.00    -0.014 C 
ENDBRANCH  13  26
BRANCH   2  29
ATOM     29  N   UNL     1       0.566   6.631   0.057  0.00  0.00    -0.356 N 
ATOM     30  H   UNL     1       1.491   6.338   0.051  0.00  0.00    +0.142 HD
ATOM     31  H   UNL     1       0.357   7.578   0.059  0.00  0.00    +0.142 HD
ENDBRANCH   2  29
TORSDOF 4
