REMARK  Name = ZINC08735062
REMARK  10 active torsions:
REMARK  status: ('A' for Active; 'I' for Inactive)
REMARK    1  A    between atoms: C_1  and  C_2
REMARK    2  A    between atoms: C_2  and  C_3
REMARK    3  A    between atoms: C_3  and  C_4
REMARK    4  A    between atoms: C_4  and  C_5
REMARK    5  A    between atoms: C_5  and  C_6
REMARK    6  A    between atoms: C_6  and  N_7
REMARK    7  A    between atoms: C_16  and  C_18
REMARK    8  A    between atoms: C_23  and  C_26
REMARK    9  A    between atoms: C_29  and  N_32
REMARK   10  A    between atoms: C_33  and  C_35
REMARK                            x       y       z     vdW  Elec       q    Type
REMARK                         _______ _______ _______ _____ _____    ______ ____
ROOT
ATOM      1  C   UNL     1      -0.511  -1.739   4.700  0.00  0.00    +0.270 C 
ATOM      2  O   UNL     1       0.118  -2.304   5.574  0.00  0.00    -0.268 OA
ATOM      3  N   UNL     1      -1.526  -2.375   4.082  0.00  0.00    -0.259 N 
ATOM      4  C   UNL     1      -1.854  -3.675   4.444  0.00  0.00    +0.165 A 
ATOM      5  N   UNL     1      -2.801  -4.461   3.966  0.00  0.00    -0.225 NA
ATOM      6  C   UNL     1      -2.976  -5.688   4.433  0.00  0.00    +0.080 A 
ATOM      7  C   UNL     1      -2.160  -6.150   5.428  0.00  0.00    +0.076 A 
ATOM      8  S   UNL     1      -1.101  -4.730   5.674  0.00  0.00    -0.060 S 
ATOM      9  H   UNL     1      -2.028  -1.925   3.384  0.00  0.00    +0.157 HD
ENDROOT
BRANCH   1  19
ATOM     10  N   UNL     1      -0.596   1.453   2.982  0.00  0.00    -0.228 N 
ATOM     11  C   UNL     1       0.387   2.221   3.493  0.00  0.00    +0.275 A 
ATOM     12  O   UNL     1       0.574   3.351   3.079  0.00  0.00    -0.266 OA
ATOM     13  C   UNL     1       1.224   1.666   4.565  0.00  0.00    +0.050 A 
ATOM     14  C   UNL     1       2.260   2.378   5.161  0.00  0.00    +0.014 A 
ATOM     15  C   UNL     1       3.004   1.783   6.158  0.00  0.00    +0.001 A 
ATOM     16  C   UNL     1       2.729   0.485   6.569  0.00  0.00    +0.001 A 
ATOM     17  C   UNL     1       1.707  -0.238   5.991  0.00  0.00    +0.011 A 
ATOM     18  C   UNL     1       0.945   0.344   4.984  0.00  0.00    +0.020 A 
ATOM     19  C   UNL     1      -0.162  -0.358   4.315  0.00  0.00    +0.154 A 
ATOM     20  N   UNL     1      -0.835   0.258   3.373  0.00  0.00    -0.163 NA
BRANCH  10  21
ATOM     21  C   UNL     1      -1.432   2.013   1.917  0.00  0.00    +0.147 C 
BRANCH  21  22
ATOM     22  C   UNL     1      -0.803   1.700   0.558  0.00  0.00    +0.023 C 
BRANCH  22  23
ATOM     23  C   UNL     1      -1.676   2.286  -0.554  0.00  0.00    +0.002 C 
BRANCH  23  24
ATOM     24  C   UNL     1      -1.048   1.973  -1.914  0.00  0.00    -0.000 C 
BRANCH  24  26
ATOM     25  C   UNL     1      -1.292   2.246  -4.385  0.00  0.00    +0.004 C 
ATOM     26  C   UNL     1      -1.921   2.559  -3.026  0.00  0.00    -0.003 C 
ENDBRANCH  24  26
ENDBRANCH  23  24
ENDBRANCH  22  23
ENDBRANCH  21  22
ENDBRANCH  10  21
ENDBRANCH   1  19
BRANCH   6  27
ATOM     27  C   UNL     1      -4.046  -6.554   3.880  0.00  0.00    +0.001 A 
ATOM     28  C   UNL     1      -4.221  -7.847   4.371  0.00  0.00    +0.012 A 
ATOM     29  C   UNL     1      -5.220  -8.648   3.859  0.00  0.00    +0.024 A 
ATOM     30  C   UNL     1      -6.045  -8.171   2.848  0.00  0.00    +0.033 A 
ATOM     31  C   UNL     1      -5.870  -6.884   2.354  0.00  0.00    +0.024 A 
ATOM     32  C   UNL     1      -4.875  -6.077   2.866  0.00  0.00    +0.012 A 
BRANCH  30  33
ATOM     33  N   UNL     1      -7.055  -8.987   2.327  0.00  0.00    -0.286 N 
ATOM     34  C   UNL     1      -7.394  -8.892   1.026  0.00  0.00    +0.214 C 
ATOM     35  O   UNL     1      -6.761  -8.169   0.285  0.00  0.00    -0.276 OA
ATOM     36  C   UNL     1      -8.559  -9.684   0.491  0.00  0.00    +0.109 C 
ATOM     37  H   UNL     1      -7.511  -9.622   2.902  0.00  0.00    +0.155 HD
ENDBRANCH  30  33
ENDBRANCH   6  27
TORSDOF 8
