REMARK  Name = ZINC14678465
REMARK  9 active torsions:
REMARK  status: ('A' for Active; 'I' for Inactive)
REMARK    1  A    between atoms: C_1  and  N_2
REMARK    2  A    between atoms: N_2  and  C_3
REMARK    3  A    between atoms: C_8  and  C_9
REMARK    4  A    between atoms: N_11  and  C_12
REMARK    5  A    between atoms: C_12  and  C_13
REMARK    6  A    between atoms: C_18  and  C_20
REMARK    7  A    between atoms: C_20  and  S_21
REMARK    8  A    between atoms: S_21  and  C_22
REMARK    9  A    between atoms: N_26  and  C_27
REMARK                            x       y       z     vdW  Elec       q    Type
REMARK                         _______ _______ _______ _____ _____    ______ ____
ROOT
ATOM      1  C   UNL     1      -0.018   1.461   0.010  0.00  0.00    +0.138 C 
ATOM      2  N   UNL     1       0.002  -0.004   0.002  0.00  0.00    -0.273 N 
ATOM      3  C   UNL     1       0.000  -0.672  -1.169  0.00  0.00    +0.230 C 
ATOM      4  O   UNL     1       0.017  -1.884  -1.175  0.00  0.00    -0.274 OA
ENDROOT
BRANCH   2   5
ATOM      5  C   UNL     1       0.023  -0.707   1.204  0.00  0.00    +0.048 A 
ATOM      6  C   UNL     1      -1.167  -1.080   1.815  0.00  0.00    +0.024 A 
ATOM      7  C   UNL     1      -1.144  -1.777   3.006  0.00  0.00    +0.002 A 
ATOM      8  C   UNL     1       0.063  -2.109   3.602  0.00  0.00    +0.001 A 
ATOM      9  C   UNL     1       1.254  -1.746   3.010  0.00  0.00    +0.015 A 
ATOM     10  C   UNL     1       1.246  -1.046   1.801  0.00  0.00    +0.058 A 
BRANCH  10  11
ATOM     11  C   UNL     1       2.517  -0.660   1.160  0.00  0.00    +0.246 C 
ATOM     12  O   UNL     1       2.507  -0.046   0.110  0.00  0.00    -0.270 OA
ATOM     13  N   UNL     1       3.690  -0.988   1.737  0.00  0.00    -0.304 N 
ATOM     14  H   UNL     1       3.699  -1.478   2.574  0.00  0.00    +0.149 HD
BRANCH  13  15
ATOM     15  C   UNL     1       4.952  -0.605   1.100  0.00  0.00    +0.179 C 
BRANCH  15  16
ATOM     16  C   UNL     1       6.106  -1.087   1.940  0.00  0.00    +0.122 A 
ATOM     17  C   UNL     1       6.720  -2.278   1.825  0.00  0.00    +0.046 A 
ATOM     18  C   UNL     1       7.739  -2.311   2.804  0.00  0.00    +0.041 A 
ATOM     19  C   UNL     1       7.687  -1.138   3.460  0.00  0.00    +0.195 A 
ATOM     20  O   UNL     1       6.700  -0.398   2.929  0.00  0.00    -0.466 OA
ENDBRANCH  15  16
ENDBRANCH  13  15
ENDBRANCH  10  11
ENDBRANCH   2   5
BRANCH   3  21
ATOM     21  C   UNL     1      -0.023   0.089  -2.470  0.00  0.00    +0.173 C 
BRANCH  21  22
ATOM     22  S   UNL     1      -0.020  -1.082  -3.855  0.00  0.00    -0.075 S 
BRANCH  22  23
ATOM     23  C   UNL     1      -0.047  -0.052  -5.284  0.00  0.00    +0.210 A 
ATOM     24  N   UNL     1      -0.060   1.263  -5.300  0.00  0.00    -0.101 NA
ATOM     25  N   UNL     1      -0.079   1.698  -6.508  0.00  0.00    -0.022 NA
ATOM     26  N   UNL     1      -0.080   0.713  -7.339  0.00  0.00    -0.043 NA
ATOM     27  N   UNL     1      -0.054  -0.466  -6.574  0.00  0.00    -0.217 N 
BRANCH  27  28
ATOM     28  C   UNL     1      -0.039  -1.845  -7.066  0.00  0.00    +0.112 C 
ATOM     29  C   UNL     1      -1.293  -2.101  -7.904  0.00  0.00    +0.027 C 
ATOM     30  C   UNL     1      -1.278  -3.542  -8.418  0.00  0.00    +0.002 C 
ATOM     31  C   UNL     1      -0.034  -3.763  -9.280  0.00  0.00    +0.000 C 
ATOM     32  C   UNL     1       1.220  -3.507  -8.442  0.00  0.00    +0.002 C 
ATOM     33  C   UNL     1       1.205  -2.066  -7.928  0.00  0.00    +0.027 C 
ENDBRANCH  27  28
ENDBRANCH  22  23
ENDBRANCH  21  22
ENDBRANCH   3  21
TORSDOF 8
