REMARK  Name = ZINC60347297
REMARK  9 active torsions:
REMARK  status: ('A' for Active; 'I' for Inactive)
REMARK    1  A    between atoms: C_1  and  C_2
REMARK    2  A    between atoms: C_2  and  C_3
REMARK    3  A    between atoms: C_3  and  C_5
REMARK    4  A    between atoms: C_3  and  C_12
REMARK    5  A    between atoms: C_6  and  C_11
REMARK    6  A    between atoms: C_9  and  C_10
REMARK    7  A    between atoms: N_14  and  C_15
REMARK    8  A    between atoms: C_18  and  N_21
REMARK    9  A    between atoms: N_22  and  C_23
REMARK                            x       y       z     vdW  Elec       q    Type
REMARK                         _______ _______ _______ _____ _____    ______ ____
ROOT
ATOM      1  C   UNL     1      -0.542  -0.262   2.121  0.00  0.00    +0.225 C 
ATOM      2  O   UNL     1      -1.252  -1.152   2.538  0.00  0.00    -0.275 OA
ATOM      3  N   UNL     1      -0.486   0.917   2.771  0.00  0.00    -0.285 N 
ATOM      4  H   UNL     1       0.148   1.596   2.491  0.00  0.00    +0.155 HD
ENDROOT
BRANCH   3   5
ATOM      5  C   UNL     1      -1.341   1.163   3.846  0.00  0.00    +0.034 A 
ATOM      6  C   UNL     1      -1.756   0.110   4.657  0.00  0.00    +0.025 A 
ATOM      7  C   UNL     1      -2.599   0.348   5.719  0.00  0.00    +0.031 A 
ATOM      8  C   UNL     1      -3.039   1.649   5.983  0.00  0.00    +0.086 A 
ATOM      9  C   UNL     1      -2.620   2.704   5.165  0.00  0.00    +0.031 A 
ATOM     10  C   UNL     1      -1.772   2.459   4.109  0.00  0.00    +0.025 A 
BRANCH   8  11
ATOM     11  N   UNL     1      -3.875   1.889   7.034  0.00  0.00    -0.149 NA
ATOM     12  N   UNL     1      -4.280   3.090   7.276  0.00  0.00    -0.149 NA
BRANCH  12  13
ATOM     13  C   UNL     1      -5.118   3.329   8.329  0.00  0.00    +0.086 A 
ATOM     14  C   UNL     1      -5.533   2.277   9.150  0.00  0.00    +0.029 A 
ATOM     15  C   UNL     1      -6.378   2.527  10.211  0.00  0.00    +0.002 A 
ATOM     16  C   UNL     1      -6.815   3.816  10.463  0.00  0.00    +0.000 A 
ATOM     17  C   UNL     1      -6.409   4.862   9.655  0.00  0.00    +0.002 A 
ATOM     18  C   UNL     1      -5.558   4.629   8.594  0.00  0.00    +0.029 A 
ENDBRANCH  12  13
ENDBRANCH   8  11
ENDBRANCH   3   5
BRANCH   1  19
ATOM     19  C   UNL     1       0.279  -0.475   0.875  0.00  0.00    +0.110 C 
BRANCH  19  20
ATOM     20  C   UNL     1       0.123  -1.900   0.408  0.00  0.00    +0.029 A 
ATOM     21  C   UNL     1      -1.083  -2.517   0.030  0.00  0.00    +0.085 A 
ATOM     22  N   UNL     1      -0.818  -3.746  -0.311  0.00  0.00    -0.083 NA
ATOM     23  O   UNL     1       0.575  -3.950  -0.159  0.00  0.00    -0.359 OA
ATOM     24  C   UNL     1       1.115  -2.801   0.276  0.00  0.00    +0.138 A 
ATOM     25  C   UNL     1       2.574  -2.563   0.568  0.00  0.00    +0.089 C 
ATOM     26  C   UNL     1      -2.444  -1.869   0.021  0.00  0.00    +0.069 C 
ENDBRANCH  19  20
BRANCH  19  28
ATOM     27  C   UNL     1       0.780   0.441  -1.395  0.00  0.00    +0.005 C 
ATOM     28  C   UNL     1      -0.202   0.476  -0.222  0.00  0.00    +0.014 C 
ENDBRANCH  19  28
ENDBRANCH   1  19
TORSDOF 6
