REMARK  Name = ZINC19864040
REMARK  6 active torsions:
REMARK  status: ('A' for Active; 'I' for Inactive)
REMARK    1  A    between atoms: C_1  and  C_2
REMARK    2  A    between atoms: C_3  and  C_12
REMARK    3  A    between atoms: C_12  and  C_14
REMARK    4  A    between atoms: C_12  and  N_23
REMARK    5  A    between atoms: N_26  and  C_29
REMARK    6  A    between atoms: C_29  and  C_30
REMARK                            x       y       z     vdW  Elec       q    Type
REMARK                         _______ _______ _______ _____ _____    ______ ____
ROOT
ATOM      1  C   UNL     1       1.065  -2.585   4.937  0.00  0.00    +0.119 C 
ENDROOT
BRANCH   1   4
ATOM      2  C   UNL     1       1.133  -1.592   7.877  0.00  0.00    +0.063 C 
ATOM      3  C   UNL     1       2.291  -1.550   6.913  0.00  0.00    +0.019 A 
ATOM      4  C   UNL     1       2.252  -1.982   5.643  0.00  0.00    +0.002 A 
ATOM      5  C   UNL     1       3.580  -1.751   5.070  0.00  0.00    +0.005 A 
ATOM      6  C   UNL     1       4.151  -1.980   3.817  0.00  0.00    +0.010 A 
ATOM      7  C   UNL     1       5.455  -1.642   3.593  0.00  0.00    +0.001 A 
ATOM      8  C   UNL     1       6.219  -1.073   4.602  0.00  0.00    +0.002 A 
ATOM      9  C   UNL     1       5.677  -0.838   5.847  0.00  0.00    +0.026 A 
ATOM     10  C   UNL     1       4.350  -1.174   6.097  0.00  0.00    +0.047 A 
ATOM     11  N   UNL     1       3.538  -1.069   7.204  0.00  0.00    -0.358 N 
ATOM     12  H   UNL     1       3.756  -0.677   8.208  0.00  0.00    +0.166 HD
ENDBRANCH   1   4
BRANCH   1  13
ATOM     13  C   UNL     1       1.267  -4.071   4.793  0.00  0.00    -0.022 A 
ATOM     14  C   UNL     1       2.009  -4.567   3.736  0.00  0.00    +0.009 A 
ATOM     15  C   UNL     1       2.202  -5.929   3.602  0.00  0.00    +0.050 A 
ATOM     16  C   UNL     1       1.643  -6.802   4.521  0.00  0.00    +0.166 A 
ATOM     17  C   UNL     1       0.891  -6.303   5.582  0.00  0.00    +0.167 A 
ATOM     18  C   UNL     1       0.706  -4.937   5.713  0.00  0.00    +0.055 A 
ATOM     19  O   UNL     1       0.454  -7.352   6.338  0.00  0.00    -0.453 OA
ATOM     20  C   UNL     1       1.283  -8.468   5.964  0.00  0.00    +0.466 C 
ATOM     21  O   UNL     1       1.677  -8.164   4.613  0.00  0.00    -0.453 OA
ENDBRANCH   1  13
BRANCH   1  22
ATOM     22  N   UNL     1       0.926  -1.978   3.606  0.00  0.00    -0.295 NA
ATOM     23  C   UNL     1      -0.348  -2.362   2.982  0.00  0.00    +0.067 C 
ATOM     24  C   UNL     1      -0.419  -1.776   1.570  0.00  0.00    -0.063 C 
ATOM     25  N   UNL     1      -0.290  -0.314   1.642  0.00  0.00    +0.384 N 
ATOM     26  C   UNL     1       0.984   0.070   2.266  0.00  0.00    -0.063 C 
ATOM     27  C   UNL     1       1.054  -0.516   3.678  0.00  0.00    +0.067 C 
ATOM     28  H   UNL     1      -1.106   0.068   2.273  0.00  0.00    -0.081 HD
BRANCH  25  29
ATOM     29  C   UNL     1      -0.429   0.292   0.311  0.00  0.00    -0.043 C 
BRANCH  29  30
ATOM     30  C   UNL     1      -0.538   1.789   0.451  0.00  0.00    -0.064 A 
ATOM     31  C   UNL     1      -1.779   2.381   0.590  0.00  0.00    +0.002 A 
ATOM     32  C   UNL     1      -1.879   3.754   0.722  0.00  0.00    +0.000 A 
ATOM     33  C   UNL     1      -0.739   4.535   0.706  0.00  0.00    +0.000 A 
ATOM     34  C   UNL     1       0.502   3.943   0.561  0.00  0.00    +0.000 A 
ATOM     35  C   UNL     1       0.602   2.570   0.433  0.00  0.00    +0.002 A 
ENDBRANCH  29  30
ENDBRANCH  25  29
ENDBRANCH   1  22
TORSDOF 5
