REMARK  Name = ZINC39570408
REMARK  10 active torsions:
REMARK  status: ('A' for Active; 'I' for Inactive)
REMARK    1  A    between atoms: C_1  and  C_2
REMARK    2  A    between atoms: C_2  and  C_25
REMARK    3  A    between atoms: N_5  and  C_9
REMARK    4  A    between atoms: C_9  and  C_10
REMARK    5  A    between atoms: N_12  and  C_13
REMARK    6  A    between atoms: C_14  and  C_21
REMARK    7  A    between atoms: C_21  and  O_23
REMARK    8  A    between atoms: O_23  and  C_24
REMARK    9  A    between atoms: C_28  and  O_31
REMARK   10  A    between atoms: O_31  and  C_32
REMARK                            x       y       z     vdW  Elec       q    Type
REMARK                         _______ _______ _______ _____ _____    ______ ____
ROOT
ATOM      1  C   UNL     1      -0.019   1.526   0.010  0.00  0.00    +0.047 C 
ATOM      2  C   UNL     1       0.002  -0.004   0.002  0.00  0.00    +0.135 C 
ATOM      3  C   UNL     1       0.815  -0.520  -1.169  0.00  0.00    +0.251 C 
ATOM      4  O   UNL     1       0.595  -0.342  -2.348  0.00  0.00    -0.272 OA
ATOM      5  N   UNL     1       1.833  -1.217  -0.627  0.00  0.00    -0.215 N 
ATOM      6  C   UNL     1       1.777  -1.214   0.710  0.00  0.00    +0.310 C 
ATOM      7  O   UNL     1       2.586  -1.776   1.421  0.00  0.00    -0.252 OA
ATOM      8  N   UNL     1       0.724  -0.519   1.178  0.00  0.00    -0.281 N 
ATOM      9  H   UNL     1       0.487  -0.383   2.109  0.00  0.00    +0.152 HD
ENDROOT
BRANCH   2  10
ATOM     10  C   UNL     1      -1.401  -0.551  -0.040  0.00  0.00    -0.015 A 
ATOM     11  C   UNL     1      -2.004  -0.814  -1.256  0.00  0.00    +0.010 A 
ATOM     12  C   UNL     1      -3.290  -1.316  -1.298  0.00  0.00    +0.046 A 
ATOM     13  C   UNL     1      -3.978  -1.556  -0.117  0.00  0.00    +0.120 A 
ATOM     14  C   UNL     1      -3.371  -1.292   1.102  0.00  0.00    +0.046 A 
ATOM     15  C   UNL     1      -2.082  -0.796   1.138  0.00  0.00    +0.010 A 
BRANCH  13  16
ATOM     16  O   UNL     1      -5.244  -2.049  -0.155  0.00  0.00    -0.495 OA
ATOM     17  C   UNL     1      -5.891  -2.272   1.099  0.00  0.00    +0.277 C 
ENDBRANCH  13  16
ENDBRANCH   2  10
BRANCH   5  18
ATOM     18  C   UNL     1       2.871  -1.896  -1.406  0.00  0.00    +0.214 C 
BRANCH  18  19
ATOM     19  C   UNL     1       4.020  -0.950  -1.644  0.00  0.00    +0.236 C 
ATOM     20  O   UNL     1       3.975   0.180  -1.206  0.00  0.00    -0.274 OA
ATOM     21  N   UNL     1       5.097  -1.360  -2.343  0.00  0.00    -0.278 N 
ATOM     22  H   UNL     1       5.133  -2.264  -2.693  0.00  0.00    +0.155 HD
BRANCH  21  23
ATOM     23  C   UNL     1       6.153  -0.489  -2.562  0.00  0.00    +0.086 A 
ATOM     24  C   UNL     1       7.326  -0.732  -3.255  0.00  0.00    +0.091 A 
ATOM     25  C   UNL     1       8.290   0.364  -3.342  0.00  0.00    -0.021 A 
ATOM     26  C   UNL     1       7.899   1.490  -2.720  0.00  0.00    -0.004 A 
ATOM     27  S   UNL     1       6.301   1.102  -2.053  0.00  0.00    -0.077 S 
ATOM     28  C   UNL     1       8.928   2.582  -2.836  0.00  0.00    +0.043 C 
ATOM     29  C   UNL     1      10.223   1.854  -3.259  0.00  0.00    +0.010 C 
ATOM     30  C   UNL     1       9.665   0.601  -3.964  0.00  0.00    +0.037 C 
BRANCH  24  31
ATOM     31  C   UNL     1       7.590  -2.032  -3.874  0.00  0.00    +0.342 C 
ATOM     32  O   UNL     1       7.243  -2.240  -5.021  0.00  0.00    -0.245 OA
BRANCH  31  33
ATOM     33  O   UNL     1       8.219  -2.998  -3.174  0.00  0.00    -0.464 OA
ATOM     34  C   UNL     1       8.444  -4.241  -3.841  0.00  0.00    +0.280 C 
ENDBRANCH  31  33
ENDBRANCH  24  31
ENDBRANCH  21  23
ENDBRANCH  18  19
ENDBRANCH   5  18
TORSDOF 7
