REMARK  Name = ZINC35910280
REMARK  6 active torsions:
REMARK  status: ('A' for Active; 'I' for Inactive)
REMARK    1  A    between atoms: C_1  and  C_2
REMARK    2  A    between atoms: C_5  and  S_8
REMARK    3  A    between atoms: S_8  and  N_11
REMARK    4  A    between atoms: N_11  and  C_12
REMARK    5  A    between atoms: C_16  and  C_18
REMARK    6  A    between atoms: N_20  and  C_25
REMARK                            x       y       z     vdW  Elec       q    Type
REMARK                         _______ _______ _______ _____ _____    ______ ____
ROOT
ATOM      1  C   UNL     1       2.684  -4.923   0.808  0.00  0.00    +0.048 A 
ATOM      2  C   UNL     1       2.338  -3.718   1.409  0.00  0.00    +0.024 A 
ATOM      3  C   UNL     1       2.926  -3.350   2.603  0.00  0.00    +0.002 A 
ATOM      4  C   UNL     1       3.859  -4.179   3.200  0.00  0.00    +0.006 A 
ATOM      5  C   UNL     1       4.205  -5.377   2.605  0.00  0.00    -0.015 A 
ATOM      6  C   UNL     1       3.616  -5.755   1.414  0.00  0.00    +0.030 A 
ENDROOT
BRANCH   5   7
ATOM      7  C   UNL     1       5.223  -6.276   3.260  0.00  0.00    +0.170 C 
ATOM      8  N   UNL     1       6.155  -5.499   4.098  0.00  0.00    -0.254 N 
ATOM      9  C   UNL     1       6.426  -5.920   5.327  0.00  0.00    +0.231 C 
ATOM     10  O   UNL     1       7.191  -5.311   6.045  0.00  0.00    -0.274 OA
ATOM     11  C   UNL     1       5.743  -7.192   5.802  0.00  0.00    +0.167 C 
ATOM     12  S   UNL     1       4.430  -7.370   4.516  0.00  0.00    -0.124 S 
BRANCH   8  13
ATOM     13  C   UNL     1       6.748  -4.331   3.602  0.00  0.00    +0.038 A 
ATOM     14  C   UNL     1       6.574  -3.126   4.270  0.00  0.00    +0.026 A 
ATOM     15  C   UNL     1       7.159  -1.975   3.780  0.00  0.00    +0.040 A 
ATOM     16  C   UNL     1       7.918  -2.022   2.623  0.00  0.00    +0.124 A 
ATOM     17  C   UNL     1       8.093  -3.223   1.955  0.00  0.00    +0.040 A 
ATOM     18  C   UNL     1       7.515  -4.377   2.446  0.00  0.00    +0.026 A 
ATOM     19  F   UNL     1       8.489  -0.895   2.144  0.00  0.00    -0.205 F 
ENDBRANCH   8  13
ENDBRANCH   5   7
BRANCH   1  20
ATOM     20  N   UNL     1       2.091  -5.298  -0.399  0.00  0.00    -0.216 N 
ATOM     21  H   UNL     1       2.595  -5.241  -1.226  0.00  0.00    +0.174 HD
BRANCH  20  22
ATOM     22  S   UNL     1       0.526  -5.840  -0.419  0.00  0.00    +0.072 S 
ATOM     23  O   UNL     1       0.233  -6.186  -1.766  0.00  0.00    -0.150 OA
ATOM     24  O   UNL     1      -0.242  -4.891   0.308  0.00  0.00    -0.150 OA
BRANCH  22  29
ATOM     25  C   UNL     1       0.372 -10.973   2.749  0.00  0.00    +0.044 C 
ATOM     26  C   UNL     1       0.410  -9.691   1.958  0.00  0.00    -0.050 A 
ATOM     27  C   UNL     1       0.275  -8.476   2.603  0.00  0.00    +0.005 A 
ATOM     28  C   UNL     1       0.310  -7.300   1.877  0.00  0.00    +0.029 A 
ATOM     29  C   UNL     1       0.482  -7.339   0.506  0.00  0.00    +0.109 A 
ATOM     30  C   UNL     1       0.618  -8.554  -0.139  0.00  0.00    +0.029 A 
ATOM     31  C   UNL     1       0.587  -9.729   0.588  0.00  0.00    +0.005 A 
ENDBRANCH  22  29
ENDBRANCH  20  22
ENDBRANCH   1  20
TORSDOF 5
