REMARK  Name = ZINC13466148
REMARK  4 active torsions:
REMARK  status: ('A' for Active; 'I' for Inactive)
REMARK    1  A    between atoms: C_8  and  C_10
REMARK    2  A    between atoms: C_13  and  N_16
REMARK    3  A    between atoms: C_17  and  C_19
REMARK    4  A    between atoms: C_26  and  C_28
REMARK                            x       y       z     vdW  Elec       q    Type
REMARK                         _______ _______ _______ _____ _____    ______ ____
ROOT
ATOM      1  C   UNL     1       3.676   6.667  -5.447  0.00  0.00    +0.017 A 
ATOM      2  C   UNL     1       3.299   5.351  -5.720  0.00  0.00    +0.013 A 
ATOM      3  C   UNL     1       3.070   4.472  -4.684  0.00  0.00    +0.024 A 
ATOM      4  C   UNL     1       3.213   4.895  -3.367  0.00  0.00    +0.033 A 
ATOM      5  C   UNL     1       3.583   6.207  -3.091  0.00  0.00    +0.024 A 
ATOM      6  C   UNL     1       3.819   7.089  -4.123  0.00  0.00    +0.013 A 
ENDROOT
BRANCH   1  14
ATOM      7  C   UNL     1       4.794  10.885  -9.636  0.00  0.00    +0.001 A 
ATOM      8  C   UNL     1       4.483   9.841 -10.495  0.00  0.00    +0.004 A 
ATOM      9  C   UNL     1       4.141   8.600 -10.001  0.00  0.00    +0.047 A 
ATOM     10  C   UNL     1       4.106   8.388  -8.628  0.00  0.00    +0.136 A 
ATOM     11  C   UNL     1       4.421   9.450  -7.762  0.00  0.00    +0.021 A 
ATOM     12  C   UNL     1       4.766  10.699  -8.282  0.00  0.00    +0.011 A 
ATOM     13  C   UNL     1       4.287   8.909  -6.408  0.00  0.00    +0.058 A 
ATOM     14  C   UNL     1       3.924   7.612  -6.556  0.00  0.00    +0.136 A 
ATOM     15  O   UNL     1       3.816   7.314  -7.866  0.00  0.00    -0.455 OA
ENDBRANCH   1  14
BRANCH   4  16
ATOM     16  N   UNL     1       2.980   4.001  -2.318  0.00  0.00    -0.285 N 
ATOM     17  C   UNL     1       3.695   4.097  -1.179  0.00  0.00    +0.222 C 
ATOM     18  O   UNL     1       4.605   4.895  -1.100  0.00  0.00    -0.275 OA
ATOM     19  H   UNL     1       2.304   3.312  -2.409  0.00  0.00    +0.155 HD
BRANCH  17  20
ATOM     20  C   UNL     1       3.364   3.212  -0.005  0.00  0.00    +0.096 C 
ATOM     21  C   UNL     1       4.252   3.579   1.226  0.00  0.00    +0.025 C 
ATOM     22  C   UNL     1       3.450   4.804   1.800  0.00  0.00    +0.016 C 
ATOM     23  C   UNL     1       2.121   3.977   1.957  0.00  0.00    +0.027 C 
ATOM     24  C   UNL     1       1.922   3.482   0.490  0.00  0.00    +0.121 C 
ATOM     25  C   UNL     1       2.666   2.748   2.696  0.00  0.00    -0.027 C 
ATOM     26  C   UNL     1       3.893   2.519   2.274  0.00  0.00    -0.027 C 
BRANCH  24  27
ATOM     27  C   UNL     1       1.108   2.213   0.465  0.00  0.00    +0.360 C 
ATOM     28  O   UNL     1       1.586   1.198   0.019  0.00  0.00    -0.246 OA
ATOM     29  O   UNL     1      -0.148   2.213   0.938  0.00  0.00    -0.246 OA
ENDBRANCH  24  27
ENDBRANCH  17  20
ENDBRANCH   4  16
TORSDOF 4
