REMARK  Name = ZINC04712896
REMARK  1 active torsions:
REMARK  status: ('A' for Active; 'I' for Inactive)
REMARK    1  A    between atoms: C_10  and  N_18
REMARK                            x       y       z     vdW  Elec       q    Type
REMARK                         _______ _______ _______ _____ _____    ______ ____
ROOT
ATOM      1  C   UNL     1      -0.017   1.379  -0.059  0.00  0.00    +0.001 A 
ATOM      2  C   UNL     1       1.166   2.096  -0.066  0.00  0.00    +0.001 A 
ATOM      3  C   UNL     1       2.383   1.439  -0.068  0.00  0.00    +0.012 A 
ATOM      4  C   UNL     1       2.420   0.048  -0.063  0.00  0.00    +0.033 A 
ATOM      5  C   UNL     1       1.218  -0.681  -0.055  0.00  0.00    +0.033 A 
ATOM      6  C   UNL     1       0.002  -0.004  -0.053  0.00  0.00    +0.012 A 
ATOM      7  C   UNL     1       1.248  -2.159  -0.050  0.00  0.00    +0.196 C 
ATOM      8  O   UNL     1       0.208  -2.789  -0.043  0.00  0.00    -0.287 OA
ATOM      9  C   UNL     1       2.539  -2.868  -0.052  0.00  0.00    +0.055 A 
ATOM     10  C   UNL     1       2.577  -4.267  -0.048  0.00  0.00    +0.036 A 
ATOM     11  C   UNL     1       3.807  -4.925  -0.052  0.00  0.00    +0.024 A 
ATOM     12  C   UNL     1       4.982  -4.205  -0.059  0.00  0.00    +0.018 A 
ATOM     13  C   UNL     1       4.960  -2.817  -0.062  0.00  0.00    +0.029 A 
ATOM     14  C   UNL     1       3.744  -2.139  -0.060  0.00  0.00    +0.049 A 
ATOM     15  C   UNL     1       3.716  -0.663  -0.065  0.00  0.00    +0.196 C 
ATOM     16  O   UNL     1       4.755  -0.034  -0.071  0.00  0.00    -0.287 OA
ATOM     17 BR   UNL     1       6.582  -1.847  -0.072  0.00  0.00    -0.050 Br
ENDROOT
BRANCH  10  18
ATOM     18  N   UNL     1       1.397  -4.996  -0.041  0.00  0.00    -0.357 N 
ATOM     19  H   UNL     1       0.581  -4.601  -0.384  0.00  0.00    +0.142 HD
ATOM     20  H   UNL     1       1.389  -5.901   0.308  0.00  0.00    +0.142 HD
ENDBRANCH  10  18
TORSDOF 1
