REMARK  Name = ZINC22503197
REMARK  4 active torsions:
REMARK  status: ('A' for Active; 'I' for Inactive)
REMARK    1  A    between atoms: C_1  and  C_2
REMARK    2  A    between atoms: C_4  and  C_7
REMARK    3  A    between atoms: C_10  and  C_15
REMARK    4  A    between atoms: C_17  and  C_21
REMARK                            x       y       z     vdW  Elec       q    Type
REMARK                         _______ _______ _______ _____ _____    ______ ____
ROOT
ATOM      1  C   UNL     1      -0.446  -2.310  -0.006  0.00  0.00    +0.154 A 
ATOM      2  N   UNL     1      -0.880  -1.077   0.005  0.00  0.00    -0.154 NA
ATOM      3  N   UNL     1       0.002  -0.004   0.002  0.00  0.00    -0.184 N 
ATOM      4  C   UNL     1      -0.017   1.385   0.010  0.00  0.00    +0.203 A 
ATOM      5  N   UNL     1       1.230   1.802   0.000  0.00  0.00    -0.125 NA
ATOM      6  N   UNL     1       2.030   0.793  -0.013  0.00  0.00    -0.120 NA
ATOM      7  C   UNL     1       1.341  -0.310  -0.012  0.00  0.00    +0.219 A 
ATOM      8  S   UNL     1       1.326  -2.086  -0.022  0.00  0.00    -0.025 S 
ENDROOT
BRANCH   1  12
ATOM      9  C   UNL     1      -1.845  -7.184  -0.020  0.00  0.00    +0.089 C 
ATOM     10  C   UNL     1      -1.809  -5.678  -0.012  0.00  0.00    +0.135 A 
ATOM     11  C   UNL     1      -0.706  -4.896  -0.024  0.00  0.00    +0.077 A 
ATOM     12  C   UNL     1      -1.224  -3.571  -0.005  0.00  0.00    +0.140 A 
ATOM     13  N   UNL     1      -2.529  -3.691   0.006  0.00  0.00    -0.076 NA
ATOM     14  O   UNL     1      -2.865  -4.852   0.003  0.00  0.00    -0.359 OA
ENDBRANCH   1  12
BRANCH   4  15
ATOM     15  C   UNL     1      -1.218   2.238   0.020  0.00  0.00    +0.105 A 
ATOM     16  C   UNL     1      -1.262   3.583   0.315  0.00  0.00    +0.061 A 
ATOM     17  C   UNL     1      -2.599   3.997   0.207  0.00  0.00    +0.093 A 
ATOM     18  N   UNL     1      -3.331   2.957  -0.136  0.00  0.00    -0.173 NA
ATOM     19  N   UNL     1      -2.494   1.843  -0.266  0.00  0.00    -0.273 N 
ATOM     20  H   UNL     1      -2.697   0.797  -0.539  0.00  0.00    +0.189 HD
BRANCH  17  21
ATOM     21  C   UNL     1      -3.103   5.374   0.440  0.00  0.00    +0.002 A 
ATOM     22  C   UNL     1      -2.221   6.388   0.806  0.00  0.00    +0.010 A 
ATOM     23  C   UNL     1      -2.694   7.668   1.017  0.00  0.00    +0.001 A 
ATOM     24  C   UNL     1      -4.042   7.941   0.875  0.00  0.00    +0.000 A 
ATOM     25  C   UNL     1      -4.923   6.937   0.517  0.00  0.00    +0.001 A 
ATOM     26  C   UNL     1      -4.460   5.655   0.299  0.00  0.00    +0.010 A 
ENDBRANCH  17  21
ENDBRANCH   4  15
TORSDOF 3
