REMARK  Name = ZINC22238473
REMARK  7 active torsions:
REMARK  status: ('A' for Active; 'I' for Inactive)
REMARK    1  A    between atoms: C_1  and  C_2
REMARK    2  A    between atoms: C_2  and  C_31
REMARK    3  A    between atoms: C_6  and  C_22
REMARK    4  A    between atoms: C_10  and  N_21
REMARK    5  A    between atoms: C_11  and  C_13
REMARK    6  A    between atoms: C_13  and  C_15
REMARK    7  A    between atoms: C_22  and  C_23
REMARK                            x       y       z     vdW  Elec       q    Type
REMARK                         _______ _______ _______ _____ _____    ______ ____
ROOT
ATOM      1  C   UNL     1     -10.466   0.159   0.881  0.00  0.00    +0.041 C 
ATOM      2  C   UNL     1      -9.542   1.362   1.079  0.00  0.00    +0.068 C 
ATOM      3  C   UNL     1      -8.149   1.036   0.535  0.00  0.00    +0.070 C 
ATOM      4  C   UNL     1      -7.323   2.291   0.470  0.00  0.00    -0.023 A 
ATOM      5  C   UNL     1      -7.901   3.540   0.530  0.00  0.00    +0.004 A 
ATOM      6  C   UNL     1      -7.088   4.664   0.457  0.00  0.00    +0.055 A 
ATOM      7  N   UNL     1      -5.782   4.566   0.336  0.00  0.00    -0.216 NA
ATOM      8  C   UNL     1      -5.171   3.391   0.276  0.00  0.00    +0.230 A 
ATOM      9  C   UNL     1      -5.934   2.210   0.342  0.00  0.00    +0.065 A 
ATOM     10  C   UNL     1      -4.977   1.103   0.249  0.00  0.00    +0.084 A 
ATOM     11  C   UNL     1      -3.732   1.696   0.136  0.00  0.00    +0.199 A 
ATOM     12  O   UNL     1      -3.875   3.041   0.161  0.00  0.00    -0.432 OA
ATOM     13  C   UNL     1      -9.389   3.711   0.675  0.00  0.00    +0.197 C 
ATOM     14  O   UNL     1     -10.058   2.489   0.362  0.00  0.00    -0.369 OA
ATOM     15  C   UNL     1      -9.447   1.697   2.569  0.00  0.00    +0.041 C 
ENDROOT
BRANCH  10  16
ATOM     16  N   UNL     1      -5.259  -0.251   0.268  0.00  0.00    -0.354 N 
ATOM     17  H   UNL     1      -4.443  -0.984   0.189  0.00  0.00    +0.142 HD
ATOM     18  H   UNL     1      -6.300  -0.594   0.362  0.00  0.00    +0.142 HD
ENDBRANCH  10  16
BRANCH  11  19
ATOM     19  C   UNL     1      -2.504   1.006   0.020  0.00  0.00    +0.230 C 
ATOM     20  O   UNL     1      -2.495  -0.208  -0.084  0.00  0.00    -0.283 OA
BRANCH  19  21
ATOM     21  C   UNL     1      -1.229   1.758   0.025  0.00  0.00    +0.025 A 
ATOM     22  C   UNL     1      -0.013   1.075   0.040  0.00  0.00    +0.012 A 
ATOM     23  C   UNL     1       1.172   1.782   0.039  0.00  0.00    +0.001 A 
ATOM     24  C   UNL     1       1.156   3.165   0.028  0.00  0.00    +0.000 A 
ATOM     25  C   UNL     1      -0.047   3.849   0.018  0.00  0.00    +0.001 A 
ATOM     26  C   UNL     1      -1.239   3.154   0.019  0.00  0.00    +0.012 A 
ENDBRANCH  19  21
ENDBRANCH  11  19
BRANCH   6  27
ATOM     27  C   UNL     1      -7.720   6.031   0.519  0.00  0.00    +0.091 C 
BRANCH  27  28
ATOM     28  C   UNL     1      -7.799   6.484   1.954  0.00  0.00    -0.042 A 
ATOM     29  C   UNL     1      -8.919   6.192   2.710  0.00  0.00    +0.004 A 
ATOM     30  C   UNL     1      -8.989   6.604   4.028  0.00  0.00    +0.000 A 
ATOM     31  C   UNL     1      -7.944   7.315   4.587  0.00  0.00    +0.000 A 
ATOM     32  C   UNL     1      -6.826   7.611   3.829  0.00  0.00    +0.000 A 
ATOM     33  C   UNL     1      -6.754   7.195   2.513  0.00  0.00    +0.004 A 
ENDBRANCH  27  28
ENDBRANCH   6  27
TORSDOF 5
