REMARK  Name = ZINC66346634
REMARK  4 active torsions:
REMARK  status: ('A' for Active; 'I' for Inactive)
REMARK    1  A    between atoms: C_6  and  C_7
REMARK    2  A    between atoms: C_7  and  C_9
REMARK    3  A    between atoms: C_7  and  N_14
REMARK    4  A    between atoms: C_21  and  O_24
REMARK                            x       y       z     vdW  Elec       q    Type
REMARK                         _______ _______ _______ _____ _____    ______ ____
ROOT
ATOM      1  C   UNL     1      -1.293  -0.773   0.009  0.00  0.00    +0.136 C 
ENDROOT
BRANCH   1   2
ATOM      2  N   UNL     1      -1.180  -1.929  -0.885  0.00  0.00    -0.288 N 
ATOM      3  C   UNL     1      -2.287  -2.465  -1.436  0.00  0.00    +0.303 C 
ATOM      4  O   UNL     1      -3.385  -2.050  -1.120  0.00  0.00    -0.253 OA
ATOM      5  N   UNL     1      -2.176  -3.461  -2.337  0.00  0.00    -0.283 N 
ATOM      6  C   UNL     1      -0.866  -4.052  -2.643  0.00  0.00    +0.109 C 
ATOM      7  C   UNL     1      -0.643  -3.999  -4.157  0.00  0.00    +0.022 C 
ATOM      8  C   UNL     1      -1.818  -4.676  -4.866  0.00  0.00    +0.034 C 
ATOM      9  C   UNL     1      -3.112  -3.925  -4.542  0.00  0.00    +0.132 C 
ATOM     10  C   UNL     1      -3.364  -3.981  -3.028  0.00  0.00    +0.140 C 
ATOM     11  H   UNL     1      -0.309  -2.307  -1.081  0.00  0.00    +0.151 HD
BRANCH   9  12
ATOM     12  O   UNL     1      -4.204  -4.539  -5.230  0.00  0.00    -0.390 OA
ATOM     13  H   UNL     1      -5.058  -4.114  -5.070  0.00  0.00    +0.210 HD
ENDBRANCH   9  12
ENDBRANCH   1   2
BRANCH   1  19
ATOM     14  C   UNL     1      -0.017   1.380   0.005  0.00  0.00    +0.007 A 
ATOM     15  C   UNL     1       1.171   2.087  -0.003  0.00  0.00    +0.020 A 
ATOM     16  C   UNL     1       2.378   1.412  -0.018  0.00  0.00    +0.041 A 
ATOM     17  C   UNL     1       2.396   0.029  -0.024  0.00  0.00    +0.020 A 
ATOM     18  C   UNL     1       1.208  -0.678  -0.015  0.00  0.00    +0.007 A 
ATOM     19  C   UNL     1       0.002  -0.002  -0.001  0.00  0.00    -0.023 A 
ATOM     20 CL   UNL     1       3.869   2.300  -0.029  0.00  0.00    -0.084 Cl
ENDBRANCH   1  19
BRANCH   1  21
ATOM     21  C   UNL     1      -1.584  -1.248   1.409  0.00  0.00    -0.016 A 
ATOM     22  C   UNL     1      -2.487  -0.570   2.206  0.00  0.00    +0.013 A 
ATOM     23  C   UNL     1      -2.726  -1.024   3.461  0.00  0.00    +0.045 A 
ATOM     24  S   UNL     1      -1.658  -2.452   3.547  0.00  0.00    -0.105 S 
ATOM     25  C   UNL     1      -0.969  -2.350   1.903  0.00  0.00    +0.051 A 
ENDBRANCH   1  21
TORSDOF 4
