REMARK  Name = ZINC47925967
REMARK  6 active torsions:
REMARK  status: ('A' for Active; 'I' for Inactive)
REMARK    1  A    between atoms: C_1  and  C_2
REMARK    2  A    between atoms: C_4  and  C_24
REMARK    3  A    between atoms: C_5  and  S_9
REMARK    4  A    between atoms: C_6  and  C_8
REMARK    5  A    between atoms: S_9  and  N_12
REMARK    6  A    between atoms: C_16  and  C_18
REMARK                            x       y       z     vdW  Elec       q    Type
REMARK                         _______ _______ _______ _____ _____    ______ ____
ROOT
ATOM      1  S   UNL     1      -1.001  -4.774   0.666  0.00  0.00    +0.062 S 
ATOM      2  O   UNL     1      -1.327  -4.832   2.048  0.00  0.00    -0.153 OA
ATOM      3  O   UNL     1      -1.928  -5.128  -0.351  0.00  0.00    -0.153 OA
ENDROOT
BRANCH   1   8
ATOM      4  C   UNL     1       0.714   0.900  -0.464  0.00  0.00    +0.044 C 
ATOM      5  C   UNL     1       0.285  -0.517  -0.181  0.00  0.00    -0.050 A 
ATOM      6  C   UNL     1       0.226  -0.975   1.121  0.00  0.00    +0.008 A 
ATOM      7  C   UNL     1      -0.167  -2.275   1.380  0.00  0.00    -0.024 A 
ATOM      8  C   UNL     1      -0.501  -3.117   0.336  0.00  0.00    +0.111 A 
ATOM      9  C   UNL     1      -0.443  -2.659  -0.967  0.00  0.00    -0.024 A 
ATOM     10  C   UNL     1      -0.053  -1.358  -1.225  0.00  0.00    +0.008 A 
ATOM     11  C   UNL     1      -0.806  -3.577  -2.105  0.00  0.00    +0.046 C 
ATOM     12  C   UNL     1      -0.231  -2.774   2.801  0.00  0.00    +0.046 C 
ENDBRANCH   1   8
BRANCH   1  13
ATOM     13  N   UNL     1       0.328  -5.738   0.452  0.00  0.00    -0.168 NA
ATOM     14  C   UNL     1       0.723  -6.389  -0.810  0.00  0.00    +0.110 C 
ATOM     15  C   UNL     1       1.585  -7.602  -0.379  0.00  0.00    +0.019 C 
ATOM     16  C   UNL     1       2.351  -7.021   0.839  0.00  0.00    +0.028 C 
ATOM     17  C   UNL     1       1.313  -6.082   1.488  0.00  0.00    +0.126 C 
BRANCH  17  18
ATOM     18  C   UNL     1       1.990  -4.831   1.986  0.00  0.00    +0.035 A 
ATOM     19  C   UNL     1       2.329  -3.763   1.236  0.00  0.00    +0.024 A 
ATOM     20  C   UNL     1       2.936  -2.823   2.092  0.00  0.00    +0.019 A 
ATOM     21  C   UNL     1       2.945  -3.352   3.332  0.00  0.00    +0.083 A 
ATOM     22  N   UNL     1       2.360  -4.582   3.275  0.00  0.00    -0.363 N 
ATOM     23  H   UNL     1       2.231  -5.182   4.026  0.00  0.00    +0.165 HD
ENDBRANCH  17  18
ENDBRANCH   1  13
TORSDOF 3
