REMARK  Name = ZINC09229646
REMARK  10 active torsions:
REMARK  status: ('A' for Active; 'I' for Inactive)
REMARK    1  A    between atoms: C_1  and  N_2
REMARK    2  A    between atoms: N_2  and  C_3
REMARK    3  A    between atoms: N_2  and  S_9
REMARK    4  A    between atoms: S_9  and  C_12
REMARK    5  A    between atoms: C_15  and  N_18
REMARK    6  A    between atoms: N_18  and  C_19
REMARK    7  A    between atoms: C_19  and  N_21
REMARK    8  A    between atoms: C_22  and  C_24
REMARK    9  A    between atoms: C_25  and  C_26
REMARK   10  A    between atoms: C_29  and  N_32
REMARK                            x       y       z     vdW  Elec       q    Type
REMARK                         _______ _______ _______ _____ _____    ______ ____
ROOT
ATOM      1  N   UNL     1       5.659  -1.616  -3.014  0.00  0.00    -0.297 N 
ATOM      2  H   UNL     1       5.925  -2.429  -3.470  0.00  0.00    +0.154 HD
ENDROOT
BRANCH   1   6
ATOM      3  C   UNL     1       1.676  -1.044  -1.935  0.00  0.00    +0.106 A 
ATOM      4  C   UNL     1       2.403   0.004  -2.468  0.00  0.00    +0.030 A 
ATOM      5  C   UNL     1       3.724  -0.182  -2.827  0.00  0.00    +0.025 A 
ATOM      6  C   UNL     1       4.321  -1.424  -2.651  0.00  0.00    +0.033 A 
ATOM      7  C   UNL     1       3.588  -2.474  -2.115  0.00  0.00    +0.025 A 
ATOM      8  C   UNL     1       2.269  -2.280  -1.753  0.00  0.00    +0.030 A 
BRANCH   3   9
ATOM      9  S   UNL     1      -0.009  -0.803  -1.479  0.00  0.00    +0.061 S 
ATOM     10  O   UNL     1      -0.625  -2.083  -1.506  0.00  0.00    -0.153 OA
ATOM     11  O   UNL     1      -0.487   0.288  -2.254  0.00  0.00    -0.153 OA
BRANCH   9  13
ATOM     12  C   UNL     1       0.042   1.125   0.417  0.00  0.00    +0.132 C 
ATOM     13  N   UNL     1      -0.022  -0.304   0.100  0.00  0.00    -0.177 NA
BRANCH  13  14
ATOM     14  C   UNL     1      -0.098  -1.291   1.179  0.00  0.00    +0.080 C 
ATOM     15  C   UNL     1      -1.357  -1.040   2.012  0.00  0.00    +0.020 C 
ATOM     16  C   UNL     1      -1.437  -2.071   3.140  0.00  0.00    +0.002 C 
ATOM     17  C   UNL     1      -0.201  -1.946   4.033  0.00  0.00    +0.000 C 
ATOM     18  C   UNL     1       1.058  -2.197   3.200  0.00  0.00    +0.002 C 
ATOM     19  C   UNL     1       1.137  -1.166   2.073  0.00  0.00    +0.020 C 
ENDBRANCH  13  14
ENDBRANCH   9  13
ENDBRANCH   3   9
ENDBRANCH   1   6
BRANCH   1  20
ATOM     20  C   UNL     1       6.576  -0.671  -2.730  0.00  0.00    +0.141 C 
ATOM     21  S   UNL     1       6.136   0.699  -1.802  0.00  0.00    -0.018 S 
BRANCH  20  22
ATOM     22  N   UNL     1       7.841  -0.803  -3.176  0.00  0.00    -0.264 N 
ATOM     23  C   UNL     1       8.759   0.142  -2.893  0.00  0.00    +0.242 C 
ATOM     24  O   UNL     1       8.445   1.115  -2.233  0.00  0.00    -0.270 OA
ATOM     25  H   UNL     1       8.091  -1.579  -3.702  0.00  0.00    +0.157 HD
BRANCH  23  26
ATOM     26  C   UNL     1      10.132  -0.002  -3.377  0.00  0.00    +0.068 C 
ATOM     27  C   UNL     1      11.050   0.944  -3.093  0.00  0.00    +0.013 C 
BRANCH  27  28
ATOM     28  C   UNL     1      12.431   0.799  -3.581  0.00  0.00    -0.025 A 
ATOM     29  C   UNL     1      12.793  -0.316  -4.344  0.00  0.00    +0.010 A 
ATOM     30  C   UNL     1      14.089  -0.444  -4.798  0.00  0.00    +0.033 A 
ATOM     31  C   UNL     1      15.030   0.526  -4.499  0.00  0.00    +0.126 A 
ATOM     32  C   UNL     1      14.679   1.632  -3.744  0.00  0.00    +0.033 A 
ATOM     33  C   UNL     1      13.386   1.777  -3.288  0.00  0.00    +0.010 A 
BRANCH  31  34
ATOM     34  N   UNL     1      16.419   0.380  -4.989  0.00  0.00    +0.056 N 
ATOM     35  O   UNL     1      16.729  -0.585  -5.648  0.00  0.00    -0.126 OA
ATOM     36  O   UNL     1      17.244   1.225  -4.730  0.00  0.00    -0.126 OA
ENDBRANCH  31  34
ENDBRANCH  27  28
ENDBRANCH  23  26
ENDBRANCH  20  22
ENDBRANCH   1  20
TORSDOF 9
