REMARK  Name = ZINC09167634
REMARK  8 active torsions:
REMARK  status: ('A' for Active; 'I' for Inactive)
REMARK    1  A    between atoms: C_1  and  C_2
REMARK    2  A    between atoms: C_2  and  C_3
REMARK    3  A    between atoms: C_3  and  N_4
REMARK    4  A    between atoms: C_8  and  N_18
REMARK    5  A    between atoms: C_13  and  C_16
REMARK    6  A    between atoms: C_13  and  C_17
REMARK    7  A    between atoms: N_18  and  S_19
REMARK    8  A    between atoms: S_19  and  C_22
REMARK                            x       y       z     vdW  Elec       q    Type
REMARK                         _______ _______ _______ _____ _____    ______ ____
ROOT
ATOM      1  N   UNL     1       0.624   5.212   4.981  0.00  0.00    -0.268 N 
ATOM      2  C   UNL     1       0.070   4.203   4.178  0.00  0.00    +0.078 A 
ATOM      3  C   UNL     1      -0.436   4.500   2.923  0.00  0.00    +0.029 A 
ATOM      4  C   UNL     1      -0.987   3.498   2.146  0.00  0.00    +0.026 A 
ATOM      5  C   UNL     1      -1.033   2.194   2.622  0.00  0.00    +0.052 A 
ATOM      6  C   UNL     1      -0.530   1.894   3.881  0.00  0.00    +0.072 A 
ATOM      7  C   UNL     1       0.027   2.895   4.657  0.00  0.00    +0.144 A 
ATOM      8  O   UNL     1       0.535   2.611   5.886  0.00  0.00    -0.489 OA
ATOM      9  C   UNL     1       1.954   2.567   6.011  0.00  0.00    +0.244 C 
ATOM     10  C   UNL     1       2.591   3.743   5.274  0.00  0.00    +0.076 C 
ATOM     11  C   UNL     1       1.828   5.010   5.562  0.00  0.00    +0.229 C 
ATOM     12  O   UNL     1       2.291   5.843   6.311  0.00  0.00    -0.275 OA
ATOM     13  C   UNL     1       4.040   3.907   5.737  0.00  0.00    +0.024 C 
ATOM     14  C   UNL     1       2.568   3.471   3.768  0.00  0.00    +0.024 C 
ENDROOT
BRANCH   5  15
ATOM     15  N   UNL     1      -1.592   1.183   1.834  0.00  0.00    -0.216 N 
ATOM     16  H   UNL     1      -2.204   0.542   2.229  0.00  0.00    +0.174 HD
BRANCH  15  17
ATOM     17  S   UNL     1      -1.209   1.079   0.226  0.00  0.00    +0.072 S 
ATOM     18  O   UNL     1      -1.371   2.382  -0.316  0.00  0.00    -0.150 OA
ATOM     19  O   UNL     1      -1.905  -0.050  -0.285  0.00  0.00    -0.150 OA
BRANCH  17  20
ATOM     20  C   UNL     1       0.509   0.700   0.123  0.00  0.00    +0.109 A 
ATOM     21  C   UNL     1       1.441   1.720   0.063  0.00  0.00    +0.029 A 
ATOM     22  C   UNL     1       2.784   1.416  -0.025  0.00  0.00    +0.006 A 
ATOM     23  C   UNL     1       3.208   0.093  -0.054  0.00  0.00    -0.044 A 
ATOM     24  C   UNL     1       2.280  -0.922   0.010  0.00  0.00    -0.042 A 
ATOM     25  C   UNL     1       0.928  -0.613   0.098  0.00  0.00    +0.032 A 
ATOM     26  C   UNL     1       2.667  -2.377  -0.006  0.00  0.00    +0.035 C 
ATOM     27  C   UNL     1       4.092  -2.548  -0.531  0.00  0.00    +0.005 C 
ATOM     28  C   UNL     1       5.011  -1.602   0.251  0.00  0.00    +0.005 C 
ATOM     29  C   UNL     1       4.688  -0.167  -0.159  0.00  0.00    +0.035 C 
ENDBRANCH  17  20
ENDBRANCH  15  17
ENDBRANCH   5  15
BRANCH   1  30
ATOM     30  C   UNL     1      -0.095   6.472   5.188  0.00  0.00    +0.113 C 
BRANCH  30  32
ATOM     31  C   UNL     1      -1.748   7.664   6.633  0.00  0.00    +0.005 C 
ATOM     32  C   UNL     1      -0.998   6.348   6.417  0.00  0.00    +0.016 C 
ENDBRANCH  30  32
ENDBRANCH   1  30
TORSDOF 5
