REMARK  Name = ZINC06510673
REMARK  5 active torsions:
REMARK  status: ('A' for Active; 'I' for Inactive)
REMARK    1  A    between atoms: C_1  and  N_2
REMARK    2  A    between atoms: N_2  and  C_3
REMARK    3  A    between atoms: C_6  and  C_12
REMARK    4  A    between atoms: C_8  and  N_9
REMARK    5  A    between atoms: C_21  and  C_27
REMARK                            x       y       z     vdW  Elec       q    Type
REMARK                         _______ _______ _______ _____ _____    ______ ____
ROOT
ATOM      1  C   UNL     1       3.615   0.537   0.081  0.00  0.00    +0.015 C 
ATOM      2  C   UNL     1       2.294   0.644   0.338  0.00  0.00    -0.003 C 
ATOM      3  C   UNL     1       1.539   1.920   0.626  0.00  0.00    +0.060 C 
ATOM      4  C   UNL     1       0.088   1.471   0.843  0.00  0.00    +0.131 C 
ATOM      5  N   UNL     1       0.072   0.011   0.677  0.00  0.00    -0.292 N 
ATOM      6  C   UNL     1       1.325  -0.461   0.391  0.00  0.00    +0.140 A 
ATOM      7  N   UNL     1       1.558  -1.750   0.199  0.00  0.00    -0.229 NA
ATOM      8  C   UNL     1       0.591  -2.678   0.272  0.00  0.00    +0.079 A 
ATOM      9  C   UNL     1       0.861  -4.036   0.066  0.00  0.00    +0.043 A 
ATOM     10  C   UNL     1      -0.173  -4.959   0.152  0.00  0.00    +0.065 A 
ATOM     11  C   UNL     1      -1.478  -4.540   0.443  0.00  0.00    +0.016 A 
ATOM     12  C   UNL     1      -1.754  -3.217   0.645  0.00  0.00    +0.016 A 
ATOM     13  C   UNL     1      -0.732  -2.274   0.564  0.00  0.00    +0.065 A 
ATOM     14  C   UNL     1      -0.982  -0.841   0.774  0.00  0.00    +0.262 A 
ATOM     15  O   UNL     1      -2.099  -0.430   1.029  0.00  0.00    -0.267 OA
ENDROOT
BRANCH   1  19
ATOM     16  C   UNL     1       5.970   4.031  -0.411  0.00  0.00    +0.058 A 
ATOM     17  C   UNL     1       4.666   3.998  -0.899  0.00  0.00    +0.026 A 
ATOM     18  C   UNL     1       3.901   2.865  -0.746  0.00  0.00    +0.010 A 
ATOM     19  C   UNL     1       4.431   1.748  -0.089  0.00  0.00    -0.022 A 
ATOM     20  C   UNL     1       5.741   1.786   0.401  0.00  0.00    +0.042 A 
ATOM     21  C   UNL     1       6.502   2.921   0.239  0.00  0.00    +0.147 A 
BRANCH  16  23
ATOM     22  C   UNL     1       6.223   6.309  -1.345  0.00  0.00    +0.125 C 
ATOM     23  N   UNL     1       6.743   5.178  -0.573  0.00  0.00    -0.345 N 
ATOM     24  H   UNL     1       7.626   5.228  -0.174  0.00  0.00    +0.146 HD
ENDBRANCH  16  23
BRANCH  21  25
ATOM     25  N   UNL     1       7.888   2.962   0.757  0.00  0.00    +0.058 N 
ATOM     26  O   UNL     1       8.590   1.969   0.697  0.00  0.00    -0.126 OA
ATOM     27  O   UNL     1       8.326   3.989   1.243  0.00  0.00    -0.126 OA
ENDBRANCH  21  25
ENDBRANCH   1  19
BRANCH  10  28
ATOM     28  C   UNL     1       0.105  -6.396  -0.066  0.00  0.00    +0.387 C 
ATOM     29  O   UNL     1       1.234  -6.764  -0.318  0.00  0.00    -0.241 OA
ATOM     30  O   UNL     1      -0.894  -7.295   0.016  0.00  0.00    -0.241 OA
ENDBRANCH  10  28
TORSDOF 4
