REMARK  Name = ZINC39542564
REMARK  7 active torsions:
REMARK  status: ('A' for Active; 'I' for Inactive)
REMARK    1  A    between atoms: C_1  and  C_2
REMARK    2  A    between atoms: C_7  and  C_10
REMARK    3  A    between atoms: C_10  and  O_11
REMARK    4  A    between atoms: O_11  and  C_12
REMARK    5  A    between atoms: C_12  and  C_14
REMARK    6  A    between atoms: C_27  and  C_28
REMARK    7  A    between atoms: C_31  and  O_34
REMARK                            x       y       z     vdW  Elec       q    Type
REMARK                         _______ _______ _______ _____ _____    ______ ____
ROOT
ATOM      1  C   UNL     1       0.084  -8.938  -3.492  0.00  0.00    +0.073 A 
ATOM      2  C   UNL     1      -1.153  -9.683  -3.258  0.00  0.00    +0.015 A 
ATOM      3  C   UNL     1      -2.409  -9.106  -3.472  0.00  0.00    +0.011 A 
ATOM      4  C   UNL     1      -3.535  -9.840  -3.241  0.00  0.00    +0.001 A 
ATOM      5  C   UNL     1      -3.450 -11.156  -2.794  0.00  0.00    +0.002 A 
ATOM      6  C   UNL     1      -2.244 -11.748  -2.576  0.00  0.00    +0.028 A 
ATOM      7  C   UNL     1      -1.058 -11.023  -2.804  0.00  0.00    +0.072 A 
ATOM      8  N   UNL     1       0.135 -11.575  -2.600  0.00  0.00    -0.247 NA
ATOM      9  C   UNL     1       1.276 -10.924  -2.803  0.00  0.00    +0.072 A 
ATOM     10  C   UNL     1       1.283  -9.595  -3.258  0.00  0.00    -0.007 A 
ATOM     11  C   UNL     1       2.705  -9.114  -3.408  0.00  0.00    +0.043 C 
ATOM     12  C   UNL     1       3.602 -10.291  -3.002  0.00  0.00    +0.042 C 
ATOM     13  C   UNL     1       2.660 -11.405  -2.620  0.00  0.00    -0.021 C 
ATOM     14  C   UNL     1       3.018 -12.631  -2.200  0.00  0.00    +0.013 C 
ENDROOT
BRANCH  14  15
ATOM     15  C   UNL     1       4.438 -13.022  -2.196  0.00  0.00    -0.024 A 
ATOM     16  C   UNL     1       4.800 -14.346  -1.930  0.00  0.00    +0.011 A 
ATOM     17  C   UNL     1       6.130 -14.707  -1.928  0.00  0.00    +0.046 A 
ATOM     18  C   UNL     1       7.110 -13.757  -2.189  0.00  0.00    +0.117 A 
ATOM     19  C   UNL     1       6.755 -12.440  -2.454  0.00  0.00    +0.046 A 
ATOM     20  C   UNL     1       5.428 -12.071  -2.464  0.00  0.00    +0.011 A 
BRANCH  18  21
ATOM     21  O   UNL     1       8.419 -14.118  -2.185  0.00  0.00    -0.507 OA
ATOM     22  H   UNL     1       8.750 -14.409  -3.046  0.00  0.00    +0.292 HD
ENDBRANCH  18  21
ENDBRANCH  14  15
BRANCH   1  23
ATOM     23  C   UNL     1       0.057  -7.538  -3.965  0.00  0.00    +0.341 C 
ATOM     24  O   UNL     1       0.055  -7.299  -5.156  0.00  0.00    -0.245 OA
BRANCH  23  25
ATOM     25  O   UNL     1       0.034  -6.526  -3.076  0.00  0.00    -0.455 OA
BRANCH  25  26
ATOM     26  C   UNL     1       0.009  -5.199  -3.603  0.00  0.00    +0.288 C 
BRANCH  26  33
ATOM     27  C   UNL     1      -0.131   1.569  -0.676  0.00  0.00    +0.109 C 
ATOM     28  C   UNL     1      -0.101   0.063  -0.614  0.00  0.00    +0.216 C 
ATOM     29  O   UNL     1      -0.087  -0.499   0.461  0.00  0.00    -0.276 OA
ATOM     30  N   UNL     1      -0.089  -0.658  -1.752  0.00  0.00    -0.265 N 
ATOM     31  C   UNL     1      -0.061  -2.047  -1.694  0.00  0.00    +0.165 A 
ATOM     32  N   UNL     1      -0.040  -2.906  -2.690  0.00  0.00    -0.226 NA
ATOM     33  C   UNL     1      -0.014  -4.207  -2.469  0.00  0.00    +0.088 A 
ATOM     34  C   UNL     1      -0.009  -4.612  -1.175  0.00  0.00    +0.075 A 
ATOM     35  S   UNL     1      -0.037  -3.037  -0.334  0.00  0.00    -0.060 S 
ATOM     36  H   UNL     1      -0.100  -0.209  -2.611  0.00  0.00    +0.157 HD
ENDBRANCH  26  33
ENDBRANCH  25  26
ENDBRANCH  23  25
ENDBRANCH   1  23
TORSDOF 6
