REMARK  Name = ZINC07390281
REMARK  11 active torsions:
REMARK  status: ('A' for Active; 'I' for Inactive)
REMARK    1  A    between atoms: C_1  and  C_2
REMARK    2  A    between atoms: C_3  and  N_11
REMARK    3  A    between atoms: C_7  and  N_8
REMARK    4  A    between atoms: N_11  and  C_12
REMARK    5  A    between atoms: C_12  and  N_14
REMARK    6  A    between atoms: C_15  and  C_17
REMARK    7  A    between atoms: C_22  and  O_23
REMARK    8  A    between atoms: O_23  and  C_24
REMARK    9  A    between atoms: C_24  and  C_25
REMARK   10  A    between atoms: C_25  and  C_26
REMARK   11  A    between atoms: C_25  and  C_27
REMARK                            x       y       z     vdW  Elec       q    Type
REMARK                         _______ _______ _______ _____ _____    ______ ____
ROOT
ATOM      1  N   UNL     1      -0.806  -0.639  -1.234  0.00  0.00    -0.263 N 
ATOM      2  C   UNL     1      -0.672  -1.849  -1.812  0.00  0.00    +0.253 C 
ATOM      3  O   UNL     1       0.414  -2.212  -2.219  0.00  0.00    -0.270 OA
ATOM      4  H   UNL     1      -1.673  -0.350  -0.909  0.00  0.00    +0.157 HD
ENDROOT
BRANCH   2   5
ATOM      5  C   UNL     1      -1.843  -2.735  -1.949  0.00  0.00    +0.079 A 
ATOM      6  C   UNL     1      -3.093  -2.325  -1.476  0.00  0.00    +0.017 A 
ATOM      7  C   UNL     1      -4.185  -3.154  -1.613  0.00  0.00    +0.001 A 
ATOM      8  C   UNL     1      -4.048  -4.399  -2.206  0.00  0.00    +0.004 A 
ATOM      9  C   UNL     1      -2.818  -4.819  -2.672  0.00  0.00    +0.046 A 
ATOM     10  C   UNL     1      -1.709  -3.994  -2.548  0.00  0.00    +0.133 A 
BRANCH  10  11
ATOM     11  O   UNL     1      -0.500  -4.406  -3.005  0.00  0.00    -0.491 OA
BRANCH  11  12
ATOM     12  C   UNL     1      -0.439  -5.702  -3.604  0.00  0.00    +0.232 C 
BRANCH  12  13
ATOM     13  C   UNL     1       0.994  -5.989  -4.055  0.00  0.00    +0.020 C 
ATOM     14  C   UNL     1       1.908  -6.066  -2.831  0.00  0.00    +0.010 C 
ATOM     15  C   UNL     1       1.035  -7.321  -4.807  0.00  0.00    +0.010 C 
ENDBRANCH  12  13
ENDBRANCH  11  12
ENDBRANCH  10  11
ENDBRANCH   2   5
BRANCH   1  16
ATOM     16  C   UNL     1       0.265   0.170  -1.109  0.00  0.00    +0.141 C 
ATOM     17  S   UNL     1       1.795  -0.340  -1.683  0.00  0.00    -0.018 S 
BRANCH  16  18
ATOM     18  N   UNL     1       0.131   1.381  -0.532  0.00  0.00    -0.296 N 
ATOM     19  H   UNL     1      -0.743   1.685  -0.240  0.00  0.00    +0.154 HD
BRANCH  18  22
ATOM     20  C   UNL     1      -0.150   4.165  -1.050  0.00  0.00    +0.048 C 
ATOM     21  C   UNL     1       1.158   3.565  -0.601  0.00  0.00    +0.001 A 
ATOM     22  C   UNL     1       1.251   2.201  -0.359  0.00  0.00    +0.038 A 
ATOM     23  C   UNL     1       2.459   1.652   0.049  0.00  0.00    +0.024 A 
ATOM     24  C   UNL     1       3.563   2.464   0.218  0.00  0.00    +0.004 A 
ATOM     25  C   UNL     1       3.466   3.823  -0.018  0.00  0.00    +0.033 A 
ATOM     26  C   UNL     1       2.264   4.373  -0.425  0.00  0.00    +0.131 A 
BRANCH  26  27
ATOM     27  N   UNL     1       2.165   5.828  -0.678  0.00  0.00    +0.057 N 
ATOM     28  O   UNL     1       3.159   6.528  -0.603  0.00  0.00    -0.126 OA
ATOM     29  O   UNL     1       1.089   6.325  -0.959  0.00  0.00    -0.126 OA
ENDBRANCH  26  27
ENDBRANCH  18  22
ENDBRANCH  16  18
ENDBRANCH   1  16
TORSDOF 8
