REMARK  Name = ZINC36146366
REMARK  12 active torsions:
REMARK  status: ('A' for Active; 'I' for Inactive)
REMARK    1  A    between atoms: C_4  and  C_7
REMARK    2  A    between atoms: C_7  and  O_8
REMARK    3  A    between atoms: O_8  and  C_9
REMARK    4  A    between atoms: C_9  and  C_10
REMARK    5  A    between atoms: C_10  and  C_12
REMARK    6  A    between atoms: C_10  and  O_37
REMARK    7  A    between atoms: C_12  and  N_13
REMARK    8  A    between atoms: N_13  and  C_14
REMARK    9  A    between atoms: N_13  and  C_22
REMARK   10  A    between atoms: C_14  and  C_15
REMARK   11  A    between atoms: C_22  and  C_23
REMARK   12  A    between atoms: C_26  and  C_29
REMARK                            x       y       z     vdW  Elec       q    Type
REMARK                         _______ _______ _______ _____ _____    ______ ____
ROOT
ATOM      1  N   UNL     1       7.538  -2.953   4.515  0.00  0.00    +0.387 N 
ATOM      2  H   UNL     1       7.649  -2.213   5.193  0.00  0.00    -0.081 HD
ENDROOT
BRANCH   1   3
ATOM      3  C   UNL     1       7.333  -2.369   3.183  0.00  0.00    -0.044 C 
BRANCH   3   4
ATOM      4  C   UNL     1       6.150  -1.400   3.227  0.00  0.00    +0.124 C 
BRANCH   4   5
ATOM      5  O   UNL     1       6.470  -0.297   4.078  0.00  0.00    -0.391 OA
ATOM      6  H   UNL     1       7.242   0.209   3.792  0.00  0.00    +0.210 HD
ENDBRANCH   4   5
BRANCH   4   7
ATOM      7  C   UNL     1       5.857  -0.888   1.816  0.00  0.00    +0.189 C 
BRANCH   7   8
ATOM      8  O   UNL     1       4.682  -0.075   1.838  0.00  0.00    -0.373 OA
BRANCH   8   9
ATOM      9  C   UNL     1       4.319   0.457   0.563  0.00  0.00    +0.195 C 
BRANCH   9  13
ATOM     10  C   UNL     1       0.788   2.828   0.959  0.00  0.00    +0.000 A 
ATOM     11  C   UNL     1       2.032   3.411   1.107  0.00  0.00    +0.000 A 
ATOM     12  C   UNL     1       3.175   2.644   0.979  0.00  0.00    +0.006 A 
ATOM     13  C   UNL     1       3.073   1.293   0.703  0.00  0.00    -0.022 A 
ATOM     14  C   UNL     1       1.829   0.710   0.556  0.00  0.00    +0.006 A 
ATOM     15  C   UNL     1       0.686   1.477   0.682  0.00  0.00    +0.000 A 
ENDBRANCH   9  13
ENDBRANCH   8   9
ENDBRANCH   7   8
ENDBRANCH   4   7
ENDBRANCH   3   4
ENDBRANCH   1   3
BRANCH   1  16
ATOM     16  C   UNL     1       6.375  -3.775   4.874  0.00  0.00    -0.043 C 
BRANCH  16  17
ATOM     17  C   UNL     1       6.182  -4.852   3.837  0.00  0.00    -0.064 A 
ATOM     18  C   UNL     1       5.421  -4.598   2.712  0.00  0.00    +0.004 A 
ATOM     19  C   UNL     1       5.244  -5.584   1.760  0.00  0.00    +0.038 A 
ATOM     20  C   UNL     1       5.829  -6.827   1.935  0.00  0.00    +0.123 A 
ATOM     21  C   UNL     1       6.591  -7.080   3.062  0.00  0.00    +0.038 A 
ATOM     22  C   UNL     1       6.771  -6.090   4.010  0.00  0.00    +0.004 A 
ATOM     23  F   UNL     1       5.655  -7.792   1.005  0.00  0.00    -0.205 F 
ENDBRANCH  16  17
ENDBRANCH   1  16
BRANCH   1  24
ATOM     24  C   UNL     1       8.745  -3.790   4.503  0.00  0.00    -0.030 C 
BRANCH  24  25
ATOM     25  C   UNL     1       9.087  -4.213   5.933  0.00  0.00    +0.194 C 
ATOM     26  C   UNL     1      10.354  -5.101   5.959  0.00  0.00    +0.104 C 
ATOM     27  C   UNL     1      10.023  -6.117   7.035  0.00  0.00    +0.091 C 
ATOM     28  N   UNL     1       8.753  -6.065   7.263  0.00  0.00    -0.089 NA
ATOM     29  O   UNL     1       8.088  -5.111   6.458  0.00  0.00    -0.392 OA
BRANCH  27  30
ATOM     30  C   UNL     1      10.986  -7.013   7.706  0.00  0.00    +0.001 A 
ATOM     31  C   UNL     1      12.340  -6.965   7.368  0.00  0.00    +0.011 A 
ATOM     32  C   UNL     1      13.235  -7.804   7.997  0.00  0.00    +0.022 A 
ATOM     33  C   UNL     1      12.794  -8.693   8.964  0.00  0.00    +0.059 A 
ATOM     34  C   UNL     1      11.452  -8.745   9.304  0.00  0.00    +0.060 A 
ATOM     35  C   UNL     1      10.547  -7.907   8.684  0.00  0.00    +0.031 A 
ATOM     36 CL   UNL     1      10.909  -9.862  10.517  0.00  0.00    -0.082 Cl
ATOM     37 CL   UNL     1      13.928  -9.745   9.752  0.00  0.00    -0.082 Cl
ENDBRANCH  27  30
ENDBRANCH  24  25
ENDBRANCH   1  24
TORSDOF 12
