REMARK  Name = ZINC12603310
REMARK  12 active torsions:
REMARK  status: ('A' for Active; 'I' for Inactive)
REMARK    1  A    between atoms: C_1  and  C_2
REMARK    2  A    between atoms: C_2  and  C_3
REMARK    3  A    between atoms: C_2  and  C_4
REMARK    4  A    between atoms: C_7  and  C_10
REMARK    5  A    between atoms: C_13  and  N_36
REMARK    6  A    between atoms: C_19  and  C_32
REMARK    7  A    between atoms: C_32  and  O_34
REMARK    8  A    between atoms: O_34  and  C_35
REMARK    9  A    between atoms: N_36  and  C_37
REMARK   10  A    between atoms: C_37  and  C_38
REMARK   11  A    between atoms: C_38  and  O_39
REMARK   12  A    between atoms: O_39  and  C_40
REMARK                            x       y       z     vdW  Elec       q    Type
REMARK                         _______ _______ _______ _____ _____    ______ ____
ROOT
ATOM      1  C   UNL     1       1.304  -1.531   1.372  0.00  0.00    +0.087 C 
ATOM      2  C   UNL     1       2.336  -1.591   2.491  0.00  0.00    +0.008 C 
ATOM      3  C   UNL     1       3.657  -0.990   2.005  0.00  0.00    -0.068 C 
ATOM      4  C   UNL     1       3.414   0.445   1.527  0.00  0.00    +0.009 C 
ATOM      5  C   UNL     1       2.356   0.431   0.422  0.00  0.00    +0.103 C 
ATOM      6  N   UNL     1       1.109  -0.137   0.955  0.00  0.00    -0.274 NA
ATOM      7  C   UNL     1       0.002  -0.004   0.002  0.00  0.00    +0.172 C 
ATOM      8  C   UNL     1      -0.414   1.470  -0.097  0.00  0.00    +0.068 C 
ATOM      9  C   UNL     1       0.831   2.299  -0.289  0.00  0.00    -0.016 A 
ATOM     10  C   UNL     1       2.081   1.835  -0.055  0.00  0.00    +0.038 A 
ATOM     11  N   UNL     1       2.995   2.819  -0.317  0.00  0.00    -0.356 N 
ATOM     12  H   UNL     1       4.069   2.623  -0.177  0.00  0.00    +0.166 HD
ATOM     13  C   UNL     1       2.352   3.949  -0.735  0.00  0.00    +0.047 A 
ATOM     14  C   UNL     1       0.960   3.668  -0.734  0.00  0.00    +0.003 A 
ATOM     15  C   UNL     1       0.026   4.635  -1.118  0.00  0.00    +0.010 A 
ATOM     16  C   UNL     1       0.519   5.861  -1.494  0.00  0.00    +0.001 A 
ATOM     17  C   UNL     1       1.875   6.139  -1.496  0.00  0.00    +0.002 A 
ATOM     18  C   UNL     1       2.822   5.202  -1.120  0.00  0.00    +0.026 A 
ENDROOT
BRANCH   1  22
ATOM     19  C   UNL     1      -2.405  -3.137   2.755  0.00  0.00    -0.045 A 
ATOM     20  C   UNL     1      -1.557  -3.915   1.989  0.00  0.00    +0.004 A 
ATOM     21  C   UNL     1      -0.357  -3.395   1.541  0.00  0.00    +0.005 A 
ATOM     22  C   UNL     1      -0.004  -2.097   1.860  0.00  0.00    -0.030 A 
ATOM     23  C   UNL     1      -0.849  -1.321   2.631  0.00  0.00    +0.005 A 
ATOM     24  C   UNL     1      -2.052  -1.839   3.074  0.00  0.00    +0.004 A 
BRANCH  19  26
ATOM     25  C   UNL     1      -3.741  -3.678   4.773  0.00  0.00    +0.012 C 
ATOM     26  C   UNL     1      -3.713  -3.704   3.243  0.00  0.00    +0.013 C 
ATOM     27  C   UNL     1      -4.869  -2.862   2.697  0.00  0.00    +0.012 C 
ENDBRANCH  19  26
ENDBRANCH   1  22
BRANCH   3  28
ATOM     28  N   UNL     1       4.183  -1.794   0.894  0.00  0.00    +0.382 N 
ATOM     29  H   UNL     1       3.347  -2.176   0.290  0.00  0.00    -0.085 HD
ATOM     30  H   UNL     1       4.834  -1.169   0.265  0.00  0.00    -0.085 HD
BRANCH  28  31
ATOM     31  C   UNL     1       4.963  -2.934   1.393  0.00  0.00    -0.054 C 
BRANCH  31  32
ATOM     32  C   UNL     1       5.494  -3.747   0.210  0.00  0.00    +0.140 C 
BRANCH  32  33
ATOM     33  O   UNL     1       6.419  -2.953  -0.536  0.00  0.00    -0.385 OA
ATOM     34  C   UNL     1       6.976  -3.622  -1.669  0.00  0.00    +0.193 C 
ENDBRANCH  32  33
ENDBRANCH  31  32
ENDBRANCH  28  31
ENDBRANCH   3  28
BRANCH   7  35
ATOM     35  C   UNL     1       0.444  -0.493  -1.353  0.00  0.00    +0.325 C 
ATOM     36  O   UNL     1       1.485  -1.097  -1.468  0.00  0.00    -0.249 OA
BRANCH  35  37
ATOM     37  O   UNL     1      -0.318  -0.258  -2.433  0.00  0.00    -0.467 OA
ATOM     38  C   UNL     1       0.171  -0.758  -3.706  0.00  0.00    +0.280 C 
ENDBRANCH  35  37
ENDBRANCH   7  35
TORSDOF 8
