REMARK  Name = ZINC02659635
REMARK  3 active torsions:
REMARK  status: ('A' for Active; 'I' for Inactive)
REMARK    1  A    between atoms: C_3  and  C_6
REMARK    2  A    between atoms: C_7  and  C_19
REMARK    3  A    between atoms: C_9  and  N_11
REMARK                            x       y       z     vdW  Elec       q    Type
REMARK                         _______ _______ _______ _____ _____    ______ ____
ROOT
ATOM      1  C   UNL     1       3.759   1.835   0.028  0.00  0.00    +0.095 A 
ATOM      2  C   UNL     1       4.765   1.191   0.754  0.00  0.00    +0.056 A 
ATOM      3  S   UNL     1       6.183   2.184   0.306  0.00  0.00    -0.047 S 
ATOM      4  C   UNL     1       5.329   3.327  -0.770  0.00  0.00    +0.195 A 
ATOM      5  N   UNL     1       4.083   2.879  -0.713  0.00  0.00    -0.220 NA
ENDROOT
BRANCH   4   6
ATOM      6  N   UNL     1       5.830   4.380  -1.472  0.00  0.00    -0.211 NA
ATOM      7  C   UNL     1       5.953   5.547  -0.899  0.00  0.00    +0.098 C 
ATOM      8  C   UNL     1       5.425   5.763   0.517  0.00  0.00    +0.071 C 
ATOM      9  C   UNL     1       6.625   5.933   1.424  0.00  0.00    +0.007 C 
ATOM     10  C   UNL     1       7.105   7.381   1.533  0.00  0.00    +0.002 C 
ATOM     11  C   UNL     1       7.124   8.108   0.188  0.00  0.00    +0.019 C 
ATOM     12  C   UNL     1       7.676   7.263  -0.939  0.00  0.00    +0.102 C 
ATOM     13  N   UNL     1       6.536   6.536  -1.537  0.00  0.00    -0.332 N 
ATOM     14  H   UNL     1       6.215   6.795  -2.415  0.00  0.00    +0.147 HD
ENDBRANCH   4   6
BRANCH   1  17
ATOM     15  C   UNL     1       0.322   0.568   0.978  0.00  0.00    +0.008 A 
ATOM     16  C   UNL     1       1.620   0.988   1.175  0.00  0.00    +0.018 A 
ATOM     17  C   UNL     1       2.365   1.355   0.083  0.00  0.00    +0.039 A 
ATOM     18  S   UNL     1       1.209   1.100  -1.253  0.00  0.00    -0.095 S 
ATOM     19  C   UNL     1      -0.177   0.528  -0.283  0.00  0.00    +0.046 A 
ENDBRANCH   1  17
BRANCH   2  20
ATOM     20  C   UNL     1       4.681   0.023   1.639  0.00  0.00    +0.028 A 
ATOM     21  C   UNL     1       5.657  -0.532   2.448  0.00  0.00    +0.017 A 
ATOM     22  C   UNL     1       5.334  -1.642   3.196  0.00  0.00    +0.008 A 
ATOM     23  C   UNL     1       4.079  -2.153   3.118  0.00  0.00    +0.046 A 
ATOM     24  S   UNL     1       3.289  -1.049   1.960  0.00  0.00    -0.096 S 
ENDBRANCH   2  20
TORSDOF 3
