REMARK  Name = ZINC59619549
REMARK  4 active torsions:
REMARK  status: ('A' for Active; 'I' for Inactive)
REMARK    1  A    between atoms: C_12  and  C_14
REMARK    2  A    between atoms: N_24  and  C_27
REMARK    3  A    between atoms: C_30  and  O_33
REMARK    4  A    between atoms: O_33  and  C_34
REMARK                            x       y       z     vdW  Elec       q    Type
REMARK                         _______ _______ _______ _____ _____    ______ ____
ROOT
ATOM      1  C   UNL     1      -0.240   1.300  -0.265  0.00  0.00    +0.033 C 
ATOM      2  C   UNL     1      -0.151  -0.036  -0.183  0.00  0.00    +0.031 C 
ATOM      3  C   UNL     1      -1.358  -0.877  -0.093  0.00  0.00    +0.090 C 
ATOM      4  C   UNL     1      -1.230  -2.215  -0.224  0.00  0.00    +0.249 C 
ATOM      5  O   UNL     1      -2.329  -3.005  -0.177  0.00  0.00    -0.270 OA
ATOM      6  N   UNL     1       0.015  -2.781  -0.406  0.00  0.00    -0.219 N 
ATOM      7  C   UNL     1       1.129  -1.999  -0.566  0.00  0.00    +0.198 C 
ATOM      8  N   UNL     1       1.095  -0.685  -0.186  0.00  0.00    -0.287 N 
ATOM      9  N   UNL     1       2.206  -2.504  -1.130  0.00  0.00    -0.186 NA
ATOM     10  C   UNL     1       2.215  -3.769  -1.585  0.00  0.00    +0.196 C 
ATOM     11  N   UNL     1       1.264  -4.614  -1.296  0.00  0.00    -0.338 N 
ATOM     12  C   UNL     1       0.174  -4.241  -0.391  0.00  0.00    +0.183 C 
ATOM     13  N   UNL     1       3.263  -4.187  -2.380  0.00  0.00    -0.298 N 
ATOM     14  C   UNL     1       3.888  -3.265  -3.339  0.00  0.00    +0.127 C 
ATOM     15  C   UNL     1       5.394  -3.208  -3.055  0.00  0.00    +0.124 C 
ATOM     16  N   UNL     1       5.906  -4.583  -2.957  0.00  0.00    -0.327 N 
ATOM     17  C   UNL     1       5.281  -5.505  -1.998  0.00  0.00    +0.124 C 
ATOM     18  C   UNL     1       3.778  -5.559  -2.278  0.00  0.00    +0.127 C 
ATOM     19  H   UNL     1       1.278  -5.502  -1.687  0.00  0.00    +0.164 HD
ATOM     20  H   UNL     1       1.905  -0.219   0.077  0.00  0.00    +0.155 HD
ENDROOT
BRANCH  12  21
ATOM     21  C   UNL     1       0.507  -4.704   1.029  0.00  0.00    +0.034 C 
ATOM     22  C   UNL     1      -0.632  -4.316   1.979  0.00  0.00    +0.011 C 
ATOM     23  C   UNL     1      -0.196  -4.630   3.412  0.00  0.00    +0.027 C 
ATOM     24  C   UNL     1       0.346  -6.027   3.493  0.00  0.00    -0.031 C 
ATOM     25  C   UNL     1       0.722  -6.720   2.466  0.00  0.00    -0.031 C 
ATOM     26  C   UNL     1       0.664  -6.226   1.049  0.00  0.00    +0.034 C 
ENDBRANCH  12  21
BRANCH  16  27
ATOM     27  C   UNL     1       6.968  -5.006  -3.763  0.00  0.00    +0.030 A 
ATOM     28  C   UNL     1       7.359  -6.339  -3.754  0.00  0.00    +0.027 A 
ATOM     29  C   UNL     1       8.407  -6.756  -4.550  0.00  0.00    +0.047 A 
ATOM     30  C   UNL     1       9.070  -5.845  -5.359  0.00  0.00    +0.120 A 
ATOM     31  C   UNL     1       8.680  -4.513  -5.369  0.00  0.00    +0.047 A 
ATOM     32  C   UNL     1       7.628  -4.096  -4.577  0.00  0.00    +0.027 A 
BRANCH  30  33
ATOM     33  O   UNL     1      10.102  -6.256  -6.143  0.00  0.00    -0.495 OA
ATOM     34  C   UNL     1      10.739  -5.264  -6.951  0.00  0.00    +0.277 C 
ENDBRANCH  30  33
ENDBRANCH  16  27
TORSDOF 3
