REMARK  Name = ZINC37352915
REMARK  7 active torsions:
REMARK  status: ('A' for Active; 'I' for Inactive)
REMARK    1  A    between atoms: C_1  and  C_2
REMARK    2  A    between atoms: C_4  and  C_21
REMARK    3  A    between atoms: C_6  and  N_8
REMARK    4  A    between atoms: C_9  and  C_20
REMARK    5  A    between atoms: C_10  and  C_19
REMARK    6  A    between atoms: C_14  and  C_18
REMARK    7  A    between atoms: C_16  and  N_17
REMARK                            x       y       z     vdW  Elec       q    Type
REMARK                         _______ _______ _______ _____ _____    ______ ____
ROOT
ATOM      1  N   UNL     1       0.052  -2.798   2.394  0.00  0.00    -0.298 N 
ATOM      2  C   UNL     1      -0.965  -2.805   3.317  0.00  0.00    +0.026 A 
ATOM      3  C   UNL     1      -0.629  -3.584   4.358  0.00  0.00    -0.017 A 
ATOM      4  C   UNL     1       0.704  -4.114   4.078  0.00  0.00    +0.062 A 
ATOM      5  C   UNL     1       1.081  -3.592   2.827  0.00  0.00    +0.151 A 
ATOM      6  N   UNL     1       2.269  -3.929   2.329  0.00  0.00    -0.214 NA
ATOM      7  C   UNL     1       3.071  -4.735   2.990  0.00  0.00    +0.130 A 
ATOM      8  N   UNL     1       2.756  -5.250   4.164  0.00  0.00    -0.217 NA
ATOM      9  C   UNL     1       1.595  -4.966   4.748  0.00  0.00    +0.129 A 
ATOM     10  C   UNL     1       4.405  -5.085   2.381  0.00  0.00    +0.088 C 
ATOM     11  C   UNL     1      -1.466  -3.858   5.581  0.00  0.00    +0.046 C 
ATOM     12  C   UNL     1      -2.263  -2.051   3.181  0.00  0.00    +0.064 C 
ENDROOT
BRANCH   1  18
ATOM     13  C   UNL     1      -0.018   1.503   0.010  0.00  0.00    +0.044 C 
ATOM     14  C   UNL     1       0.002  -0.004   0.002  0.00  0.00    -0.048 A 
ATOM     15  C   UNL     1       0.006  -0.688  -1.200  0.00  0.00    +0.006 A 
ATOM     16  C   UNL     1       0.025  -2.071  -1.211  0.00  0.00    -0.048 A 
ATOM     17  C   UNL     1       0.040  -2.773  -0.022  0.00  0.00    +0.029 A 
ATOM     18  C   UNL     1       0.037  -2.089   1.186  0.00  0.00    +0.049 A 
ATOM     19  C   UNL     1       0.023  -0.700   1.195  0.00  0.00    +0.029 A 
ATOM     20  C   UNL     1       0.028  -2.812  -2.523  0.00  0.00    +0.044 C 
ENDBRANCH   1  18
BRANCH   9  21
ATOM     21  N   UNL     1       1.269  -5.509   5.978  0.00  0.00    -0.343 N 
ATOM     22  H   UNL     1       0.414  -5.303   6.387  0.00  0.00    +0.144 HD
ATOM     23  H   UNL     1       1.894  -6.097   6.430  0.00  0.00    +0.144 HD
ENDBRANCH   9  21
TORSDOF 2
