REMARK  Name = ZINC12469923
REMARK  8 active torsions:
REMARK  status: ('A' for Active; 'I' for Inactive)
REMARK    1  A    between atoms: C_1  and  C_2
REMARK    2  A    between atoms: C_6  and  C_15
REMARK    3  A    between atoms: C_13  and  C_14
REMARK    4  A    between atoms: C_15  and  C_17
REMARK    5  A    between atoms: C_15  and  N_63
REMARK    6  A    between atoms: N_21  and  C_22
REMARK    7  A    between atoms: C_22  and  C_23
REMARK    8  A    between atoms: C_32  and  C_35
REMARK                            x       y       z     vdW  Elec       q    Type
REMARK                         _______ _______ _______ _____ _____    ______ ____
ROOT
ATOM      1  C   UNL     1      -0.313   0.635  -1.924  0.00  0.00    +0.039 C 
ENDROOT
BRANCH   1   7
ATOM      2  C   UNL     1       7.136   0.618  -2.287  0.00  0.00    +0.044 C 
ATOM      3  C   UNL     1       5.835   1.328  -2.012  0.00  0.00    -0.047 A 
ATOM      4  C   UNL     1       4.654   0.656  -2.156  0.00  0.00    +0.013 A 
ATOM      5  C   UNL     1       3.447   1.314  -1.901  0.00  0.00    -0.001 A 
ATOM      6  C   UNL     1       2.163   0.624  -2.041  0.00  0.00    +0.017 A 
ATOM      7  C   UNL     1       1.025   1.315  -1.786  0.00  0.00    +0.011 A 
ATOM      8  C   UNL     1       1.088   2.667  -1.385  0.00  0.00    +0.251 A 
ATOM      9  O   UNL     1       0.053   3.268  -1.156  0.00  0.00    -0.268 OA
ATOM     10  N   UNL     1       2.262   3.308  -1.249  0.00  0.00    -0.322 N 
ATOM     11  H   UNL     1       2.270   4.238  -0.973  0.00  0.00    +0.169 HD
ATOM     12  C   UNL     1       3.455   2.663  -1.499  0.00  0.00    +0.049 A 
ATOM     13  C   UNL     1       4.670   3.326  -1.359  0.00  0.00    +0.030 A 
ATOM     14  C   UNL     1       5.848   2.658  -1.615  0.00  0.00    -0.046 A 
ATOM     15  C   UNL     1       7.162   3.378  -1.463  0.00  0.00    +0.044 C 
ENDBRANCH   1   7
BRANCH   1  22
ATOM     16  C   UNL     1      -2.320   0.001  -0.728  0.00  0.00    -0.077 C 
ATOM     17  C   UNL     1      -3.092   0.198   0.579  0.00  0.00    -0.018 C 
ATOM     18  C   UNL     1      -2.272  -0.371   1.741  0.00  0.00    -0.001 C 
ATOM     19  C   UNL     1      -0.908   0.324   1.781  0.00  0.00    -0.031 C 
ATOM     20  C   UNL     1      -0.200   0.124   0.439  0.00  0.00    -0.074 C 
ATOM     21  C   UNL     1      -0.060  -0.281   2.901  0.00  0.00    +0.005 C 
ATOM     22  N   UNL     1      -1.028   0.714  -0.634  0.00  0.00    +0.389 N 
ATOM     23  H   UNL     1      -1.207   1.700  -0.411  0.00  0.00    -0.080 HD
ENDBRANCH   1  22
BRANCH   1  24
ATOM     24  C   UNL     1      -0.107  -0.802  -2.329  0.00  0.00    +0.143 A 
ATOM     25  N   UNL     1       0.367  -1.766  -1.578  0.00  0.00    -0.115 NA
ATOM     26  N   UNL     1       0.388  -2.845  -2.282  0.00  0.00    -0.023 NA
ATOM     27  N   UNL     1      -0.053  -2.592  -3.465  0.00  0.00    -0.044 NA
ATOM     28  N   UNL     1      -0.368  -1.343  -3.533  0.00  0.00    -0.226 N 
BRANCH  28  29
ATOM     29  C   UNL     1      -0.909  -0.645  -4.702  0.00  0.00    +0.182 C 
BRANCH  29  30
ATOM     30  C   UNL     1       0.223  -0.208  -5.596  0.00  0.00    -0.026 A 
ATOM     31  C   UNL     1       0.729   1.074  -5.494  0.00  0.00    +0.005 A 
ATOM     32  C   UNL     1       1.771   1.472  -6.310  0.00  0.00    +0.000 A 
ATOM     33  C   UNL     1       2.300   0.592  -7.235  0.00  0.00    +0.000 A 
ATOM     34  C   UNL     1       1.790  -0.688  -7.341  0.00  0.00    +0.000 A 
ATOM     35  C   UNL     1       0.752  -1.089  -6.521  0.00  0.00    +0.005 A 
ENDBRANCH  29  30
ENDBRANCH  28  29
ENDBRANCH   1  24
TORSDOF 5
