REMARK  Name = ZINC41001361
REMARK  8 active torsions:
REMARK  status: ('A' for Active; 'I' for Inactive)
REMARK    1  A    between atoms: C_1  and  C_2
REMARK    2  A    between atoms: C_2  and  C_3
REMARK    3  A    between atoms: C_3  and  C_5
REMARK    4  A    between atoms: C_3  and  O_25
REMARK    5  A    between atoms: C_10  and  C_24
REMARK    6  A    between atoms: C_11  and  C_13
REMARK    7  A    between atoms: C_15  and  C_18
REMARK    8  A    between atoms: O_25  and  C_26
REMARK                            x       y       z     vdW  Elec       q    Type
REMARK                         _______ _______ _______ _____ _____    ______ ____
ROOT
ATOM      1  C   UNL     1      -1.522  -2.038   0.175  0.00  0.00    +0.259 C 
ATOM      2  O   UNL     1      -1.993  -2.719  -0.711  0.00  0.00    -0.271 OA
ATOM      3  N   UNL     1      -1.068  -2.620   1.303  0.00  0.00    -0.262 N 
ATOM      4  C   UNL     1      -1.139  -3.997   1.449  0.00  0.00    +0.165 A 
ATOM      5  N   UNL     1      -1.609  -4.886   0.595  0.00  0.00    -0.229 NA
ATOM      6  C   UNL     1      -1.609  -6.168   0.876  0.00  0.00    +0.060 A 
ATOM      7  C   UNL     1      -1.097  -6.532   2.100  0.00  0.00    +0.101 A 
ATOM      8  S   UNL     1      -0.640  -4.934   2.754  0.00  0.00    -0.047 S 
ATOM      9  C   UNL     1      -2.144  -7.190  -0.094  0.00  0.00    +0.067 C 
ATOM     10  H   UNL     1      -0.692  -2.076   2.012  0.00  0.00    +0.157 HD
ENDROOT
BRANCH   7  11
ATOM     11  C   UNL     1      -0.960  -7.863   2.699  0.00  0.00    +0.267 A 
ATOM     12  N   UNL     1      -0.460  -8.128   3.889  0.00  0.00    -0.187 NA
ATOM     13  C   UNL     1      -0.488  -9.450   4.112  0.00  0.00    +0.202 A 
ATOM     14  N   UNL     1      -1.009 -10.046   3.066  0.00  0.00    -0.056 NA
ATOM     15  O   UNL     1      -1.330  -9.027   2.132  0.00  0.00    -0.332 OA
BRANCH  13  16
ATOM     16  C   UNL     1      -0.009 -10.128   5.342  0.00  0.00    +0.022 A 
ATOM     17  C   UNL     1       0.521  -9.380   6.391  0.00  0.00    +0.012 A 
ATOM     18  C   UNL     1       0.965 -10.016   7.533  0.00  0.00    +0.001 A 
ATOM     19  C   UNL     1       0.884 -11.393   7.637  0.00  0.00    +0.000 A 
ATOM     20  C   UNL     1       0.359 -12.140   6.598  0.00  0.00    +0.001 A 
ATOM     21  C   UNL     1      -0.093 -11.514   5.454  0.00  0.00    +0.012 A 
ENDBRANCH  13  16
ENDBRANCH   7  11
BRANCH   1  22
ATOM     22  C   UNL     1      -1.445  -0.541   0.017  0.00  0.00    +0.259 C 
BRANCH  22  24
ATOM     23  C   UNL     1       0.101   1.420  -0.059  0.00  0.00    +0.008 C 
ATOM     24  C   UNL     1       0.021  -0.108  -0.023  0.00  0.00    +0.051 C 
ENDBRANCH  22  24
BRANCH  22  25
ATOM     25  O   UNL     1      -2.089  -0.158  -1.200  0.00  0.00    -0.477 OA
BRANCH  25  26
ATOM     26  C   UNL     1      -2.834   0.979  -1.172  0.00  0.00    +0.157 A 
ATOM     27  C   UNL     1      -2.848   1.772  -0.035  0.00  0.00    +0.048 A 
ATOM     28  C   UNL     1      -3.606   2.928  -0.009  0.00  0.00    +0.004 A 
ATOM     29  C   UNL     1      -4.350   3.294  -1.115  0.00  0.00    +0.003 A 
ATOM     30  C   UNL     1      -4.339   2.506  -2.251  0.00  0.00    +0.042 A 
ATOM     31  C   UNL     1      -3.577   1.352  -2.285  0.00  0.00    +0.165 A 
ATOM     32  F   UNL     1      -3.561   0.584  -3.397  0.00  0.00    -0.202 F 
ENDBRANCH  25  26
ENDBRANCH  22  25
ENDBRANCH   1  22
TORSDOF 6
