REMARK  Name = ZINC39659893
REMARK  3 active torsions:
REMARK  status: ('A' for Active; 'I' for Inactive)
REMARK    1  A    between atoms: C_9  and  C_12
REMARK    2  A    between atoms: C_16  and  C_25
REMARK    3  A    between atoms: N_27  and  C_28
REMARK                            x       y       z     vdW  Elec       q    Type
REMARK                         _______ _______ _______ _____ _____    ______ ____
ROOT
ATOM      1  C   UNL     1       4.560  -2.674  -0.075  0.00  0.00    +0.260 C 
ATOM      2  O   UNL     1       5.318  -1.970   0.558  0.00  0.00    -0.271 OA
ATOM      3  N   UNL     1       4.921  -3.931  -0.402  0.00  0.00    -0.297 N 
ATOM      4  C   UNL     1       4.141  -4.930  -1.169  0.00  0.00    +0.121 C 
ATOM      5  C   UNL     1       5.183  -5.634  -2.066  0.00  0.00    +0.100 C 
ATOM      6  C   UNL     1       6.524  -5.433  -1.341  0.00  0.00    -0.004 C 
ATOM      7  C   UNL     1       6.191  -4.624  -0.080  0.00  0.00    +0.115 C 
ATOM      8  C   UNL     1       7.489  -4.647  -2.225  0.00  0.00    -0.010 C 
ATOM      9  C   UNL     1       8.834  -4.509  -1.506  0.00  0.00    -0.082 C 
ATOM     10  N   UNL     1       9.377  -5.843  -1.219  0.00  0.00    +0.379 N 
ATOM     11  C   UNL     1       8.488  -6.557  -0.294  0.00  0.00    -0.082 C 
ATOM     12  C   UNL     1       7.128  -6.781  -0.962  0.00  0.00    -0.010 C 
ATOM     13  H   UNL     1       9.455  -6.365  -2.079  0.00  0.00    -0.086 HD
ATOM     14  H   UNL     1      10.290  -5.750  -0.800  0.00  0.00    -0.086 HD
ENDROOT
BRANCH   1  23
ATOM     15  C   UNL     1      -0.681   0.904  -0.230  0.00  0.00    +0.004 A 
ATOM     16  C   UNL     1       0.439   1.714  -0.193  0.00  0.00    +0.004 A 
ATOM     17  C   UNL     1       1.700   1.151  -0.155  0.00  0.00    +0.049 A 
ATOM     18  C   UNL     1       1.846  -0.229  -0.156  0.00  0.00    +0.163 A 
ATOM     19  C   UNL     1       0.720  -1.042  -0.196  0.00  0.00    +0.162 A 
ATOM     20  C   UNL     1      -0.543  -0.471  -0.232  0.00  0.00    +0.049 A 
ATOM     21  O   UNL     1       0.840  -2.398  -0.206  0.00  0.00    -0.484 OA
ATOM     22  C   UNL     1       2.102  -2.935   0.206  0.00  0.00    +0.283 C 
ATOM     23  C   UNL     1       3.213  -2.144  -0.497  0.00  0.00    +0.296 C 
ATOM     24  O   UNL     1       3.094  -0.769  -0.115  0.00  0.00    -0.473 OA
ENDBRANCH   1  23
BRANCH   5  25
ATOM     25  C   UNL     1       5.219  -4.994  -3.430  0.00  0.00    +0.218 C 
ATOM     26  O   UNL     1       4.965  -3.815  -3.553  0.00  0.00    -0.275 OA
ATOM     27  N   UNL     1       5.535  -5.732  -4.513  0.00  0.00    -0.312 N 
ATOM     28  H   UNL     1       5.738  -6.675  -4.414  0.00  0.00    +0.149 HD
BRANCH  27  29
ATOM     29  C   UNL     1       5.570  -5.110  -5.838  0.00  0.00    +0.073 C 
ATOM     30  C   UNL     1       6.938  -4.463  -6.062  0.00  0.00    +0.022 C 
ATOM     31  C   UNL     1       7.126  -4.169  -7.552  0.00  0.00    +0.002 C 
ATOM     32  C   UNL     1       6.302  -2.939  -7.937  0.00  0.00    +0.000 C 
ATOM     33  C   UNL     1       4.825  -3.325  -8.034  0.00  0.00    +0.000 C 
ATOM     34  C   UNL     1       4.692  -4.652  -8.783  0.00  0.00    +0.000 C 
ATOM     35  C   UNL     1       4.185  -5.730  -7.823  0.00  0.00    +0.002 C 
ATOM     36  C   UNL     1       5.328  -6.176  -6.909  0.00  0.00    +0.022 C 
ENDBRANCH  27  29
ENDBRANCH   5  25
TORSDOF 3
