REMARK  Name = ZINC10735567
REMARK  5 active torsions:
REMARK  status: ('A' for Active; 'I' for Inactive)
REMARK    1  A    between atoms: C_1  and  C_2
REMARK    2  A    between atoms: C_5  and  C_7
REMARK    3  A    between atoms: N_9  and  N_10
REMARK    4  A    between atoms: C_11  and  C_13
REMARK    5  A    between atoms: C_16  and  C_18
REMARK                            x       y       z     vdW  Elec       q    Type
REMARK                         _______ _______ _______ _____ _____    ______ ____
ROOT
ATOM      1  N   UNL     1      -1.451   4.916   2.840  0.00  0.00    -0.230 N 
ATOM      2  C   UNL     1      -2.402   5.564   3.542  0.00  0.00    +0.267 C 
ATOM      3  O   UNL     1      -3.528   5.104   3.610  0.00  0.00    -0.268 OA
ATOM      4  H   UNL     1      -0.555   5.282   2.786  0.00  0.00    +0.173 HD
ENDROOT
BRANCH   2   5
ATOM      5  C   UNL     1      -2.083   6.821   4.222  0.00  0.00    +0.076 A 
ATOM      6  C   UNL     1      -2.908   7.633   4.986  0.00  0.00    +0.021 A 
ATOM      7  C   UNL     1      -2.385   8.773   5.530  0.00  0.00    +0.017 A 
ATOM      8  C   UNL     1      -1.053   9.072   5.297  0.00  0.00    +0.020 A 
ATOM      9  S   UNL     1      -0.528   7.697   4.287  0.00  0.00    -0.084 S 
BRANCH   8  10
ATOM     10  C   UNL     1      -0.266  10.230   5.769  0.00  0.00    -0.011 A 
ATOM     11  C   UNL     1      -0.867  11.211   6.560  0.00  0.00    +0.012 A 
ATOM     12  C   UNL     1      -0.127  12.286   7.003  0.00  0.00    +0.039 A 
ATOM     13  C   UNL     1       1.210  12.401   6.655  0.00  0.00    +0.123 A 
ATOM     14  C   UNL     1       1.811  11.434   5.864  0.00  0.00    +0.039 A 
ATOM     15  C   UNL     1       1.081  10.351   5.421  0.00  0.00    +0.012 A 
ATOM     16  F   UNL     1       1.930  13.459   7.087  0.00  0.00    -0.205 F 
ENDBRANCH   8  10
ENDBRANCH   2   5
BRANCH   1  19
ATOM     17  C   UNL     1      -0.806   3.066   1.488  0.00  0.00    +0.232 C 
ATOM     18  O   UNL     1       0.315   3.524   1.420  0.00  0.00    -0.274 OA
ATOM     19  N   UNL     1      -1.758   3.714   2.189  0.00  0.00    -0.234 N 
ATOM     20  H   UNL     1      -2.654   3.348   2.244  0.00  0.00    +0.173 HD
BRANCH  17  24
ATOM     21  C   UNL     1       1.359   1.764  -0.001  0.00  0.00    +0.008 C 
ATOM     22  C   UNL     1      -0.013   1.086   0.008  0.00  0.00    -0.001 C 
ATOM     23  C   UNL     1      -1.150   1.781  -0.743  0.00  0.00    +0.017 C 
ATOM     24  C   UNL     1      -1.136   1.773   0.788  0.00  0.00    +0.080 C 
ENDBRANCH  17  24
ENDBRANCH   1  19
TORSDOF 4
