REMARK  Name = ZINC39541761
REMARK  5 active torsions:
REMARK  status: ('A' for Active; 'I' for Inactive)
REMARK    1  A    between atoms: N_9  and  C_10
REMARK    2  A    between atoms: C_15  and  O_16
REMARK    3  A    between atoms: C_21  and  O_37
REMARK    4  A    between atoms: C_22  and  C_30
REMARK    5  A    between atoms: C_35  and  O_36
REMARK                            x       y       z     vdW  Elec       q    Type
REMARK                         _______ _______ _______ _____ _____    ______ ____
ROOT
ATOM      1  C   UNL     1      -0.017   1.367   0.010  0.00  0.00    +0.001 A 
ATOM      2  C   UNL     1       1.146   2.122   0.003  0.00  0.00    +0.002 A 
ATOM      3  C   UNL     1       2.401   1.541  -0.013  0.00  0.00    +0.027 A 
ATOM      4  C   UNL     1       2.454   0.149  -0.021  0.00  0.00    +0.055 A 
ATOM      5  C   UNL     1       1.260  -0.627  -0.013  0.00  0.00    +0.004 A 
ATOM      6  C   UNL     1       0.002  -0.004   0.002  0.00  0.00    +0.010 A 
ATOM      7  C   UNL     1       1.649  -1.962  -0.023  0.00  0.00    -0.009 A 
ATOM      8  C   UNL     1       3.026  -2.000  -0.036  0.00  0.00    +0.094 A 
ATOM      9  N   UNL     1       3.514  -0.718  -0.037  0.00  0.00    -0.303 N 
ATOM     10  C   UNL     1       3.730  -3.295  -0.045  0.00  0.00    +0.161 A 
ATOM     11  N   UNL     1       4.994  -3.362   0.289  0.00  0.00    -0.227 NA
ATOM     12  C   UNL     1       5.661  -4.531   0.323  0.00  0.00    +0.082 A 
ATOM     13  C   UNL     1       7.015  -4.585   0.665  0.00  0.00    +0.074 A 
ATOM     14  C   UNL     1       7.667  -5.801   0.697  0.00  0.00    +0.127 A 
ATOM     15  C   UNL     1       6.980  -6.988   0.390  0.00  0.00    +0.028 A 
ATOM     16  C   UNL     1       5.636  -6.950   0.046  0.00  0.00    +0.027 A 
ATOM     17  C   UNL     1       4.972  -5.727   0.007  0.00  0.00    +0.066 A 
ATOM     18  C   UNL     1       3.554  -5.633  -0.365  0.00  0.00    +0.262 A 
ATOM     19  O   UNL     1       2.904  -6.630  -0.623  0.00  0.00    -0.267 OA
ATOM     20  N   UNL     1       2.994  -4.403  -0.413  0.00  0.00    -0.291 N 
ATOM     21  C   UNL     1       1.614  -4.258  -0.889  0.00  0.00    +0.131 C 
ATOM     22  C   UNL     1       0.849  -3.244  -0.024  0.00  0.00    +0.059 C 
ENDROOT
BRANCH   9  23
ATOM     23  C   UNL     1       4.868  -0.357  -0.052  0.00  0.00    +0.089 A 
ATOM     24  C   UNL     1       5.556  -0.188   1.140  0.00  0.00    +0.030 A 
ATOM     25  C   UNL     1       6.892   0.168   1.122  0.00  0.00    +0.002 A 
ATOM     26  C   UNL     1       7.545   0.356  -0.082  0.00  0.00    +0.004 A 
ATOM     27  C   UNL     1       6.865   0.190  -1.274  0.00  0.00    +0.047 A 
ATOM     28  C   UNL     1       5.528  -0.172  -1.266  0.00  0.00    +0.141 A 
BRANCH  28  29
ATOM     29  O   UNL     1       4.860  -0.342  -2.438  0.00  0.00    -0.505 OA
ATOM     30  H   UNL     1       4.439   0.463  -2.770  0.00  0.00    +0.292 HD
ENDBRANCH  28  29
ENDBRANCH   9  23
BRANCH  15  31
ATOM     31  C   UNL     1       7.694  -8.286   0.433  0.00  0.00    +0.027 A 
ATOM     32  C   UNL     1       7.881  -9.022  -0.735  0.00  0.00    +0.012 A 
ATOM     33  C   UNL     1       8.547 -10.230  -0.689  0.00  0.00    +0.001 A 
ATOM     34  C   UNL     1       9.031 -10.714   0.514  0.00  0.00    +0.004 A 
ATOM     35  C   UNL     1       8.851  -9.992   1.679  0.00  0.00    +0.046 A 
ATOM     36  C   UNL     1       8.189  -8.776   1.647  0.00  0.00    +0.125 A 
BRANCH  36  37
ATOM     37  O   UNL     1       8.017  -8.063   2.790  0.00  0.00    -0.506 OA
ATOM     38  H   UNL     1       7.201  -8.273   3.266  0.00  0.00    +0.292 HD
ENDBRANCH  36  37
ENDBRANCH  15  31
BRANCH  14  39
ATOM     39  O   UNL     1       8.982  -5.850   1.027  0.00  0.00    -0.506 OA
ATOM     40  H   UNL     1       9.146  -5.959   1.974  0.00  0.00    +0.292 HD
ENDBRANCH  14  39
TORSDOF 5
