REMARK  Name = ZINC05390563
REMARK  2 active torsions:
REMARK  status: ('A' for Active; 'I' for Inactive)
REMARK    1  A    between atoms: C_1  and  C_2
REMARK    2  A    between atoms: C_7  and  C_21
REMARK                            x       y       z     vdW  Elec       q    Type
REMARK                         _______ _______ _______ _____ _____    ______ ____
ROOT
ATOM      1  C   UNL     1       3.681   2.138  -0.639  0.00  0.00    +0.008 C 
ATOM      2  C   UNL     1       2.352   1.383  -0.703  0.00  0.00    -0.001 C 
ATOM      3  C   UNL     1       2.493   0.035   0.009  0.00  0.00    +0.055 C 
ATOM      4  C   UNL     1       1.169  -0.685  -0.009  0.00  0.00    +0.019 C 
ATOM      5  C   UNL     1       0.002  -0.004   0.002  0.00  0.00    +0.039 C 
ATOM      6  C   UNL     1      -1.310  -0.746   0.011  0.00  0.00    +0.147 C 
ATOM      7  C   UNL     1       0.011  -2.721  -0.413  0.00  0.00    +0.166 C 
ATOM      8  N   UNL     1       1.155  -2.055  -0.033  0.00  0.00    -0.292 N 
ATOM      9  N   UNL     1       0.095  -4.038  -0.812  0.00  0.00    -0.243 N 
ATOM     10  C   UNL     1      -1.044  -4.717  -1.195  0.00  0.00    +0.295 A 
ATOM     11  N   UNL     1      -1.077  -5.964  -1.589  0.00  0.00    -0.195 NA
ATOM     12  C   UNL     1      -2.363  -6.295  -1.886  0.00  0.00    +0.111 A 
ATOM     13  C   UNL     1      -2.977  -7.461  -2.343  0.00  0.00    +0.031 A 
ATOM     14  C   UNL     1      -4.338  -7.479  -2.554  0.00  0.00    +0.002 A 
ATOM     15  C   UNL     1      -5.100  -6.346  -2.315  0.00  0.00    +0.004 A 
ATOM     16  C   UNL     1      -4.506  -5.185  -1.863  0.00  0.00    +0.048 A 
ATOM     17  C   UNL     1      -3.138  -5.150  -1.646  0.00  0.00    +0.157 A 
ATOM     18  O   UNL     1      -2.283  -4.195  -1.213  0.00  0.00    -0.424 OA
ATOM     19  C   UNL     1      -0.017   1.400   0.010  0.00  0.00    +0.163 C 
ATOM     20  O   UNL     1      -1.083   1.983   0.018  0.00  0.00    -0.292 OA
ATOM     21  C   UNL     1       1.261   2.195   0.002  0.00  0.00    +0.083 C 
ATOM     22  H   UNL     1       1.948  -2.554   0.217  0.00  0.00    +0.154 HD
ATOM     23  H   UNL     1       0.954  -4.488  -0.822  0.00  0.00    +0.159 HD
ATOM     24  N   UNL     1      -1.211  -2.179  -0.429  0.00  0.00    -0.350 N 
ATOM     25  H   UNL     1      -2.036  -2.713  -0.726  0.00  0.00    +0.163 HD
ENDROOT
BRANCH   6  26
ATOM     26  C   UNL     1      -1.884  -0.714   1.404  0.00  0.00    -0.015 A 
ATOM     27  C   UNL     1      -1.420  -1.595   2.362  0.00  0.00    +0.044 A 
ATOM     28  C   UNL     1      -1.943  -1.565   3.644  0.00  0.00    +0.126 A 
ATOM     29  C   UNL     1      -2.940  -0.658   3.962  0.00  0.00    +0.076 A 
ATOM     30  C   UNL     1      -3.408   0.220   3.001  0.00  0.00    +0.126 A 
ATOM     31  C   UNL     1      -2.879   0.192   1.721  0.00  0.00    +0.044 A 
ATOM     32  F   UNL     1      -4.381   1.105   3.310  0.00  0.00    -0.205 F 
ATOM     33  F   UNL     1      -1.486  -2.423   4.582  0.00  0.00    -0.205 F 
ENDBRANCH   6  26
TORSDOF 1
