REMARK  Name = ZINC12709637
REMARK  8 active torsions:
REMARK  status: ('A' for Active; 'I' for Inactive)
REMARK    1  A    between atoms: C_3  and  C_6
REMARK    2  A    between atoms: C_6  and  N_7
REMARK    3  A    between atoms: N_7  and  C_8
REMARK    4  A    between atoms: C_8  and  C_9
REMARK    5  A    between atoms: N_11  and  C_12
REMARK    6  A    between atoms: C_17  and  C_19
REMARK    7  A    between atoms: C_20  and  N_27
REMARK    8  A    between atoms: C_21  and  C_24
REMARK                            x       y       z     vdW  Elec       q    Type
REMARK                         _______ _______ _______ _____ _____    ______ ____
ROOT
ATOM      1  N   UNL     1      -0.511   1.299   6.260  0.00  0.00    -0.281 N 
ATOM      2  C   UNL     1       0.483   2.174   6.513  0.00  0.00    +0.257 C 
ATOM      3  O   UNL     1       1.489   2.167   5.829  0.00  0.00    -0.269 OA
ENDROOT
BRANCH   2   4
ATOM      4  C   UNL     1       0.352   3.133   7.612  0.00  0.00    +0.115 A 
ATOM      5  C   UNL     1       1.292   4.031   8.120  0.00  0.00    +0.076 A 
ATOM      6  C   UNL     1       0.790   4.789   9.178  0.00  0.00    +0.155 A 
ATOM      7  N   UNL     1      -0.445   4.590   9.582  0.00  0.00    -0.203 NA
ATOM      8  S   UNL     1      -1.047   3.459   8.665  0.00  0.00    +0.019 S 
BRANCH   6   9
ATOM      9  C   UNL     1       1.638   5.797   9.840  0.00  0.00    +0.262 C 
ATOM     10  O   UNL     1       2.779   5.975   9.461  0.00  0.00    -0.269 OA
ATOM     11  N   UNL     1       1.147   6.521  10.866  0.00  0.00    -0.324 N 
ATOM     12  H   UNL     1       0.237   6.378  11.169  0.00  0.00    +0.145 HD
ATOM     13  H   UNL     1       1.705   7.184  11.302  0.00  0.00    +0.145 HD
ENDBRANCH   6   9
BRANCH   5  14
ATOM     14  N   UNL     1       2.582   4.160   7.623  0.00  0.00    -0.355 N 
ATOM     15  H   UNL     1       2.874   3.606   6.882  0.00  0.00    +0.142 HD
ATOM     16  H   UNL     1       3.192   4.803   8.017  0.00  0.00    +0.142 HD
ENDBRANCH   5  14
ENDBRANCH   2   4
BRANCH   1  17
ATOM     17  C   UNL     1      -1.765   1.377   7.013  0.00  0.00    +0.182 C 
BRANCH  17  20
ATOM     18  C   UNL     1      -4.232   3.394   5.162  0.00  0.00    +0.041 A 
ATOM     19  C   UNL     1      -3.643   2.151   5.488  0.00  0.00    +0.046 A 
ATOM     20  C   UNL     1      -2.668   2.404   6.380  0.00  0.00    +0.122 A 
ATOM     21  O   UNL     1      -2.640   3.726   6.614  0.00  0.00    -0.466 OA
ATOM     22  C   UNL     1      -3.583   4.332   5.874  0.00  0.00    +0.195 A 
ENDBRANCH  17  20
ENDBRANCH   1  17
BRANCH   1  23
ATOM     23  C   UNL     1      -0.336   0.270   5.232  0.00  0.00    +0.204 C 
BRANCH  23  24
ATOM     24  C   UNL     1      -0.807   0.803   3.903  0.00  0.00    +0.231 C 
ATOM     25  O   UNL     1      -1.246   1.931   3.823  0.00  0.00    -0.274 OA
ATOM     26  N   UNL     1      -0.742   0.026   2.804  0.00  0.00    -0.311 N 
ATOM     27  H   UNL     1      -0.391  -0.876   2.868  0.00  0.00    +0.149 HD
BRANCH  26  28
ATOM     28  C   UNL     1      -1.200   0.544   1.512  0.00  0.00    +0.073 C 
ATOM     29  C   UNL     1      -0.497  -0.194   0.345  0.00  0.00    +0.022 C 
ATOM     30  C   UNL     1      -1.458  -0.019  -0.849  0.00  0.00    +0.002 C 
ATOM     31  C   UNL     1      -2.856   0.233  -0.257  0.00  0.00    +0.002 C 
ATOM     32  C   UNL     1      -2.696   0.201   1.278  0.00  0.00    +0.022 C 
ENDBRANCH  26  28
ENDBRANCH  23  24
ENDBRANCH   1  23
TORSDOF 8
