REMARK  Name = ZINC13004016
REMARK  13 active torsions:
REMARK  status: ('A' for Active; 'I' for Inactive)
REMARK    1  A    between atoms: C_1  and  C_2
REMARK    2  A    between atoms: C_2  and  C_3
REMARK    3  A    between atoms: C_3  and  C_4
REMARK    4  A    between atoms: C_4  and  N_5
REMARK    5  A    between atoms: C_6  and  N_37
REMARK    6  A    between atoms: C_7  and  N_14
REMARK    7  A    between atoms: N_14  and  C_15
REMARK    8  A    between atoms: C_15  and  C_16
REMARK    9  A    between atoms: C_16  and  C_17
REMARK   10  A    between atoms: C_16  and  C_18
REMARK   11  A    between atoms: C_19  and  C_21
REMARK   12  A    between atoms: C_24  and  S_27
REMARK   13  A    between atoms: S_27  and  N_30
REMARK                            x       y       z     vdW  Elec       q    Type
REMARK                         _______ _______ _______ _____ _____    ______ ____
ROOT
ATOM      1  N   UNL     1       0.311  -3.762  -6.123  0.00  0.00    -0.260 N 
ATOM      2  C   UNL     1      -0.692  -2.897  -6.372  0.00  0.00    +0.251 C 
ATOM      3  O   UNL     1      -0.904  -2.523  -7.510  0.00  0.00    -0.270 OA
ENDROOT
BRANCH   1   6
ATOM      4  N   UNL     1       2.131  -4.142  -2.954  0.00  0.00    -0.280 N 
ATOM      5  C   UNL     1       1.854  -3.787  -4.254  0.00  0.00    +0.127 A 
ATOM      6  C   UNL     1       0.625  -4.112  -4.793  0.00  0.00    +0.140 A 
ATOM      7  C   UNL     1      -0.308  -4.798  -3.994  0.00  0.00    +0.277 A 
ATOM      8  O   UNL     1      -1.400  -5.097  -4.445  0.00  0.00    -0.266 OA
ATOM      9  N   UNL     1       0.014  -5.122  -2.726  0.00  0.00    -0.273 N 
ATOM     10  H   UNL     1      -0.628  -5.595  -2.174  0.00  0.00    +0.173 HD
ATOM     11  C   UNL     1       1.218  -4.802  -2.219  0.00  0.00    +0.331 A 
ATOM     12  O   UNL     1       1.485  -5.111  -1.074  0.00  0.00    -0.246 OA
BRANCH   5  13
ATOM     13  N   UNL     1       2.788  -3.117  -5.006  0.00  0.00    -0.343 N 
ATOM     14  H   UNL     1       3.626  -2.840  -4.604  0.00  0.00    +0.144 HD
ATOM     15  H   UNL     1       2.610  -2.922  -5.940  0.00  0.00    +0.144 HD
ENDBRANCH   5  13
BRANCH   4  16
ATOM     16  C   UNL     1       3.431  -3.804  -2.369  0.00  0.00    +0.128 C 
BRANCH  16  17
ATOM     17  C   UNL     1       4.419  -4.943  -2.628  0.00  0.00    +0.021 C 
BRANCH  17  19
ATOM     18  C   UNL     1       6.764  -5.728  -2.277  0.00  0.00    +0.004 C 
ATOM     19  C   UNL     1       5.776  -4.590  -2.017  0.00  0.00    -0.002 C 
ENDBRANCH  17  19
ENDBRANCH  16  17
ENDBRANCH   4  16
ENDBRANCH   1   6
BRANCH   2  20
ATOM     20  C   UNL     1      -1.535  -2.402  -5.263  0.00  0.00    +0.037 A 
ATOM     21  C   UNL     1      -1.006  -2.291  -3.976  0.00  0.00    +0.015 A 
ATOM     22  C   UNL     1      -1.798  -1.829  -2.946  0.00  0.00    +0.029 A 
ATOM     23  C   UNL     1      -3.115  -1.477  -3.185  0.00  0.00    +0.106 A 
ATOM     24  C   UNL     1      -3.645  -1.585  -4.458  0.00  0.00    +0.029 A 
ATOM     25  C   UNL     1      -2.862  -2.040  -5.499  0.00  0.00    +0.015 A 
BRANCH  23  26
ATOM     26  S   UNL     1      -4.120  -0.889  -1.863  0.00  0.00    +0.061 S 
ATOM     27  O   UNL     1      -5.468  -1.143  -2.233  0.00  0.00    -0.153 OA
ATOM     28  O   UNL     1      -3.551  -1.396  -0.664  0.00  0.00    -0.153 OA
BRANCH  26  29
ATOM     29  N   UNL     1      -3.946   0.757  -1.810  0.00  0.00    -0.177 NA
ATOM     30  C   UNL     1      -2.892   1.317  -0.993  0.00  0.00    +0.109 C 
ATOM     31  C   UNL     1      -3.422   1.561   0.442  0.00  0.00    +0.017 C 
ATOM     32  C   UNL     1      -4.367   2.688   0.452  0.00  0.00    +0.001 C 
ATOM     33  C   UNL     1      -5.625   2.462  -0.381  0.00  0.00    +0.001 C 
ATOM     34  C   UNL     1      -5.346   2.831  -1.818  0.00  0.00    +0.017 C 
ATOM     35  C   UNL     1      -4.868   1.592  -2.604  0.00  0.00    +0.109 C 
ENDBRANCH  26  29
ENDBRANCH  23  26
ENDBRANCH   2  20
BRANCH   1  36
ATOM     36  C   UNL     1       1.074  -4.338  -7.232  0.00  0.00    +0.117 C 
BRANCH  36  37
ATOM     37  C   UNL     1       0.491  -5.706  -7.596  0.00  0.00    +0.001 C 
ATOM     38  C   UNL     1      -0.926  -5.527  -8.142  0.00  0.00    +0.009 C 
ATOM     39  C   UNL     1       1.369  -6.367  -8.660  0.00  0.00    +0.009 C 
ENDBRANCH  36  37
ENDBRANCH   1  36
TORSDOF 10
