REMARK  Name = ZINC04890038
REMARK  6 active torsions:
REMARK  status: ('A' for Active; 'I' for Inactive)
REMARK    1  A    between atoms: C_1  and  C_2
REMARK    2  A    between atoms: C_2  and  C_3
REMARK    3  A    between atoms: C_2  and  C_4
REMARK    4  A    between atoms: C_7  and  C_10
REMARK    5  A    between atoms: C_12  and  C_15
REMARK    6  A    between atoms: N_24  and  C_25
REMARK                            x       y       z     vdW  Elec       q    Type
REMARK                         _______ _______ _______ _____ _____    ______ ____
ROOT
ATOM      1  C   UNL     1       2.387   0.511   1.453  0.00  0.00    +0.095 C 
ATOM      2  C   UNL     1       1.058  -0.249   1.456  0.00  0.00    +0.016 C 
ATOM      3  C   UNL     1       0.321   0.003   0.139  0.00  0.00    +0.020 C 
ATOM      4  C   UNL     1       0.022   1.500   0.005  0.00  0.00    +0.109 C 
ATOM      5  N   UNL     1       1.278   2.248   0.146  0.00  0.00    -0.285 N 
ATOM      6  C   UNL     1       2.111   2.013   1.334  0.00  0.00    +0.122 C 
ATOM      7  C   UNL     1       1.660   3.134  -0.795  0.00  0.00    +0.307 C 
ATOM      8  O   UNL     1       2.655   3.812  -0.625  0.00  0.00    -0.252 OA
ATOM      9  N   UNL     1       0.939   3.267  -1.927  0.00  0.00    -0.267 N 
ATOM     10  H   UNL     1       0.104   2.784  -2.029  0.00  0.00    +0.156 HD
ENDROOT
BRANCH   9  11
ATOM     11  C   UNL     1       1.396   4.103  -2.954  0.00  0.00    +0.070 A 
ATOM     12  C   UNL     1       2.732   4.478  -3.003  0.00  0.00    +0.026 A 
ATOM     13  C   UNL     1       3.180   5.298  -4.020  0.00  0.00    +0.002 A 
ATOM     14  C   UNL     1       2.299   5.755  -4.983  0.00  0.00    +0.003 A 
ATOM     15  C   UNL     1       0.967   5.389  -4.935  0.00  0.00    +0.040 A 
ATOM     16  C   UNL     1       0.511   4.564  -3.922  0.00  0.00    +0.145 A 
ATOM     17  F   UNL     1      -0.790   4.206  -3.875  0.00  0.00    -0.204 F 
ENDBRANCH   9  11
BRANCH   1  20
ATOM     18  C   UNL     1       4.564  -0.356   4.178  0.00  0.00    +0.202 A 
ATOM     19  N   UNL     1       4.309  -0.316   2.851  0.00  0.00    -0.191 NA
ATOM     20  C   UNL     1       3.126   0.236   2.737  0.00  0.00    +0.232 A 
ATOM     21  O   UNL     1       2.696   0.504   3.974  0.00  0.00    -0.337 OA
ATOM     22  N   UNL     1       3.529   0.160   4.787  0.00  0.00    -0.056 NA
BRANCH  18  26
ATOM     23  C   UNL     1       8.072  -1.892   6.027  0.00  0.00    -0.045 A 
ATOM     24  C   UNL     1       7.054  -1.373   6.806  0.00  0.00    +0.004 A 
ATOM     25  C   UNL     1       5.913  -0.874   6.211  0.00  0.00    +0.012 A 
ATOM     26  C   UNL     1       5.789  -0.892   4.824  0.00  0.00    +0.022 A 
ATOM     27  C   UNL     1       6.816  -1.421   4.044  0.00  0.00    +0.012 A 
ATOM     28  C   UNL     1       7.954  -1.913   4.649  0.00  0.00    +0.004 A 
BRANCH  23  30
ATOM     29  C   UNL     1       9.478  -3.914   6.318  0.00  0.00    +0.012 C 
ATOM     30  C   UNL     1       9.315  -2.438   6.683  0.00  0.00    +0.013 C 
ATOM     31  C   UNL     1      10.535  -1.654   6.194  0.00  0.00    +0.012 C 
ENDBRANCH  23  30
ENDBRANCH  18  26
ENDBRANCH   1  20
TORSDOF 4
