REMARK  Name = ZINC38887443
REMARK  10 active torsions:
REMARK  status: ('A' for Active; 'I' for Inactive)
REMARK    1  A    between atoms: C_1  and  C_2
REMARK    2  A    between atoms: C_7  and  C_8
REMARK    3  A    between atoms: C_10  and  C_13
REMARK    4  A    between atoms: C_13  and  N_14
REMARK    5  A    between atoms: C_18  and  C_21
REMARK    6  A    between atoms: N_23  and  C_24
REMARK    7  A    between atoms: C_24  and  C_26
REMARK    8  A    between atoms: C_24  and  C_27
REMARK    9  A    between atoms: C_30  and  N_33
REMARK   10  A    between atoms: C_36  and  C_39
REMARK                            x       y       z     vdW  Elec       q    Type
REMARK                         _______ _______ _______ _____ _____    ______ ____
ROOT
ATOM      1  N   UNL     1       1.386  -0.079   6.627  0.00  0.00    +0.386 N 
ATOM      2  C   UNL     1       1.829   1.313   6.480  0.00  0.00    -0.078 C 
ATOM      3  C   UNL     1       3.305   1.426   6.870  0.00  0.00    -0.018 C 
ATOM      4  C   UNL     1       3.479   0.984   8.325  0.00  0.00    +0.009 C 
ATOM      5  C   UNL     1       2.945  -0.443   8.482  0.00  0.00    +0.058 C 
ATOM      6  C   UNL     1       1.482  -0.487   8.033  0.00  0.00    -0.065 C 
ATOM      7  H   UNL     1       1.972  -0.677   6.063  0.00  0.00    -0.081 HD
ENDROOT
BRANCH   5   8
ATOM      8  C   UNL     1       3.041  -0.860   9.927  0.00  0.00    +0.215 C 
ATOM      9  O   UNL     1       2.039  -1.167  10.538  0.00  0.00    -0.276 OA
ATOM     10  N   UNL     1       4.241  -0.893  10.540  0.00  0.00    -0.309 N 
ATOM     11  H   UNL     1       5.042  -0.648  10.052  0.00  0.00    +0.149 HD
BRANCH  10  12
ATOM     12  C   UNL     1       4.335  -1.299  11.945  0.00  0.00    +0.100 C 
ATOM     13  C   UNL     1       4.414  -2.824  12.031  0.00  0.00    +0.033 C 
BRANCH  12  14
ATOM     14  C   UNL     1       5.572  -0.696  12.560  0.00  0.00    -0.027 A 
ATOM     15  C   UNL     1       6.746  -0.637  11.832  0.00  0.00    +0.007 A 
ATOM     16  C   UNL     1       7.881  -0.086  12.393  0.00  0.00    +0.023 A 
ATOM     17  C   UNL     1       7.842   0.410  13.690  0.00  0.00    +0.030 A 
ATOM     18  C   UNL     1       6.661   0.349  14.419  0.00  0.00    +0.023 A 
ATOM     19  C   UNL     1       5.528  -0.199  13.850  0.00  0.00    +0.007 A 
BRANCH  17  20
ATOM     20  N   UNL     1       8.989   0.968  14.261  0.00  0.00    -0.330 N 
ATOM     21  C   UNL     1       8.997   1.383  15.670  0.00  0.00    +0.105 C 
ATOM     22  C   UNL     1       9.456   2.842  15.751  0.00  0.00    +0.022 C 
ATOM     23  C   UNL     1      10.805   2.989  15.044  0.00  0.00    -0.011 C 
ATOM     24  C   UNL     1      10.654   2.612  13.569  0.00  0.00    +0.022 C 
ATOM     25  C   UNL     1      10.211   1.145  13.464  0.00  0.00    +0.105 C 
ATOM     26  C   UNL     1      11.282   4.439  15.153  0.00  0.00    +0.007 C 
ENDBRANCH  17  20
ENDBRANCH  12  14
ENDBRANCH  10  12
ENDBRANCH   5   8
BRANCH   1  27
ATOM     27  C   UNL     1      -0.008  -0.197   6.178  0.00  0.00    +0.022 C 
BRANCH  27  30
ATOM     28  C   UNL     1      -0.096  -0.157   2.550  0.00  0.00    +0.202 A 
ATOM     29  N   UNL     1       0.028  -0.767   3.742  0.00  0.00    -0.193 NA
ATOM     30  C   UNL     1      -0.088   0.103   4.704  0.00  0.00    +0.211 A 
ATOM     31  O   UNL     1      -0.291   1.311   4.161  0.00  0.00    -0.340 OA
ATOM     32  N   UNL     1      -0.287   1.123   2.753  0.00  0.00    -0.056 NA
BRANCH  28  39
ATOM     33  C   UNL     1       2.009  -2.070   2.022  0.00  0.00    +0.044 C 
ATOM     34  C   UNL     1       0.990  -1.744   0.962  0.00  0.00    -0.040 A 
ATOM     35  C   UNL     1       1.051  -2.363  -0.270  0.00  0.00    +0.004 A 
ATOM     36  C   UNL     1       0.116  -2.065  -1.244  0.00  0.00    +0.000 A 
ATOM     37  C   UNL     1      -0.886  -1.145  -0.991  0.00  0.00    +0.001 A 
ATOM     38  C   UNL     1      -0.957  -0.520   0.238  0.00  0.00    +0.012 A 
ATOM     39  C   UNL     1      -0.020  -0.821   1.225  0.00  0.00    +0.025 A 
ENDBRANCH  28  39
ENDBRANCH  27  30
ENDBRANCH   1  27
TORSDOF 7
