REMARK  Name = ZINC30952886
REMARK  9 active torsions:
REMARK  status: ('A' for Active; 'I' for Inactive)
REMARK    1  A    between atoms: C_1  and  C_2
REMARK    2  A    between atoms: C_4  and  C_27
REMARK    3  A    between atoms: C_6  and  O_8
REMARK    4  A    between atoms: O_8  and  C_9
REMARK    5  A    between atoms: C_9  and  C_10
REMARK    6  A    between atoms: C_10  and  N_11
REMARK    7  A    between atoms: N_11  and  S_12
REMARK    8  A    between atoms: S_12  and  C_15
REMARK    9  A    between atoms: N_22  and  C_26
REMARK                            x       y       z     vdW  Elec       q    Type
REMARK                         _______ _______ _______ _____ _____    ______ ____
ROOT
ATOM      1  S   UNL     1       0.836   2.974   6.726  0.00  0.00    +0.060 S 
ATOM      2  O   UNL     1       1.941   3.865   6.673  0.00  0.00    -0.153 OA
ATOM      3  O   UNL     1      -0.398   3.327   7.336  0.00  0.00    -0.153 OA
ENDROOT
BRANCH   1   4
ATOM      4  C   UNL     1       0.466   2.531   5.061  0.00  0.00    +0.127 A 
ATOM      5  C   UNL     1      -0.836   2.601   4.604  0.00  0.00    +0.078 A 
ATOM      6  C   UNL     1      -1.129   2.254   3.295  0.00  0.00    +0.159 A 
ATOM      7  C   UNL     1      -0.105   1.835   2.445  0.00  0.00    +0.091 A 
ATOM      8  C   UNL     1       1.198   1.766   2.909  0.00  0.00    +0.051 A 
ATOM      9  C   UNL     1       1.481   2.115   4.217  0.00  0.00    +0.069 A 
ATOM     10 CL   UNL     1       3.114   2.031   4.802  0.00  0.00    -0.081 Cl
ATOM     11  N   UNL     1      -0.698   1.558   1.213  0.00  0.00    -0.277 N 
ATOM     12  C   UNL     1      -2.017   1.811   1.333  0.00  0.00    +0.421 A 
ATOM     13  O   UNL     1      -2.840   1.682   0.447  0.00  0.00    -0.223 OA
ATOM     14  O   UNL     1      -2.282   2.223   2.583  0.00  0.00    -0.407 OA
ATOM     15  C   UNL     1      -0.013   1.086   0.008  0.00  0.00    +0.156 C 
ENDBRANCH   1   4
BRANCH   1  16
ATOM     16  N   UNL     1       1.367   1.605   7.491  0.00  0.00    -0.187 NA
ATOM     17  H   UNL     1       0.700   1.090   8.197  0.00  0.00    +0.148 HD
BRANCH  16  18
ATOM     18  C   UNL     1       2.618   0.969   7.069  0.00  0.00    +0.147 C 
BRANCH  18  19
ATOM     19  C   UNL     1       3.072  -0.024   8.141  0.00  0.00    +0.246 C 
BRANCH  19  20
ATOM     20  O   UNL     1       2.123  -1.087   8.239  0.00  0.00    -0.491 OA
BRANCH  20  26
ATOM     21  C   UNL     1       5.017  -2.914  11.718  0.00  0.00    +0.044 C 
ATOM     22  C   UNL     1       3.777  -2.986  10.864  0.00  0.00    -0.047 A 
ATOM     23  C   UNL     1       2.899  -4.043  11.009  0.00  0.00    +0.007 A 
ATOM     24  C   UNL     1       1.760  -4.112  10.227  0.00  0.00    -0.047 A 
ATOM     25  C   UNL     1       1.498  -3.123   9.299  0.00  0.00    +0.049 A 
ATOM     26  C   UNL     1       2.378  -2.061   9.151  0.00  0.00    +0.121 A 
ATOM     27  C   UNL     1       3.523  -1.998   9.932  0.00  0.00    +0.049 A 
ATOM     28  C   UNL     1       0.804  -5.265  10.389  0.00  0.00    +0.044 C 
ENDBRANCH  20  26
ENDBRANCH  19  20
ENDBRANCH  18  19
ENDBRANCH  16  18
ENDBRANCH   1  16
TORSDOF 6
