REMARK  Name = ZINC41001437
REMARK  16 active torsions:
REMARK  status: ('A' for Active; 'I' for Inactive)
REMARK    1  A    between atoms: C_1  and  C_2
REMARK    2  A    between atoms: C_2  and  C_3
REMARK    3  A    between atoms: C_3  and  C_4
REMARK    4  A    between atoms: C_4  and  C_5
REMARK    5  A    between atoms: C_5  and  C_6
REMARK    6  A    between atoms: C_6  and  O_7
REMARK    7  A    between atoms: O_7  and  C_8
REMARK    8  A    between atoms: C_11  and  C_14
REMARK    9  A    between atoms: C_16  and  C_30
REMARK   10  A    between atoms: C_17  and  C_29
REMARK   11  A    between atoms: C_22  and  S_24
REMARK   12  A    between atoms: S_24  and  C_25
REMARK   13  A    between atoms: C_25  and  C_26
REMARK   14  A    between atoms: C_26  and  C_27
REMARK   15  A    between atoms: C_27  and  C_28
REMARK   16  A    between atoms: N_32  and  C_33
REMARK                            x       y       z     vdW  Elec       q    Type
REMARK                         _______ _______ _______ _____ _____    ______ ____
ROOT
ATOM      1  C   UNL     1      -4.753 -10.280   0.057  0.00  0.00    +0.177 C 
ATOM      2  C   UNL     1      -5.490 -10.613  -1.213  0.00  0.00    +0.060 C 
ATOM      3  C   UNL     1      -6.773 -11.004  -1.234  0.00  0.00    +0.018 C 
ATOM      4  N   UNL     1      -7.514 -11.144  -0.086  0.00  0.00    -0.287 N 
ATOM      5  C   UNL     1      -6.830 -11.124   1.123  0.00  0.00    +0.219 A 
ATOM      6  N   UNL     1      -5.537 -10.726   1.206  0.00  0.00    -0.220 N 
ATOM      7  N   UNL     1      -5.170 -10.837   2.546  0.00  0.00    -0.141 NA
ATOM      8  C   UNL     1      -6.228 -11.277   3.193  0.00  0.00    +0.210 A 
ATOM      9  N   UNL     1      -7.233 -11.448   2.321  0.00  0.00    -0.187 NA
ATOM     10  C   UNL     1      -7.422 -11.302  -2.561  0.00  0.00    +0.061 C 
ATOM     11  H   UNL     1      -8.477 -11.252  -0.118  0.00  0.00    +0.155 HD
ENDROOT
BRANCH   1  15
ATOM     12  C   UNL     1      -4.159  -6.054   0.292  0.00  0.00    +0.121 A 
ATOM     13  C   UNL     1      -3.067  -6.910   0.279  0.00  0.00    +0.046 A 
ATOM     14  C   UNL     1      -3.262  -8.276   0.203  0.00  0.00    +0.009 A 
ATOM     15  C   UNL     1      -4.543  -8.790   0.140  0.00  0.00    -0.018 A 
ATOM     16  C   UNL     1      -5.633  -7.939   0.152  0.00  0.00    +0.009 A 
ATOM     17  C   UNL     1      -5.444  -6.573   0.234  0.00  0.00    +0.046 A 
BRANCH  12  18
ATOM     18  O   UNL     1      -3.970  -4.711   0.367  0.00  0.00    -0.492 OA
BRANCH  18  19
ATOM     19  C   UNL     1      -2.619  -4.248   0.424  0.00  0.00    +0.229 C 
BRANCH  19  20
ATOM     20  C   UNL     1      -2.606  -2.720   0.504  0.00  0.00    +0.041 C 
BRANCH  20  21
ATOM     21  C   UNL     1      -1.160  -2.224   0.565  0.00  0.00    +0.003 C 
BRANCH  21  22
ATOM     22  C   UNL     1      -1.148  -0.697   0.645  0.00  0.00    -0.000 C 
BRANCH  22  24
ATOM     23  C   UNL     1       0.311   1.327   0.786  0.00  0.00    +0.004 C 
ATOM     24  C   UNL     1       0.298  -0.201   0.706  0.00  0.00    -0.003 C 
ENDBRANCH  22  24
ENDBRANCH  21  22
ENDBRANCH  20  21
ENDBRANCH  19  20
ENDBRANCH  18  19
ENDBRANCH  12  18
ENDBRANCH   1  15
BRANCH   2  25
ATOM     25  C   UNL     1      -4.798 -10.508  -2.442  0.00  0.00    +0.248 C 
ATOM     26  O   UNL     1      -3.984 -11.357  -2.757  0.00  0.00    -0.270 OA
ATOM     27  N   UNL     1      -5.038  -9.467  -3.264  0.00  0.00    -0.282 N 
ATOM     28  H   UNL     1      -5.638  -8.757  -2.985  0.00  0.00    +0.155 HD
BRANCH  27  29
ATOM     29  C   UNL     1      -4.424  -9.411  -4.519  0.00  0.00    +0.034 A 
ATOM     30  C   UNL     1      -5.102  -8.867  -5.602  0.00  0.00    +0.023 A 
ATOM     31  C   UNL     1      -4.493  -8.813  -6.840  0.00  0.00    +0.002 A 
ATOM     32  C   UNL     1      -3.209  -9.301  -7.003  0.00  0.00    +0.000 A 
ATOM     33  C   UNL     1      -2.532  -9.844  -5.927  0.00  0.00    +0.002 A 
ATOM     34  C   UNL     1      -3.133  -9.895  -4.684  0.00  0.00    +0.023 A 
ENDBRANCH  27  29
ENDBRANCH   2  25
BRANCH   8  35
ATOM     35  S   UNL     1      -6.311 -11.592   4.924  0.00  0.00    -0.084 S 
BRANCH  35  36
ATOM     36  C   UNL     1      -8.011 -12.169   5.185  0.00  0.00    +0.077 C 
BRANCH  36  37
ATOM     37  C   UNL     1      -8.222 -12.483   6.667  0.00  0.00    +0.011 C 
BRANCH  37  38
ATOM     38  C   UNL     1      -9.655 -12.970   6.887  0.00  0.00    -0.003 C 
ATOM     39  C   UNL     1      -9.866 -13.283   8.369  0.00  0.00    +0.004 C 
ENDBRANCH  37  38
ENDBRANCH  36  37
ENDBRANCH  35  36
ENDBRANCH   8  35
TORSDOF 13
