REMARK  Name = ZINC09504713
REMARK  9 active torsions:
REMARK  status: ('A' for Active; 'I' for Inactive)
REMARK    1  A    between atoms: C_1  and  N_60
REMARK    2  A    between atoms: C_2  and  N_60
REMARK    3  A    between atoms: C_3  and  C_4
REMARK    4  A    between atoms: C_3  and  N_60
REMARK    5  A    between atoms: C_4  and  C_5
REMARK    6  A    between atoms: C_5  and  N_6
REMARK    7  A    between atoms: C_17  and  C_19
REMARK    8  A    between atoms: N_22  and  S_25
REMARK    9  A    between atoms: S_25  and  C_28
REMARK                            x       y       z     vdW  Elec       q    Type
REMARK                         _______ _______ _______ _____ _____    ______ ____
ROOT
ATOM      1  N   UNL     1      -3.757  -4.456   5.285  0.00  0.00    -0.250 N 
ATOM      2  C   UNL     1      -4.727  -5.248   5.879  0.00  0.00    +0.168 A 
ATOM      3  N   UNL     1      -4.589  -6.147   6.825  0.00  0.00    -0.224 NA
ATOM      4  C   UNL     1      -5.633  -6.850   7.317  0.00  0.00    +0.080 A 
ATOM      5  C   UNL     1      -5.622  -7.836   8.330  0.00  0.00    +0.032 A 
ATOM      6  C   UNL     1      -6.779  -8.464   8.711  0.00  0.00    +0.040 A 
ATOM      7  C   UNL     1      -7.999  -8.157   8.120  0.00  0.00    +0.125 A 
ATOM      8  C   UNL     1      -8.046  -7.197   7.124  0.00  0.00    +0.055 A 
ATOM      9  C   UNL     1      -6.891  -6.564   6.738  0.00  0.00    +0.043 A 
ATOM     10  S   UNL     1      -6.482  -5.312   5.546  0.00  0.00    -0.052 S 
ATOM     11  F   UNL     1      -9.126  -8.790   8.513  0.00  0.00    -0.205 F 
ATOM     12  C   UNL     1      -4.077  -3.671   4.237  0.00  0.00    +0.224 C 
ATOM     13  O   UNL     1      -3.211  -3.055   3.654  0.00  0.00    -0.275 OA
ENDROOT
BRANCH  12  14
ATOM     14  C   UNL     1      -5.512  -3.559   3.790  0.00  0.00    +0.078 C 
ATOM     15  C   UNL     1      -5.563  -2.942   2.391  0.00  0.00    +0.030 C 
ATOM     16  C   UNL     1      -7.021  -2.862   1.925  0.00  0.00    +0.110 C 
ATOM     17  N   UNL     1      -7.800  -2.133   2.935  0.00  0.00    -0.176 NA
ATOM     18  C   UNL     1      -7.745  -2.585   4.332  0.00  0.00    +0.110 C 
ATOM     19  C   UNL     1      -6.284  -2.672   4.769  0.00  0.00    +0.030 C 
BRANCH  17  20
ATOM     20  S   UNL     1      -8.718  -0.822   2.508  0.00  0.00    +0.067 S 
ATOM     21  O   UNL     1      -8.154  -0.304   1.311  0.00  0.00    -0.152 OA
ATOM     22  O   UNL     1      -8.872  -0.035   3.681  0.00  0.00    -0.152 OA
BRANCH  20  23
ATOM     23  C   UNL     1     -10.321  -1.423   2.091  0.00  0.00    +0.143 A 
ATOM     24  C   UNL     1     -11.401  -1.600   2.890  0.00  0.00    +0.036 A 
ATOM     25  C   UNL     1     -12.570  -2.089   2.339  0.00  0.00    +0.010 A 
ATOM     26  C   UNL     1     -12.602  -2.377   1.015  0.00  0.00    +0.047 A 
ATOM     27  S   UNL     1     -10.944  -1.955   0.505  0.00  0.00    -0.077 S 
ENDBRANCH  20  23
ENDBRANCH  17  20
ENDBRANCH  12  14
BRANCH   1  28
ATOM     28  C   UNL     1      -2.385  -4.472   5.797  0.00  0.00    +0.114 C 
BRANCH  28  29
ATOM     29  C   UNL     1      -2.206  -3.342   6.814  0.00  0.00    +0.001 C 
BRANCH  29  30
ATOM     30  C   UNL     1      -0.773  -3.358   7.348  0.00  0.00    -0.078 C 
BRANCH  30  33
ATOM     31  C   UNL     1      -1.423  -2.508   9.519  0.00  0.00    -0.097 C 
ATOM     32  C   UNL     1       0.813  -2.106   8.681  0.00  0.00    -0.097 C 
ATOM     33  N   UNL     1      -0.611  -2.250   8.312  0.00  0.00    +0.376 N 
ATOM     34  H   UNL     1      -0.931  -1.378   7.874  0.00  0.00    -0.083 HD
ENDBRANCH  30  33
ENDBRANCH  29  30
ENDBRANCH  28  29
ENDBRANCH   1  28
TORSDOF 7
