REMARK  Name = ZINC42954522
REMARK  8 active torsions:
REMARK  status: ('A' for Active; 'I' for Inactive)
REMARK    1  A    between atoms: C_1  and  C_2
REMARK    2  A    between atoms: C_2  and  C_4
REMARK    3  A    between atoms: C_2  and  N_22
REMARK    4  A    between atoms: C_4  and  C_6
REMARK    5  A    between atoms: C_4  and  N_13
REMARK    6  A    between atoms: N_13  and  C_14
REMARK    7  A    between atoms: N_13  and  C_15
REMARK    8  A    between atoms: C_15  and  C_16
REMARK                            x       y       z     vdW  Elec       q    Type
REMARK                         _______ _______ _______ _____ _____    ______ ____
ROOT
ATOM      1  C   UNL     1       0.814  -0.428   1.290  0.00  0.00    +0.072 C 
ENDROOT
BRANCH   1   2
ATOM      2  C   UNL     1       2.161   0.226   1.111  0.00  0.00    -0.032 A 
ATOM      3  C   UNL     1       3.037  -0.249   0.153  0.00  0.00    +0.006 A 
ATOM      4  C   UNL     1       4.272   0.350  -0.011  0.00  0.00    +0.015 A 
ATOM      5  C   UNL     1       4.630   1.425   0.782  0.00  0.00    +0.018 A 
ATOM      6  C   UNL     1       3.753   1.899   1.741  0.00  0.00    +0.015 A 
ATOM      7  C   UNL     1       2.516   1.303   1.901  0.00  0.00    +0.006 A 
ATOM      8 BR   UNL     1       6.319   2.245   0.558  0.00  0.00    -0.050 Br
ENDBRANCH   1   2
BRANCH   1  10
ATOM      9  C   UNL     1      -0.238   1.487   0.078  0.00  0.00    -0.012 C 
ATOM     10  C   UNL     1      -0.101  -0.036   0.128  0.00  0.00    -0.056 C 
BRANCH  10  11
ATOM     11  N   UNL     1      -1.425  -0.641   0.323  0.00  0.00    +0.381 N 
ATOM     12  H   UNL     1      -2.001  -0.458  -0.486  0.00  0.00    -0.090 HD
ATOM     13  H   UNL     1      -1.325  -1.637   0.447  0.00  0.00    -0.090 HD
ATOM     14  H   UNL     1      -1.860  -0.242   1.141  0.00  0.00    -0.090 HD
ENDBRANCH  10  11
ENDBRANCH   1  10
BRANCH   1  15
ATOM     15  N   UNL     1       0.978  -1.888   1.313  0.00  0.00    -0.295 NA
ATOM     16  C   UNL     1       0.848  -2.454  -0.036  0.00  0.00    +0.105 C 
BRANCH  15  17
ATOM     17  C   UNL     1       0.022  -2.509   2.240  0.00  0.00    +0.127 C 
BRANCH  17  18
ATOM     18  C   UNL     1       0.455  -3.923   2.533  0.00  0.00    +0.005 A 
ATOM     19  C   UNL     1       1.263  -4.381   3.519  0.00  0.00    +0.014 A 
ATOM     20  C   UNL     1       1.525  -5.736   3.597  0.00  0.00    +0.028 A 
ATOM     21  C   UNL     1       0.964  -6.567   2.684  0.00  0.00    +0.078 A 
ATOM     22  S   UNL     1       0.027  -5.430   1.676  0.00  0.00    -0.080 S 
ATOM     23 CL   UNL     1       1.113  -8.291   2.537  0.00  0.00    -0.076 Cl
ENDBRANCH  17  18
ENDBRANCH  15  17
ENDBRANCH   1  15
TORSDOF 6
