REMARK  Name = ZINC60241022
REMARK  16 active torsions:
REMARK  status: ('A' for Active; 'I' for Inactive)
REMARK    1  A    between atoms: C_1  and  C_2
REMARK    2  A    between atoms: C_6  and  C_8
REMARK    3  A    between atoms: N_10  and  C_11
REMARK    4  A    between atoms: C_11  and  C_13
REMARK    5  A    between atoms: C_11  and  C_16
REMARK    6  A    between atoms: C_13  and  C_14
REMARK    7  A    between atoms: C_13  and  C_15
REMARK    8  A    between atoms: C_22  and  C_25
REMARK    9  A    between atoms: N_27  and  C_28
REMARK   10  A    between atoms: C_28  and  C_29
REMARK   11  A    between atoms: C_29  and  N_30
REMARK   12  A    between atoms: C_31  and  O_33
REMARK   13  A    between atoms: O_33  and  C_34
REMARK   14  A    between atoms: C_34  and  C_35
REMARK   15  A    between atoms: C_34  and  C_36
REMARK   16  A    between atoms: C_34  and  C_37
REMARK                            x       y       z     vdW  Elec       q    Type
REMARK                         _______ _______ _______ _____ _____    ______ ____
ROOT
ATOM      1  C   UNL     1       0.829  -6.327   3.498  0.00  0.00    +0.236 C 
ATOM      2  O   UNL     1       1.383  -6.645   2.467  0.00  0.00    -0.274 OA
ATOM      3  N   UNL     1       0.758  -7.200   4.522  0.00  0.00    -0.299 N 
ATOM      4  C   UNL     1       0.185  -6.795   5.813  0.00  0.00    +0.108 C 
ATOM      5  C   UNL     1      -0.917  -7.788   6.196  0.00  0.00    +0.020 C 
ATOM      6  C   UNL     1      -0.348  -9.208   6.179  0.00  0.00    +0.016 C 
ATOM      7  C   UNL     1       0.139  -9.547   4.768  0.00  0.00    +0.092 C 
ATOM      8  C   UNL     1       1.248  -8.577   4.367  0.00  0.00    +0.120 C 
ENDROOT
BRANCH   7   9
ATOM      9  C   UNL     1       0.669 -10.958   4.745  0.00  0.00    +0.218 C 
ATOM     10  O   UNL     1       1.824 -11.167   4.437  0.00  0.00    -0.275 OA
ATOM     11  N   UNL     1      -0.139 -11.987   5.066  0.00  0.00    -0.314 N 
ATOM     12  H   UNL     1      -1.062 -11.820   5.313  0.00  0.00    +0.149 HD
BRANCH  11  13
ATOM     13  C   UNL     1       0.376 -13.358   5.044  0.00  0.00    +0.123 C 
BRANCH  13  14
ATOM     14  C   UNL     1      -0.737 -14.328   5.446  0.00  0.00    +0.126 C 
BRANCH  14  15
ATOM     15  N   UNL     1      -0.221 -15.699   5.423  0.00  0.00    -0.280 N 
ATOM     16  C   UNL     1      -1.030 -16.729   5.745  0.00  0.00    +0.401 C 
ATOM     17  O   UNL     1      -2.186 -16.519   6.053  0.00  0.00    -0.226 OA
ATOM     18  H   UNL     1       0.702 -15.866   5.177  0.00  0.00    +0.152 HD
BRANCH  16  19
ATOM     19  O   UNL     1      -0.556 -17.989   5.724  0.00  0.00    -0.445 OA
BRANCH  19  20
ATOM     20  C   UNL     1      -1.468 -19.031   6.076  0.00  0.00    +0.107 C 
ATOM     21  C   UNL     1      -2.652 -19.021   5.107  0.00  0.00    +0.055 C 
ATOM     22  C   UNL     1      -0.755 -20.382   5.995  0.00  0.00    +0.055 C 
ATOM     23  C   UNL     1      -1.974 -18.805   7.502  0.00  0.00    +0.055 C 
ENDBRANCH  19  20
ENDBRANCH  16  19
ENDBRANCH  14  15
ENDBRANCH  13  14
ENDBRANCH  11  13
ENDBRANCH   7   9
BRANCH   1  24
ATOM     24  C   UNL     1       0.220  -4.955   3.634  0.00  0.00    +0.162 C 
BRANCH  24  27
ATOM     25  C   UNL     1       1.016  -2.684   3.253  0.00  0.00    +0.245 C 
ATOM     26  O   UNL     1       0.326  -2.317   4.184  0.00  0.00    -0.270 OA
ATOM     27  N   UNL     1       1.033  -3.984   2.898  0.00  0.00    -0.300 N 
ATOM     28  H   UNL     1       1.584  -4.277   2.155  0.00  0.00    +0.150 HD
BRANCH  25  34
ATOM     29  C   UNL     1       2.574   2.007   2.570  0.00  0.00    +0.044 C 
ATOM     30  C   UNL     1       2.590   0.552   2.178  0.00  0.00    -0.050 A 
ATOM     31  C   UNL     1       3.374   0.131   1.118  0.00  0.00    +0.003 A 
ATOM     32  C   UNL     1       3.394  -1.203   0.751  0.00  0.00    +0.001 A 
ATOM     33  C   UNL     1       2.631  -2.122   1.441  0.00  0.00    +0.013 A 
ATOM     34  C   UNL     1       1.837  -1.704   2.510  0.00  0.00    +0.037 A 
ATOM     35  C   UNL     1       1.826  -0.358   2.879  0.00  0.00    +0.016 A 
ENDBRANCH  25  34
ENDBRANCH  24  27
BRANCH  24  36
ATOM     36  C   UNL     1      -1.200  -4.969   3.063  0.00  0.00    +0.012 C 
ATOM     37  C   UNL     1      -1.147  -5.317   1.574  0.00  0.00    +0.009 C 
ATOM     38  C   UNL     1      -2.037  -6.014   3.802  0.00  0.00    +0.009 C 
ENDBRANCH  24  36
ENDBRANCH   1  24
TORSDOF 10
