REMARK  Name = ZINC01877565
REMARK  15 active torsions:
REMARK  status: ('A' for Active; 'I' for Inactive)
REMARK    1  A    between atoms: C_1  and  C_2
REMARK    2  A    between atoms: C_2  and  C_3
REMARK    3  A    between atoms: C_2  and  O_4
REMARK    4  A    between atoms: O_4  and  C_5
REMARK    5  A    between atoms: C_8  and  C_11
REMARK    6  A    between atoms: N_13  and  C_14
REMARK    7  A    between atoms: C_14  and  C_38
REMARK    8  A    between atoms: C_18  and  C_22
REMARK    9  A    between atoms: C_18  and  C_23
REMARK   10  A    between atoms: N_24  and  C_27
REMARK   11  A    between atoms: C_27  and  C_28
REMARK   12  A    between atoms: C_32  and  O_36
REMARK   13  A    between atoms: C_33  and  O_34
REMARK   14  A    between atoms: O_34  and  C_35
REMARK   15  A    between atoms: O_36  and  C_37
REMARK                            x       y       z     vdW  Elec       q    Type
REMARK                         _______ _______ _______ _____ _____    ______ ____
ROOT
ATOM      1  C   UNL     1      -3.620  -7.475  -2.716  0.00  0.00    +0.237 C 
ATOM      2  C   UNL     1      -5.087  -7.802  -2.758  0.00  0.00    +0.053 C 
ATOM      3  C   UNL     1      -5.408  -7.996  -4.065  0.00  0.00    +0.024 C 
ATOM      4  C   UNL     1      -6.818  -8.354  -4.489  0.00  0.00    +0.058 C 
ATOM      5  C   UNL     1      -7.496  -9.081  -3.322  0.00  0.00    -0.023 C 
ATOM      6  C   UNL     1      -7.449  -8.218  -2.060  0.00  0.00    +0.086 C 
ATOM      7  C   UNL     1      -6.011  -7.907  -1.708  0.00  0.00    +0.164 C 
ATOM      8  O   UNL     1      -5.667  -7.754  -0.552  0.00  0.00    -0.292 OA
ATOM      9  C   UNL     1      -8.955  -9.370  -3.684  0.00  0.00    +0.011 C 
ATOM     10  C   UNL     1      -6.772 -10.403  -3.059  0.00  0.00    +0.011 C 
ATOM     11  N   UNL     1      -4.327  -7.827  -4.870  0.00  0.00    -0.268 N 
ATOM     12  C   UNL     1      -3.212  -7.517  -4.178  0.00  0.00    +0.257 C 
ATOM     13  O   UNL     1      -2.107  -7.313  -4.632  0.00  0.00    -0.272 OA
ENDROOT
BRANCH   1  16
ATOM     14  C   UNL     1      -2.163  -5.614  -2.122  0.00  0.00    +0.245 C 
ATOM     15  O   UNL     1      -1.222  -6.252  -2.553  0.00  0.00    -0.270 OA
ATOM     16  N   UNL     1      -3.404  -6.138  -2.158  0.00  0.00    -0.287 N 
ATOM     17  H   UNL     1      -4.155  -5.629  -1.814  0.00  0.00    +0.151 HD
BRANCH  14  21
ATOM     18  C   UNL     1      -1.538  -1.738  -0.505  0.00  0.00    +0.121 A 
ATOM     19  C   UNL     1      -0.461  -2.466  -0.996  0.00  0.00    +0.046 A 
ATOM     20  C   UNL     1      -0.659  -3.723  -1.521  0.00  0.00    +0.016 A 
ATOM     21  C   UNL     1      -1.946  -4.267  -1.559  0.00  0.00    +0.037 A 
ATOM     22  C   UNL     1      -3.026  -3.532  -1.064  0.00  0.00    +0.016 A 
ATOM     23  C   UNL     1      -2.819  -2.277  -0.536  0.00  0.00    +0.046 A 
BRANCH  18  24
ATOM     24  O   UNL     1      -1.339  -0.499   0.012  0.00  0.00    -0.489 OA
BRANCH  24  26
ATOM     25  C   UNL     1      -1.982   1.170   1.638  0.00  0.00    +0.051 C 
ATOM     26  C   UNL     1      -2.466   0.143   0.612  0.00  0.00    +0.167 C 
ATOM     27  C   UNL     1      -3.284   0.851  -0.470  0.00  0.00    +0.051 C 
ENDBRANCH  24  26
ENDBRANCH  18  24
ENDBRANCH  14  21
ENDBRANCH   1  16
BRANCH   1  28
ATOM     28  C   UNL     1      -2.851  -8.524  -1.910  0.00  0.00    +0.424 C 
ATOM     29  F   UNL     1      -3.305  -8.521  -0.587  0.00  0.00    -0.167 F 
ATOM     30  F   UNL     1      -3.061  -9.788  -2.472  0.00  0.00    -0.167 F 
ATOM     31  F   UNL     1      -1.485  -8.223  -1.935  0.00  0.00    -0.167 F 
ENDBRANCH   1  28
BRANCH  11  32
ATOM     32  C   UNL     1      -4.367  -7.967  -6.327  0.00  0.00    +0.152 C 
BRANCH  32  33
ATOM     33  C   UNL     1      -4.689  -6.634  -6.952  0.00  0.00    +0.016 A 
ATOM     34  C   UNL     1      -5.979  -6.358  -7.366  0.00  0.00    +0.009 A 
ATOM     35  C   UNL     1      -6.277  -5.136  -7.939  0.00  0.00    +0.004 A 
ATOM     36  C   UNL     1      -5.287  -4.184  -8.100  0.00  0.00    +0.049 A 
ATOM     37  C   UNL     1      -3.993  -4.454  -7.688  0.00  0.00    +0.162 A 
ATOM     38  C   UNL     1      -3.693  -5.683  -7.105  0.00  0.00    +0.166 A 
BRANCH  38  39
ATOM     39  O   UNL     1      -2.425  -5.950  -6.693  0.00  0.00    -0.491 OA
ATOM     40  C   UNL     1      -1.547  -6.551  -7.647  0.00  0.00    +0.277 C 
ENDBRANCH  38  39
BRANCH  37  41
ATOM     41  O   UNL     1      -3.018  -3.520  -7.846  0.00  0.00    -0.491 OA
ATOM     42  C   UNL     1      -3.399  -2.280  -8.446  0.00  0.00    +0.277 C 
ENDBRANCH  37  41
ENDBRANCH  32  33
ENDBRANCH  11  32
TORSDOF 9
