REMARK  Name = ZINC36233260
REMARK  2 active torsions:
REMARK  status: ('A' for Active; 'I' for Inactive)
REMARK    1  A    between atoms: C_3  and  S_9
REMARK    2  A    between atoms: S_9  and  N_12
REMARK                            x       y       z     vdW  Elec       q    Type
REMARK                         _______ _______ _______ _____ _____    ______ ____
ROOT
ATOM      1  N   UNL     1       4.668   1.985   1.400  0.00  0.00    -0.103 NA
ATOM      2  C   UNL     1       5.831   2.533   1.654  0.00  0.00    +0.192 A 
ATOM      3  N   UNL     1       6.639   2.392   2.758  0.00  0.00    -0.336 N 
ATOM      4  C   UNL     1       7.835   3.070   2.816  0.00  0.00    +0.024 A 
ATOM      5  C   UNL     1       8.157   3.850   1.775  0.00  0.00    -0.005 A 
ATOM      6  S   UNL     1       6.796   3.659   0.656  0.00  0.00    -0.055 S 
ATOM      7  C   UNL     1       9.390   4.679   1.616  0.00  0.00    -0.038 C 
ATOM      8  N   UNL     1      10.040   4.807   2.933  0.00  0.00    +0.382 N 
ATOM      9  C   UNL     1      10.168   3.476   3.542  0.00  0.00    -0.076 C 
ATOM     10  C   UNL     1       8.797   2.971   3.999  0.00  0.00    +0.035 C 
ATOM     11  H   UNL     1      10.956   5.215   2.819  0.00  0.00    -0.085 HD
ATOM     12  H   UNL     1       6.367   1.818   3.491  0.00  0.00    +0.168 HD
ATOM     13  H   UNL     1       9.480   5.398   3.530  0.00  0.00    -0.085 HD
ENDROOT
BRANCH   1  14
ATOM     14  S   UNL     1       3.890   2.316  -0.024  0.00  0.00    +0.102 S 
ATOM     15  O   UNL     1       4.688   1.760  -1.061  0.00  0.00    -0.146 OA
ATOM     16  O   UNL     1       3.542   3.693   0.013  0.00  0.00    -0.146 OA
BRANCH  14  19
ATOM     17  C   UNL     1      -0.017   1.379   0.010  0.00  0.00    +0.017 A 
ATOM     18  C   UNL     1       1.171   2.087   0.002  0.00  0.00    +0.031 A 
ATOM     19  C   UNL     1       2.377   1.413  -0.013  0.00  0.00    +0.131 A 
ATOM     20  C   UNL     1       2.397   0.029  -0.021  0.00  0.00    +0.069 A 
ATOM     21  C   UNL     1       1.209  -0.679  -0.013  0.00  0.00    +0.037 A 
ATOM     22  C   UNL     1       0.002  -0.004   0.002  0.00  0.00    +0.019 A 
ATOM     23 BR   UNL     1      -1.623  -0.972   0.013  0.00  0.00    -0.050 Br
ATOM     24 CL   UNL     1       3.913  -0.817  -0.041  0.00  0.00    -0.081 Cl
ENDBRANCH  14  19
ENDBRANCH   1  14
TORSDOF 2
