REMARK  Name = ZINC33106805
REMARK  9 active torsions:
REMARK  status: ('A' for Active; 'I' for Inactive)
REMARK    1  A    between atoms: C_1  and  C_2
REMARK    2  A    between atoms: C_2  and  C_4
REMARK    3  A    between atoms: C_2  and  N_10
REMARK    4  A    between atoms: C_4  and  C_5
REMARK    5  A    between atoms: C_11  and  C_13
REMARK    6  A    between atoms: C_16  and  C_19
REMARK    7  A    between atoms: C_19  and  N_20
REMARK    8  A    between atoms: N_27  and  C_32
REMARK    9  A    between atoms: C_32  and  C_33
REMARK                            x       y       z     vdW  Elec       q    Type
REMARK                         _______ _______ _______ _____ _____    ______ ____
ROOT
ATOM      1  C   UNL     1      -8.305   2.082  -4.325  0.00  0.00    +0.037 A 
ATOM      2  C   UNL     1      -7.227   2.602  -5.043  0.00  0.00    +0.013 A 
ATOM      3  C   UNL     1      -6.022   1.930  -5.055  0.00  0.00    +0.006 A 
ATOM      4  C   UNL     1      -5.881   0.744  -4.357  0.00  0.00    -0.028 A 
ATOM      5  C   UNL     1      -6.947   0.221  -3.647  0.00  0.00    +0.006 A 
ATOM      6  C   UNL     1      -8.156   0.885  -3.623  0.00  0.00    +0.013 A 
ENDROOT
BRANCH   1   8
ATOM      7  N   UNL     1     -10.638   2.292  -3.613  0.00  0.00    -0.308 N 
ATOM      8  C   UNL     1      -9.599   2.797  -4.307  0.00  0.00    +0.244 C 
ATOM      9  O   UNL     1      -9.726   3.840  -4.919  0.00  0.00    -0.270 OA
ATOM     10  H   UNL     1     -10.524   1.349  -3.060  0.00  0.00    +0.149 HD
BRANCH   7  12
ATOM     11  C   UNL     1     -12.739   2.604  -4.826  0.00  0.00    +0.028 C 
ATOM     12  C   UNL     1     -11.921   3.001  -3.596  0.00  0.00    +0.077 C 
BRANCH  12  13
ATOM     13  C   UNL     1     -12.692   2.628  -2.328  0.00  0.00    +0.096 C 
BRANCH  13  14
ATOM     14  C   UNL     1     -11.944   3.128  -1.120  0.00  0.00    +0.107 A 
ATOM     15  C   UNL     1     -12.094   4.336  -0.546  0.00  0.00    +0.045 A 
ATOM     16  C   UNL     1     -11.204   4.381   0.552  0.00  0.00    +0.041 A 
ATOM     17  C   UNL     1     -10.558   3.201   0.579  0.00  0.00    +0.195 A 
ATOM     18  O   UNL     1     -11.010   2.447  -0.436  0.00  0.00    -0.468 OA
ENDBRANCH  13  14
ENDBRANCH  12  13
ENDBRANCH   7  12
ENDBRANCH   1   8
BRANCH   4  19
ATOM     19  C   UNL     1      -4.561   0.016  -4.374  0.00  0.00    +0.160 C 
BRANCH  19  20
ATOM     20  N   UNL     1      -3.730   0.485  -3.263  0.00  0.00    -0.298 N 
ATOM     21  C   UNL     1      -3.799  -0.150  -2.026  0.00  0.00    +0.069 A 
ATOM     22  C   UNL     1      -4.660  -1.228  -1.853  0.00  0.00    +0.028 A 
ATOM     23  C   UNL     1      -4.734  -1.863  -0.630  0.00  0.00    +0.002 A 
ATOM     24  C   UNL     1      -3.954  -1.430   0.429  0.00  0.00    +0.002 A 
ATOM     25  C   UNL     1      -3.098  -0.361   0.269  0.00  0.00    +0.028 A 
ATOM     26  C   UNL     1      -3.013   0.287  -0.959  0.00  0.00    +0.069 A 
ATOM     27  N   UNL     1      -2.146   1.365  -1.112  0.00  0.00    -0.299 N 
ATOM     28  C   UNL     1      -2.062   2.002  -2.297  0.00  0.00    +0.317 A 
ATOM     29  O   UNL     1      -1.311   2.946  -2.435  0.00  0.00    -0.262 OA
ATOM     30  C   UNL     1      -2.898   1.532  -3.440  0.00  0.00    +0.317 A 
ATOM     31  O   UNL     1      -2.834   2.090  -4.517  0.00  0.00    -0.262 OA
BRANCH  27  32
ATOM     32  C   UNL     1      -1.328   1.812   0.018  0.00  0.00    +0.152 C 
BRANCH  32  33
ATOM     33  C   UNL     1      -0.013   1.076   0.008  0.00  0.00    -0.013 C 
ATOM     34  C   UNL     1       1.113   1.746   0.001  0.00  0.00    +0.005 C 
ENDBRANCH  32  33
ENDBRANCH  27  32
ENDBRANCH  19  20
ENDBRANCH   4  19
TORSDOF 8
