REMARK  Name = ZINC19725218
REMARK  4 active torsions:
REMARK  status: ('A' for Active; 'I' for Inactive)
REMARK    1  A    between atoms: C_1  and  C_2
REMARK    2  A    between atoms: C_8  and  C_17
REMARK    3  A    between atoms: C_9  and  C_12
REMARK    4  A    between atoms: C_17  and  N_19
REMARK                            x       y       z     vdW  Elec       q    Type
REMARK                         _______ _______ _______ _____ _____    ______ ____
ROOT
ATOM      1  C   UNL     1      -6.134   4.509  -0.178  0.00  0.00    +0.044 C 
ATOM      2  C   UNL     1      -4.649   4.766  -0.140  0.00  0.00    -0.050 A 
ATOM      3  C   UNL     1      -4.176   6.062   0.004  0.00  0.00    +0.005 A 
ATOM      4  C   UNL     1      -2.822   6.316   0.040  0.00  0.00    +0.026 A 
ATOM      5  C   UNL     1      -1.915   5.266  -0.067  0.00  0.00    +0.048 A 
ATOM      6  C   UNL     1      -2.395   3.955  -0.211  0.00  0.00    +0.010 A 
ATOM      7  C   UNL     1      -3.768   3.713  -0.247  0.00  0.00    +0.014 A 
ATOM      8  C   UNL     1      -1.208   3.086  -0.296  0.00  0.00    +0.039 A 
ATOM      9  C   UNL     1      -0.102   3.926  -0.192  0.00  0.00    +0.093 A 
ATOM     10  N   UNL     1      -0.534   5.218  -0.062  0.00  0.00    -0.351 N 
ATOM     11  H   UNL     1       0.048   6.146   0.038  0.00  0.00    +0.166 HD
ENDROOT
BRANCH   9  12
ATOM     12  C   UNL     1       1.299   3.497  -0.220  0.00  0.00    +0.152 A 
ATOM     13  C   UNL     1       2.282   4.014  -1.015  0.00  0.00    +0.051 A 
ATOM     14  C   UNL     1       3.460   3.311  -0.712  0.00  0.00    +0.042 A 
ATOM     15  C   UNL     1       3.146   2.402   0.236  0.00  0.00    +0.196 A 
ATOM     16  O   UNL     1       1.842   2.517   0.530  0.00  0.00    -0.461 OA
ENDBRANCH   9  12
BRANCH   8  17
ATOM     17  C   UNL     1      -1.194   1.632  -0.453  0.00  0.00    +0.080 C 
ATOM     18  S   UNL     1       0.286   0.814  -0.716  0.00  0.00    -0.035 S 
BRANCH  17  19
ATOM     19  N   UNL     1      -2.347   0.936  -0.390  0.00  0.00    -0.352 N 
ATOM     20  H   UNL     1      -2.336  -0.157  -0.508  0.00  0.00    +0.143 HD
ATOM     21  H   UNL     1      -3.298   1.462  -0.221  0.00  0.00    +0.143 HD
ENDBRANCH  17  19
ENDBRANCH   8  17
TORSDOF 3
