REMARK  Name = ZINC25790247
REMARK  6 active torsions:
REMARK  status: ('A' for Active; 'I' for Inactive)
REMARK    1  A    between atoms: C_1  and  C_2
REMARK    2  A    between atoms: C_2  and  C_4
REMARK    3  A    between atoms: C_2  and  O_21
REMARK    4  A    between atoms: C_15  and  C_17
REMARK    5  A    between atoms: O_21  and  C_22
REMARK    6  A    between atoms: C_22  and  C_24
REMARK                            x       y       z     vdW  Elec       q    Type
REMARK                         _______ _______ _______ _____ _____    ______ ____
ROOT
ATOM      1  C   UNL     1       0.816  -0.551   1.146  0.00  0.00    +0.261 C 
ATOM      2  O   UNL     1       1.881  -1.089   0.930  0.00  0.00    -0.271 OA
ATOM      3  N   UNL     1       0.362  -0.438   2.410  0.00  0.00    -0.258 N 
ATOM      4  C   UNL     1      -0.973   0.110   2.691  0.00  0.00    +0.209 C 
ATOM      5  C   UNL     1      -0.885   1.035   3.879  0.00  0.00    +0.235 C 
ATOM      6  O   UNL     1      -1.660   1.963   3.974  0.00  0.00    -0.274 OA
ATOM      7  N   UNL     1       0.043   0.843   4.835  0.00  0.00    -0.283 N 
ATOM      8  C   UNL     1       0.980  -0.191   4.726  0.00  0.00    +0.056 A 
ATOM      9  C   UNL     1       1.147  -0.845   3.501  0.00  0.00    +0.058 A 
ATOM     10  C   UNL     1       2.070  -1.867   3.375  0.00  0.00    +0.026 A 
ATOM     11  C   UNL     1       2.826  -2.248   4.469  0.00  0.00    +0.014 A 
ATOM     12  C   UNL     1       2.660  -1.610   5.685  0.00  0.00    +0.057 A 
ATOM     13  C   UNL     1       1.741  -0.576   5.817  0.00  0.00    +0.037 A 
ATOM     14  H   UNL     1       0.061   1.427   5.609  0.00  0.00    +0.155 HD
ENDROOT
BRANCH  12  15
ATOM     15  C   UNL     1       3.486  -2.034   6.872  0.00  0.00    +0.417 C 
ATOM     16  F   UNL     1       4.338  -3.078   6.499  0.00  0.00    -0.166 F 
ATOM     17  F   UNL     1       4.247  -0.949   7.322  0.00  0.00    -0.166 F 
ATOM     18  F   UNL     1       2.639  -2.467   7.898  0.00  0.00    -0.166 F 
ENDBRANCH  12  15
BRANCH   1  20
ATOM     19  C   UNL     1       0.062   1.520   0.010  0.00  0.00    +0.062 C 
ATOM     20  C   UNL     1      -0.000  -0.008   0.002  0.00  0.00    +0.259 C 
BRANCH  20  21
ATOM     21  O   UNL     1       0.526  -0.499  -1.233  0.00  0.00    -0.449 OA
BRANCH  21  22
ATOM     22  C   UNL     1      -0.346  -0.662  -2.248  0.00  0.00    +0.340 C 
ATOM     23  O   UNL     1      -1.520  -0.395  -2.088  0.00  0.00    -0.245 OA
BRANCH  22  24
ATOM     24  C   UNL     1       0.126  -1.165  -3.552  0.00  0.00    +0.061 A 
ATOM     25  C   UNL     1       1.482  -1.479  -3.731  0.00  0.00    +0.016 A 
ATOM     26  C   UNL     1       1.932  -1.944  -4.928  0.00  0.00    +0.012 A 
ATOM     27  C   UNL     1       1.038  -2.114  -5.996  0.00  0.00    +0.020 A 
ATOM     28  C   UNL     1       1.191  -2.566  -7.328  0.00  0.00    +0.142 A 
ATOM     29  N   UNL     1       0.030  -2.533  -7.917  0.00  0.00    -0.181 NA
ATOM     30  N   UNL     1      -0.941  -2.065  -7.023  0.00  0.00    -0.277 N 
ATOM     31  H   UNL     1      -1.885  -1.948  -7.217  0.00  0.00    +0.189 HD
ATOM     32  C   UNL     1      -0.326  -1.802  -5.825  0.00  0.00    +0.067 A 
ATOM     33  C   UNL     1      -0.776  -1.333  -4.598  0.00  0.00    +0.042 A 
ENDBRANCH  22  24
ENDBRANCH  21  22
ENDBRANCH  20  21
ENDBRANCH   1  20
TORSDOF 5
