REMARK  Name = ZINC63373974
REMARK  10 active torsions:
REMARK  status: ('A' for Active; 'I' for Inactive)
REMARK    1  A    between atoms: C_1  and  C_2
REMARK    2  A    between atoms: C_2  and  C_4
REMARK    3  A    between atoms: C_2  and  N_10
REMARK    4  A    between atoms: C_11  and  C_13
REMARK    5  A    between atoms: C_13  and  C_15
REMARK    6  A    between atoms: C_13  and  N_19
REMARK    7  A    between atoms: C_15  and  C_16
REMARK    8  A    between atoms: C_16  and  C_17
REMARK    9  A    between atoms: C_16  and  C_18
REMARK   10  A    between atoms: C_22  and  C_38
REMARK                            x       y       z     vdW  Elec       q    Type
REMARK                         _______ _______ _______ _____ _____    ______ ____
ROOT
ATOM      1  N   UNL     1      -3.929  -1.240   2.572  0.00  0.00    -0.212 N 
ATOM      2  C   UNL     1      -4.331  -2.374   3.182  0.00  0.00    +0.249 C 
ATOM      3  O   UNL     1      -4.383  -3.485   2.700  0.00  0.00    -0.273 OA
ATOM      4  C   UNL     1      -4.704  -1.972   4.592  0.00  0.00    +0.136 C 
ATOM      5  C   UNL     1      -6.189  -2.257   4.847  0.00  0.00    +0.139 C 
ATOM      6  C   UNL     1      -6.606  -1.363   6.008  0.00  0.00    -0.034 C 
ATOM      7  C   UNL     1      -7.082  -2.172   6.950  0.00  0.00    -0.001 A 
ATOM      8  C   UNL     1      -7.685  -1.894   8.264  0.00  0.00    +0.010 A 
ATOM      9  C   UNL     1      -8.061  -2.978   8.991  0.00  0.00    +0.001 A 
ATOM     10  C   UNL     1      -7.901  -4.295   8.549  0.00  0.00    +0.002 A 
ATOM     11  C   UNL     1      -7.361  -4.642   7.353  0.00  0.00    +0.026 A 
ATOM     12  C   UNL     1      -6.930  -3.587   6.497  0.00  0.00    +0.043 A 
ATOM     13  N   UNL     1      -6.399  -3.635   5.298  0.00  0.00    -0.375 N 
ATOM     14  C   UNL     1      -6.409   0.134   6.014  0.00  0.00    +0.052 C 
ATOM     15  C   UNL     1      -4.930   0.399   5.669  0.00  0.00    +0.115 C 
ATOM     16  N   UNL     1      -4.545  -0.500   4.577  0.00  0.00    -0.269 N 
ATOM     17  C   UNL     1      -4.024  -0.180   3.385  0.00  0.00    +0.313 C 
ATOM     18  O   UNL     1      -3.679   0.943   3.077  0.00  0.00    -0.252 OA
ATOM     19  C   UNL     1      -3.799  -2.635   5.633  0.00  0.00    +0.044 C 
ATOM     20  H   UNL     1      -6.179  -4.435   4.796  0.00  0.00    +0.160 HD
ENDROOT
BRANCH   1  21
ATOM     21  C   UNL     1      -3.442  -1.177   1.191  0.00  0.00    +0.171 C 
BRANCH  21  23
ATOM     22  N   UNL     1      -1.372  -0.511   0.012  0.00  0.00    -0.307 N 
ATOM     23  C   UNL     1      -2.029  -0.655   1.181  0.00  0.00    +0.235 C 
ATOM     24  O   UNL     1      -1.481  -0.365   2.224  0.00  0.00    -0.274 OA
ATOM     25  H   UNL     1      -1.810  -0.743  -0.822  0.00  0.00    +0.149 HD
BRANCH  22  27
ATOM     26  C   UNL     1      -0.019   1.526   0.010  0.00  0.00    +0.033 C 
ATOM     27  C   UNL     1       0.002  -0.004   0.002  0.00  0.00    +0.100 C 
BRANCH  27  28
ATOM     28  C   UNL     1       0.707  -0.490  -1.238  0.00  0.00    -0.027 A 
ATOM     29  C   UNL     1       0.038  -0.522  -2.447  0.00  0.00    +0.005 A 
ATOM     30  C   UNL     1       0.685  -0.967  -3.584  0.00  0.00    +0.000 A 
ATOM     31  C   UNL     1       2.002  -1.381  -3.513  0.00  0.00    +0.000 A 
ATOM     32  C   UNL     1       2.672  -1.349  -2.304  0.00  0.00    +0.000 A 
ATOM     33  C   UNL     1       2.026  -0.899  -1.167  0.00  0.00    +0.005 A 
ENDBRANCH  27  28
ENDBRANCH  22  27
ENDBRANCH  21  23
BRANCH  21  34
ATOM     34  C   UNL     1      -4.338  -0.240   0.378  0.00  0.00    +0.035 C 
BRANCH  34  35
ATOM     35  C   UNL     1      -5.745  -0.834   0.284  0.00  0.00    -0.015 C 
ATOM     36  C   UNL     1      -6.671   0.159  -0.422  0.00  0.00    +0.007 C 
ATOM     37  C   UNL     1      -5.696  -2.140  -0.512  0.00  0.00    +0.007 C 
ENDBRANCH  34  35
ENDBRANCH  21  34
ENDBRANCH   1  21
TORSDOF 6
