REMARK  Name = ZINC57651834
REMARK  8 active torsions:
REMARK  status: ('A' for Active; 'I' for Inactive)
REMARK    1  A    between atoms: C_1  and  C_2
REMARK    2  A    between atoms: C_2  and  C_3
REMARK    3  A    between atoms: C_3  and  C_4
REMARK    4  A    between atoms: C_7  and  C_10
REMARK    5  A    between atoms: C_10  and  C_36
REMARK    6  A    between atoms: N_13  and  C_17
REMARK    7  A    between atoms: C_17  and  C_18
REMARK    8  A    between atoms: C_24  and  C_26
REMARK                            x       y       z     vdW  Elec       q    Type
REMARK                         _______ _______ _______ _____ _____    ______ ____
ROOT
ATOM      1  C   UNL     1      -1.355  -6.312  -0.019  0.00  0.00    +0.135 C 
ATOM      2  C   UNL     1      -0.541  -6.841   1.145  0.00  0.00    +0.251 C 
ATOM      3  O   UNL     1      -0.759  -6.676   2.326  0.00  0.00    -0.272 OA
ATOM      4  N   UNL     1       0.475  -7.533   0.593  0.00  0.00    -0.215 N 
ATOM      5  C   UNL     1       0.417  -7.515  -0.743  0.00  0.00    +0.310 C 
ATOM      6  O   UNL     1       1.224  -8.070  -1.462  0.00  0.00    -0.252 OA
ATOM      7  N   UNL     1      -0.636  -6.814  -1.202  0.00  0.00    -0.281 N 
ATOM      8  C   UNL     1      -2.781  -6.867   0.020  0.00  0.00    +0.047 C 
ATOM      9  H   UNL     1      -0.875  -6.669  -2.131  0.00  0.00    +0.152 HD
ENDROOT
BRANCH   1  13
ATOM     10  C   UNL     1      -1.413  -2.041   0.005  0.00  0.00    -0.047 A 
ATOM     11  C   UNL     1      -1.409  -2.725  -1.196  0.00  0.00    +0.004 A 
ATOM     12  C   UNL     1      -1.391  -4.107  -1.204  0.00  0.00    +0.006 A 
ATOM     13  C   UNL     1      -1.375  -4.805  -0.011  0.00  0.00    -0.015 A 
ATOM     14  C   UNL     1      -1.378  -4.120   1.190  0.00  0.00    +0.006 A 
ATOM     15  C   UNL     1      -1.392  -2.738   1.198  0.00  0.00    +0.004 A 
BRANCH  10  16
ATOM     16  C   UNL     1      -1.433  -0.534   0.013  0.00  0.00    +0.035 C 
BRANCH  16  18
ATOM     17  C   UNL     1      -0.019   1.526   0.010  0.00  0.00    +0.004 C 
ATOM     18  C   UNL     1       0.002  -0.004   0.002  0.00  0.00    +0.001 C 
ENDBRANCH  16  18
ENDBRANCH  10  16
ENDBRANCH   1  13
BRANCH   4  19
ATOM     19  C   UNL     1       1.516  -8.220   1.362  0.00  0.00    +0.213 C 
BRANCH  19  20
ATOM     20  C   UNL     1       1.081  -9.634   1.645  0.00  0.00    +0.234 C 
ATOM     21  O   UNL     1       0.006 -10.030   1.244  0.00  0.00    -0.274 OA
ATOM     22  N   UNL     1       1.885 -10.460   2.344  0.00  0.00    -0.293 N 
ATOM     23  C   UNL     1       3.207 -10.110   2.894  0.00  0.00    +0.108 C 
ATOM     24  C   UNL     1       3.951 -11.461   3.029  0.00  0.00    +0.021 C 
ATOM     25  C   UNL     1       2.802 -12.408   3.465  0.00  0.00    +0.029 C 
ATOM     26  C   UNL     1       1.585 -11.857   2.690  0.00  0.00    +0.106 C 
BRANCH  26  27
ATOM     27  C   UNL     1       0.353 -11.919   3.555  0.00  0.00    -0.023 A 
ATOM     28  C   UNL     1       0.152 -10.968   4.538  0.00  0.00    +0.009 A 
ATOM     29  C   UNL     1      -0.976 -11.022   5.335  0.00  0.00    +0.050 A 
ATOM     30  C   UNL     1      -1.910 -12.030   5.149  0.00  0.00    +0.162 A 
ATOM     31  C   UNL     1      -1.709 -12.985   4.159  0.00  0.00    +0.162 A 
ATOM     32  C   UNL     1      -0.577 -12.922   3.361  0.00  0.00    +0.055 A 
ATOM     33  O   UNL     1      -2.617 -13.978   3.955  0.00  0.00    -0.485 OA
ATOM     34  C   UNL     1      -3.552 -14.222   5.011  0.00  0.00    +0.270 C 
ATOM     35  C   UNL     1      -4.109 -12.872   5.482  0.00  0.00    +0.270 C 
ATOM     36  O   UNL     1      -3.014 -12.072   5.944  0.00  0.00    -0.485 OA
ENDBRANCH  26  27
ENDBRANCH  19  20
ENDBRANCH   4  19
TORSDOF 6
