REMARK  Name = ZINC02249132
REMARK  12 active torsions:
REMARK  status: ('A' for Active; 'I' for Inactive)
REMARK    1  A    between atoms: C_1  and  C_2
REMARK    2  A    between atoms: C_9  and  N_31
REMARK    3  A    between atoms: C_10  and  C_13
REMARK    4  A    between atoms: N_17  and  C_21
REMARK    5  A    between atoms: C_21  and  C_22
REMARK    6  A    between atoms: C_22  and  C_23
REMARK    7  A    between atoms: C_26  and  O_29
REMARK    8  A    between atoms: O_29  and  C_30
REMARK    9  A    between atoms: N_31  and  C_32
REMARK   10  A    between atoms: C_32  and  C_33
REMARK   11  A    between atoms: C_33  and  C_34
REMARK   12  A    between atoms: C_33  and  C_35
REMARK                            x       y       z     vdW  Elec       q    Type
REMARK                         _______ _______ _______ _____ _____    ______ ____
ROOT
ATOM      1  C   UNL     1      -2.736  -2.735  -0.137  0.00  0.00    +0.047 C 
ATOM      2  C   UNL     1      -3.614  -2.141   0.934  0.00  0.00    -0.007 A 
ATOM      3  C   UNL     1      -4.796  -2.736   1.260  0.00  0.00    +0.008 A 
ATOM      4  C   UNL     1      -5.603  -2.172   2.258  0.00  0.00    +0.019 A 
ATOM      5  C   UNL     1      -5.208  -1.045   2.891  0.00  0.00    +0.096 A 
ATOM      6  N   UNL     1      -4.028  -0.442   2.573  0.00  0.00    -0.267 N 
ATOM      7  C   UNL     1      -3.220  -0.968   1.603  0.00  0.00    +0.145 A 
ATOM      8  N   UNL     1      -2.063  -0.393   1.277  0.00  0.00    -0.214 NA
ATOM      9  C   UNL     1      -1.643   0.712   1.876  0.00  0.00    +0.134 A 
ATOM     10  C   UNL     1      -2.434   1.299   2.891  0.00  0.00    +0.081 A 
ATOM     11  C   UNL     1      -3.664   0.683   3.225  0.00  0.00    +0.267 A 
ATOM     12  O   UNL     1      -4.379   1.157   4.091  0.00  0.00    -0.267 OA
ENDROOT
BRANCH  10  13
ATOM     13  C   UNL     1      -2.009   2.475   3.552  0.00  0.00    +0.037 C 
ATOM     14  C   UNL     1      -1.690   2.435   4.879  0.00  0.00    +0.077 C 
ATOM     15  C   UNL     1      -1.612   1.318   5.758  0.00  0.00    +0.258 C 
ATOM     16  O   UNL     1      -1.848   0.190   5.361  0.00  0.00    -0.269 OA
ATOM     17  N   UNL     1      -1.277   1.538   7.017  0.00  0.00    -0.255 N 
ATOM     18  C   UNL     1      -1.014   2.789   7.458  0.00  0.00    +0.121 C 
ATOM     19  S   UNL     1      -0.566   3.302   9.028  0.00  0.00    -0.027 S 
ATOM     20  S   UNL     1      -1.248   3.770   5.983  0.00  0.00    -0.061 S 
BRANCH  17  21
ATOM     21  C   UNL     1      -1.187   0.411   7.949  0.00  0.00    +0.119 C 
BRANCH  21  22
ATOM     22  C   UNL     1       0.236  -0.152   7.932  0.00  0.00    +0.054 C 
BRANCH  22  23
ATOM     23  C   UNL     1       0.328  -1.312   8.890  0.00  0.00    -0.046 A 
ATOM     24  C   UNL     1       0.684  -1.091  10.208  0.00  0.00    +0.007 A 
ATOM     25  C   UNL     1       0.764  -2.152  11.090  0.00  0.00    +0.046 A 
ATOM     26  C   UNL     1       0.497  -3.440  10.649  0.00  0.00    +0.120 A 
ATOM     27  C   UNL     1       0.146  -3.659   9.325  0.00  0.00    +0.046 A 
ATOM     28  C   UNL     1       0.062  -2.595   8.449  0.00  0.00    +0.007 A 
BRANCH  26  29
ATOM     29  O   UNL     1       0.580  -4.486  11.513  0.00  0.00    -0.495 OA
ATOM     30  C   UNL     1       0.947  -4.186  12.861  0.00  0.00    +0.277 C 
ENDBRANCH  26  29
ENDBRANCH  22  23
ENDBRANCH  21  22
ENDBRANCH  17  21
ENDBRANCH  10  13
BRANCH   9  31
ATOM     31  N   UNL     1      -0.441   1.282   1.516  0.00  0.00    -0.328 N 
ATOM     32  H   UNL     1      -0.137   2.091   1.956  0.00  0.00    +0.147 HD
BRANCH  31  33
ATOM     33  C   UNL     1       0.377   0.666   0.468  0.00  0.00    +0.106 C 
BRANCH  33  34
ATOM     34  C   UNL     1      -0.097   1.154  -0.902  0.00  0.00    -0.000 C 
ATOM     35  C   UNL     1       0.834   0.610  -1.988  0.00  0.00    +0.009 C 
ATOM     36  C   UNL     1      -1.522   0.656  -1.156  0.00  0.00    +0.009 C 
ENDBRANCH  33  34
ENDBRANCH  31  33
ENDBRANCH   9  31
TORSDOF 8
