REMARK  Name = ZINC43262900
REMARK  13 active torsions:
REMARK  status: ('A' for Active; 'I' for Inactive)
REMARK    1  A    between atoms: C_1  and  C_2
REMARK    2  A    between atoms: C_2  and  C_3
REMARK    3  A    between atoms: C_3  and  C_5
REMARK    4  A    between atoms: C_3  and  N_22
REMARK    5  A    between atoms: C_5  and  C_7
REMARK    6  A    between atoms: C_5  and  N_13
REMARK    7  A    between atoms: N_13  and  C_14
REMARK    8  A    between atoms: N_13  and  C_15
REMARK    9  A    between atoms: C_15  and  C_17
REMARK   10  A    between atoms: C_15  and  C_18
REMARK   11  A    between atoms: C_18  and  C_19
REMARK   12  A    between atoms: C_19  and  C_20
REMARK   13  A    between atoms: C_19  and  C_21
REMARK                            x       y       z     vdW  Elec       q    Type
REMARK                         _______ _______ _______ _____ _____    ______ ____
ROOT
ATOM      1  C   UNL     1       0.887  -1.846  -1.151  0.00  0.00    +0.079 C 
ENDROOT
BRANCH   1   2
ATOM      2  C   UNL     1       1.630  -1.512   0.117  0.00  0.00    +0.006 A 
ATOM      3  C   UNL     1       2.357  -0.407   0.414  0.00  0.00    +0.014 A 
ATOM      4  C   UNL     1       2.958  -0.314   1.655  0.00  0.00    +0.023 A 
ATOM      5  C   UNL     1       2.802  -1.331   2.539  0.00  0.00    +0.055 A 
ATOM      6  S   UNL     1       1.773  -2.465   1.619  0.00  0.00    -0.085 S 
ATOM      7 BR   UNL     1       3.489  -1.502   4.293  0.00  0.00    -0.043 Br
ENDBRANCH   1   2
BRANCH   1   8
ATOM      8  N   UNL     1      -0.507  -2.176  -0.830  0.00  0.00    -0.297 NA
ATOM      9  C   UNL     1      -1.402  -1.824  -1.940  0.00  0.00    +0.105 C 
BRANCH   8  10
ATOM     10  C   UNL     1      -0.930  -1.520   0.415  0.00  0.00    +0.054 C 
ATOM     11  C   UNL     1      -1.008  -0.008   0.193  0.00  0.00    +0.024 C 
BRANCH  10  12
ATOM     12  C   UNL     1      -2.306  -2.047   0.827  0.00  0.00    +0.021 C 
BRANCH  12  13
ATOM     13  C   UNL     1      -2.200  -3.533   1.176  0.00  0.00    -0.016 C 
ATOM     14  C   UNL     1      -1.334  -3.702   2.426  0.00  0.00    +0.007 C 
ATOM     15  C   UNL     1      -3.598  -4.095   1.444  0.00  0.00    +0.007 C 
ENDBRANCH  12  13
ENDBRANCH  10  12
ENDBRANCH   8  10
ENDBRANCH   1   8
BRANCH   1  16
ATOM     16  C   UNL     1       1.552  -3.045  -1.831  0.00  0.00    -0.053 C 
BRANCH  16  17
ATOM     17  N   UNL     1       2.970  -2.747  -2.071  0.00  0.00    +0.381 N 
ATOM     18  H   UNL     1       3.429  -2.562  -1.192  0.00  0.00    -0.090 HD
ATOM     19  H   UNL     1       3.408  -3.538  -2.520  0.00  0.00    -0.090 HD
ATOM     20  H   UNL     1       3.047  -1.937  -2.668  0.00  0.00    -0.090 HD
ENDBRANCH  16  17
BRANCH  16  22
ATOM     21  C   UNL     1       1.560  -4.484  -3.873  0.00  0.00    +0.002 C 
ATOM     22  C   UNL     1       0.856  -3.325  -3.164  0.00  0.00    -0.018 C 
ENDBRANCH  16  22
ENDBRANCH   1  16
TORSDOF 8
