REMARK  Name = ZINC39942416
REMARK  6 active torsions:
REMARK  status: ('A' for Active; 'I' for Inactive)
REMARK    1  A    between atoms: C_4  and  N_7
REMARK    2  A    between atoms: N_7  and  C_8
REMARK    3  A    between atoms: C_14  and  C_16
REMARK    4  A    between atoms: C_16  and  S_17
REMARK    5  A    between atoms: S_17  and  C_18
REMARK    6  A    between atoms: C_22  and  C_24
REMARK                            x       y       z     vdW  Elec       q    Type
REMARK                         _______ _______ _______ _____ _____    ______ ____
ROOT
ATOM      1  S   UNL     1       6.339   2.234   0.305  0.00  0.00    -0.087 S 
ENDROOT
BRANCH   1   2
ATOM      2  C   UNL     1       6.104   4.032   0.283  0.00  0.00    +0.339 C 
ATOM      3  N   UNL     1       5.506   4.457  -0.995  0.00  0.00    -0.219 N 
ATOM      4  N   UNL     1       4.279   5.047  -0.658  0.00  0.00    -0.145 NA
ATOM      5  C   UNL     1       4.104   5.013   0.637  0.00  0.00    +0.238 C 
ATOM      6  O   UNL     1       5.147   4.424   1.277  0.00  0.00    -0.443 OA
ATOM      7  H   UNL     1       5.882   4.351  -1.882  0.00  0.00    +0.173 HD
BRANCH   5   8
ATOM      8  C   UNL     1       2.973   5.524   1.288  0.00  0.00    +0.043 C 
ATOM      9  C   UNL     1       1.865   6.135   0.700  0.00  0.00    +0.008 A 
ATOM     10  C   UNL     1       1.534   6.422  -0.641  0.00  0.00    +0.010 A 
ATOM     11  C   UNL     1       0.360   7.039  -0.929  0.00  0.00    +0.001 A 
ATOM     12  C   UNL     1      -0.541   7.402   0.075  0.00  0.00    +0.002 A 
ATOM     13  C   UNL     1      -0.288   7.157   1.385  0.00  0.00    +0.026 A 
ATOM     14  C   UNL     1       0.919   6.515   1.762  0.00  0.00    +0.043 A 
ATOM     15  N   UNL     1       1.391   6.171   2.945  0.00  0.00    -0.380 N 
ATOM     16  C   UNL     1       2.696   5.523   2.775  0.00  0.00    +0.154 C 
ATOM     17  H   UNL     1       0.944   6.320   3.792  0.00  0.00    +0.160 HD
ENDBRANCH   5   8
ENDBRANCH   1   2
BRANCH   1  18
ATOM     18  C   UNL     1       4.672   1.569   0.042  0.00  0.00    +0.170 C 
BRANCH  18  20
ATOM     19  N   UNL     1       3.585  -0.652  -0.012  0.00  0.00    -0.268 N 
ATOM     20  C   UNL     1       4.726   0.063   0.038  0.00  0.00    +0.230 C 
ATOM     21  O   UNL     1       5.797  -0.505   0.081  0.00  0.00    -0.274 OA
BRANCH  19  25
ATOM     22  C   UNL     1      -0.068   1.289  -0.507  0.00  0.00    +0.000 A 
ATOM     23  C   UNL     1       0.202   0.616   0.671  0.00  0.00    +0.002 A 
ATOM     24  C   UNL     1       1.412  -0.028   0.838  0.00  0.00    +0.023 A 
ATOM     25  C   UNL     1       2.358  -0.000  -0.178  0.00  0.00    +0.037 A 
ATOM     26  C   UNL     1       2.083   0.675  -1.360  0.00  0.00    +0.023 A 
ATOM     27  C   UNL     1       0.872   1.318  -1.521  0.00  0.00    +0.002 A 
ENDBRANCH  19  25
BRANCH  19  28
ATOM     28  C   UNL     1       3.629  -2.111   0.107  0.00  0.00    +0.082 C 
ATOM     29  C   UNL     1       4.346  -2.495   1.403  0.00  0.00    +0.023 C 
ATOM     30  C   UNL     1       4.393  -4.019   1.528  0.00  0.00    +0.002 C 
ATOM     31  C   UNL     1       5.148  -4.606   0.334  0.00  0.00    +0.000 C 
ATOM     32  C   UNL     1       4.431  -4.222  -0.962  0.00  0.00    +0.002 C 
ATOM     33  C   UNL     1       4.385  -2.698  -1.087  0.00  0.00    +0.023 C 
ENDBRANCH  19  28
ENDBRANCH  18  20
ENDBRANCH   1  18
TORSDOF 6
