REMARK  Name = ZINC59579153
REMARK  10 active torsions:
REMARK  status: ('A' for Active; 'I' for Inactive)
REMARK    1  A    between atoms: C_1  and  C_2
REMARK    2  A    between atoms: C_2  and  C_3
REMARK    3  A    between atoms: C_3  and  C_4
REMARK    4  A    between atoms: C_3  and  C_5
REMARK    5  A    between atoms: C_3  and  C_6
REMARK    6  A    between atoms: N_14  and  C_18
REMARK    7  A    between atoms: C_18  and  N_19
REMARK    8  A    between atoms: C_22  and  N_25
REMARK    9  A    between atoms: C_26  and  C_28
REMARK   10  A    between atoms: C_33  and  C_34
REMARK                            x       y       z     vdW  Elec       q    Type
REMARK                         _______ _______ _______ _____ _____    ______ ____
ROOT
ATOM      1  C   UNL     1       2.312  -7.967  -1.508  0.00  0.00    +0.043 C 
ENDROOT
BRANCH   1  10
ATOM      2  C   UNL     1      -1.645  -2.671  -1.969  0.00  0.00    -0.005 C 
ATOM      3  C   UNL     1      -1.045  -3.103  -0.630  0.00  0.00    +0.006 C 
ATOM      4  C   UNL     1      -0.850  -4.622  -0.626  0.00  0.00    +0.035 C 
ATOM      5  C   UNL     1       0.076  -5.020  -1.770  0.00  0.00    +0.112 C 
ATOM      6  C   UNL     1      -0.500  -4.576  -3.110  0.00  0.00    +0.035 C 
ATOM      7  C   UNL     1      -0.696  -3.058  -3.105  0.00  0.00    +0.006 C 
ATOM      8  C   UNL     1       0.310  -6.513  -1.764  0.00  0.00    +0.245 C 
ATOM      9  O   UNL     1      -0.519  -7.386  -1.898  0.00  0.00    -0.273 OA
ATOM     10  N   UNL     1       1.638  -6.668  -1.580  0.00  0.00    -0.241 N 
ATOM     11  C   UNL     1       2.262  -5.489  -1.470  0.00  0.00    +0.308 C 
ATOM     12  O   UNL     1       3.459  -5.372  -1.299  0.00  0.00    -0.252 OA
ATOM     13  N   UNL     1       1.414  -4.448  -1.570  0.00  0.00    -0.285 N 
ATOM     14  H   UNL     1       1.642  -3.506  -1.520  0.00  0.00    +0.151 HD
BRANCH   2  15
ATOM     15  C   UNL     1      -1.850  -1.155  -1.970  0.00  0.00    -0.032 C 
ATOM     16  C   UNL     1      -2.453  -0.722  -3.308  0.00  0.00    +0.011 C 
ATOM     17  C   UNL     1      -0.503  -0.458  -1.768  0.00  0.00    +0.011 C 
BRANCH  15  19
ATOM     18  C   UNL     1      -3.005   0.748  -0.836  0.00  0.00    +0.004 C 
ATOM     19  C   UNL     1      -2.800  -0.768  -0.835  0.00  0.00    +0.003 C 
ENDBRANCH  15  19
ENDBRANCH   2  15
ENDBRANCH   1  10
BRANCH   1  20
ATOM     20  N   UNL     1       2.731  -8.376  -2.855  0.00  0.00    +0.391 N 
ATOM     21  C   UNL     1       1.544  -8.592  -3.691  0.00  0.00    -0.075 C 
ATOM     22  C   UNL     1       1.976  -8.940  -5.117  0.00  0.00    +0.004 C 
ATOM     23  C   UNL     1       2.822 -10.216  -5.091  0.00  0.00    +0.070 C 
ATOM     24  C   UNL     1       4.018 -10.004  -4.158  0.00  0.00    +0.004 C 
ATOM     25  C   UNL     1       3.511  -9.617  -2.768  0.00  0.00    -0.075 C 
ATOM     26  H   UNL     1       3.301  -7.651  -3.264  0.00  0.00    -0.079 HD
BRANCH  23  27
ATOM     27  N   UNL     1       3.303 -10.512  -6.443  0.00  0.00    -0.309 N 
ATOM     28  C   UNL     1       3.617 -11.778  -6.784  0.00  0.00    +0.245 C 
ATOM     29  O   UNL     1       3.502 -12.673  -5.970  0.00  0.00    -0.270 OA
ATOM     30  H   UNL     1       3.394  -9.798  -7.093  0.00  0.00    +0.149 HD
BRANCH  28  31
ATOM     31  C   UNL     1       4.101 -12.077  -8.149  0.00  0.00    +0.040 A 
ATOM     32  C   UNL     1       4.111 -11.078  -9.124  0.00  0.00    +0.013 A 
ATOM     33  C   UNL     1       4.565 -11.364 -10.395  0.00  0.00    +0.001 A 
ATOM     34  C   UNL     1       5.009 -12.638 -10.704  0.00  0.00    +0.000 A 
ATOM     35  C   UNL     1       5.002 -13.632  -9.742  0.00  0.00    +0.004 A 
ATOM     36  C   UNL     1       4.556 -13.358  -8.466  0.00  0.00    -0.038 A 
ATOM     37  C   UNL     1       4.554 -14.441  -7.418  0.00  0.00    +0.044 C 
ENDBRANCH  28  31
ENDBRANCH  23  27
ENDBRANCH   1  20
TORSDOF 6
