REMARK  Name = ZINC14288496
REMARK  8 active torsions:
REMARK  status: ('A' for Active; 'I' for Inactive)
REMARK    1  A    between atoms: C_1  and  C_2
REMARK    2  A    between atoms: C_5  and  C_8
REMARK    3  A    between atoms: C_8  and  N_9
REMARK    4  A    between atoms: N_12  and  C_13
REMARK    5  A    between atoms: C_13  and  C_14
REMARK    6  A    between atoms: N_16  and  C_17
REMARK    7  A    between atoms: C_22  and  C_27
REMARK    8  A    between atoms: C_24  and  C_26
REMARK                            x       y       z     vdW  Elec       q    Type
REMARK                         _______ _______ _______ _____ _____    ______ ____
ROOT
ATOM      1  N   UNL     1       2.903   0.817  -1.403  0.00  0.00    -0.295 N 
ATOM      2  C   UNL     1       4.057   0.171  -1.663  0.00  0.00    +0.300 C 
ATOM      3  O   UNL     1       4.755  -0.220  -0.748  0.00  0.00    -0.253 OA
ATOM      4  N   UNL     1       4.437  -0.041  -2.939  0.00  0.00    -0.291 N 
ATOM      5  H   UNL     1       2.346   1.128  -2.133  0.00  0.00    +0.151 HD
ATOM      6  H   UNL     1       3.880   0.270  -3.669  0.00  0.00    +0.151 HD
ENDROOT
BRANCH   1   7
ATOM      7  C   UNL     1       2.490   1.048  -0.016  0.00  0.00    +0.141 C 
BRANCH   7  12
ATOM      8  C   UNL     1      -2.553   3.869   0.047  0.00  0.00    +0.044 C 
ATOM      9  C   UNL     1      -1.238   3.133   0.030  0.00  0.00    -0.050 A 
ATOM     10  C   UNL     1      -1.219   1.751   0.017  0.00  0.00    +0.003 A 
ATOM     11  C   UNL     1      -0.013   1.076   0.008  0.00  0.00    +0.005 A 
ATOM     12  C   UNL     1       1.175   1.783   0.000  0.00  0.00    -0.030 A 
ATOM     13  C   UNL     1       1.156   3.165   0.008  0.00  0.00    +0.005 A 
ATOM     14  C   UNL     1      -0.050   3.840   0.022  0.00  0.00    +0.003 A 
ENDBRANCH   7  12
ENDBRANCH   1   7
BRANCH   4  15
ATOM     15  C   UNL     1       5.691  -0.743  -3.223  0.00  0.00    +0.201 C 
BRANCH  15  16
ATOM     16  C   UNL     1       5.882  -0.849  -4.714  0.00  0.00    +0.230 C 
ATOM     17  O   UNL     1       5.051  -0.385  -5.466  0.00  0.00    -0.274 OA
ATOM     18  N   UNL     1       6.975  -1.461  -5.212  0.00  0.00    -0.311 N 
ATOM     19  H   UNL     1       7.639  -1.832  -4.610  0.00  0.00    +0.149 HD
BRANCH  18  20
ATOM     20  C   UNL     1       7.160  -1.564  -6.661  0.00  0.00    +0.076 C 
ATOM     21  C   UNL     1       7.817  -0.285  -7.184  0.00  0.00    +0.022 C 
ATOM     22  C   UNL     1       9.177  -0.098  -6.509  0.00  0.00    +0.002 C 
ATOM     23  C   UNL     1      10.072  -1.297  -6.824  0.00  0.00    +0.003 C 
ATOM     24  C   UNL     1       9.415  -2.576  -6.301  0.00  0.00    -0.009 C 
ATOM     25  C   UNL     1       8.055  -2.764  -6.977  0.00  0.00    +0.009 C 
ATOM     26  C   UNL     1       7.398  -4.042  -6.454  0.00  0.00    +0.009 C 
ATOM     27  C   UNL     1      10.311  -3.776  -6.617  0.00  0.00    +0.008 C 
ENDBRANCH  18  20
ENDBRANCH  15  16
ENDBRANCH   4  15
TORSDOF 5
