REMARK  Name = ZINC13015564
REMARK  7 active torsions:
REMARK  status: ('A' for Active; 'I' for Inactive)
REMARK    1  A    between atoms: C_1  and  C_2
REMARK    2  A    between atoms: C_2  and  C_4
REMARK    3  A    between atoms: C_2  and  O_17
REMARK    4  A    between atoms: N_6  and  C_7
REMARK    5  A    between atoms: C_9  and  N_14
REMARK    6  A    between atoms: O_17  and  C_18
REMARK    7  A    between atoms: C_18  and  C_20
REMARK                            x       y       z     vdW  Elec       q    Type
REMARK                         _______ _______ _______ _____ _____    ______ ____
ROOT
ATOM      1  C   UNL     1       1.611   6.275  -1.003  0.00  0.00    +0.062 C 
ATOM      2  C   UNL     1       2.297   5.675   0.225  0.00  0.00    +0.259 C 
ENDROOT
BRANCH   2   3
ATOM      3  C   UNL     1       2.320   4.173   0.104  0.00  0.00    +0.258 C 
ATOM      4  O   UNL     1       3.378   3.581   0.091  0.00  0.00    -0.271 OA
ATOM      5  N   UNL     1       1.163   3.487   0.009  0.00  0.00    -0.281 N 
ATOM      6  H   UNL     1       0.320   3.963  -0.046  0.00  0.00    +0.155 HD
BRANCH   5   7
ATOM      7  C   UNL     1       1.179   2.087  -0.009  0.00  0.00    +0.054 A 
ATOM      8  C   UNL     1       2.222   1.411  -0.628  0.00  0.00    +0.057 A 
ATOM      9  C   UNL     1       2.235   0.030  -0.644  0.00  0.00    +0.128 A 
ATOM     10  C   UNL     1       1.210  -0.680  -0.047  0.00  0.00    +0.034 A 
ATOM     11  C   UNL     1       0.169  -0.011   0.570  0.00  0.00    +0.024 A 
ATOM     12  C   UNL     1       0.150   1.371   0.591  0.00  0.00    +0.062 A 
ATOM     13 CL   UNL     1      -1.161   2.212   1.358  0.00  0.00    -0.082 Cl
BRANCH   9  14
ATOM     14  N   UNL     1       3.347  -0.691  -1.304  0.00  0.00    +0.056 N 
ATOM     15  O   UNL     1       3.358  -1.909  -1.319  0.00  0.00    -0.126 OA
ATOM     16  O   UNL     1       4.250  -0.066  -1.831  0.00  0.00    -0.126 OA
ENDBRANCH   9  14
ENDBRANCH   5   7
ENDBRANCH   2   3
BRANCH   2  17
ATOM     17  O   UNL     1       3.658   6.174   0.311  0.00  0.00    -0.452 OA
BRANCH  17  18
ATOM     18  C   UNL     1       3.850   7.304   1.010  0.00  0.00    +0.311 C 
ATOM     19  O   UNL     1       2.912   7.857   1.532  0.00  0.00    -0.251 OA
BRANCH  18  20
ATOM     20  C   UNL     1       5.247   7.886   1.143  0.00  0.00    +0.098 C 
ATOM     21  C   UNL     1       6.147   6.825   1.758  0.00  0.00    +0.020 C 
ATOM     22  C   UNL     1       7.486   7.382   2.228  0.00  0.00    +0.016 C 
ATOM     23  C   UNL     1       8.345   7.824   1.047  0.00  0.00    +0.006 C 
ATOM     24  C   UNL     1       7.790   9.045   0.334  0.00  0.00    +0.001 C 
ATOM     25  C   UNL     1       7.348  10.159   1.267  0.00  0.00    +0.006 C 
ATOM     26  C   UNL     1       6.516   9.659   2.443  0.00  0.00    +0.016 C 
ATOM     27  C   UNL     1       5.154   9.153   1.980  0.00  0.00    +0.020 C 
ATOM     28  C   UNL     1       7.261   8.552   3.166  0.00  0.00    +0.068 C 
ATOM     29  S   UNL     1       6.353   8.024   4.664  0.00  0.00    -0.142 S 
ATOM     30  C   UNL     1       7.700   7.784   5.888  0.00  0.00    +0.081 C 
ATOM     31  C   UNL     1       8.675   8.966   5.656  0.00  0.00    +0.081 C 
ATOM     32  S   UNL     1       8.843   9.163   3.844  0.00  0.00    -0.142 S 
ENDBRANCH  18  20
ENDBRANCH  17  18
ENDBRANCH   2  17
TORSDOF 6
