REMARK  Name = ZINC64623164
REMARK  5 active torsions:
REMARK  status: ('A' for Active; 'I' for Inactive)
REMARK    1  A    between atoms: C_1  and  C_2
REMARK    2  A    between atoms: C_5  and  N_8
REMARK    3  A    between atoms: C_17  and  O_33
REMARK    4  A    between atoms: C_24  and  C_26
REMARK    5  A    between atoms: O_33  and  C_34
REMARK                            x       y       z     vdW  Elec       q    Type
REMARK                         _______ _______ _______ _____ _____    ______ ____
ROOT
ATOM      1  N   UNL     1      -0.269  -3.794   0.568  0.00  0.00    -0.269 N 
ATOM      2  C   UNL     1       0.029  -4.662   1.555  0.00  0.00    +0.307 C 
ATOM      3  O   UNL     1       0.215  -4.256   2.686  0.00  0.00    -0.252 OA
ATOM      4  N   UNL     1       0.120  -5.980   1.289  0.00  0.00    -0.276 N 
ATOM      5  C   UNL     1       0.035  -6.447  -0.098  0.00  0.00    +0.114 C 
ATOM      6  C   UNL     1       1.308  -7.238  -0.452  0.00  0.00    +0.052 C 
ATOM      7  C   UNL     1       1.571  -8.172   0.703  0.00  0.00    -0.035 C 
ATOM      8  C   UNL     1       1.784  -9.481   0.742  0.00  0.00    +0.003 A 
ATOM      9  C   UNL     1       1.949 -10.482  -0.323  0.00  0.00    +0.055 A 
ATOM     10  C   UNL     1       2.136 -11.771   0.074  0.00  0.00    +0.121 A 
ATOM     11  C   UNL     1       2.179 -12.181   1.415  0.00  0.00    +0.047 A 
ATOM     12  C   UNL     1       2.046 -11.342   2.474  0.00  0.00    +0.029 A 
ATOM     13  C   UNL     1       1.847  -9.918   2.171  0.00  0.00    +0.043 A 
ATOM     14  N   UNL     1       1.715  -8.899   2.965  0.00  0.00    -0.375 N 
ATOM     15  C   UNL     1       1.615  -7.688   2.148  0.00  0.00    +0.131 C 
ATOM     16  C   UNL     1       0.309  -6.934   2.393  0.00  0.00    +0.134 C 
ATOM     17  H   UNL     1      -0.491  -4.123  -0.317  0.00  0.00    +0.156 HD
ATOM     18  H   UNL     1       1.687  -8.933   3.934  0.00  0.00    +0.160 HD
ENDROOT
BRANCH   1  23
ATOM     19  C   UNL     1      -0.220   1.787   1.587  0.00  0.00    +0.044 C 
ATOM     20  C   UNL     1      -0.233   0.304   1.316  0.00  0.00    -0.050 A 
ATOM     21  C   UNL     1       0.130  -0.173   0.070  0.00  0.00    +0.005 A 
ATOM     22  C   UNL     1       0.119  -1.531  -0.181  0.00  0.00    +0.023 A 
ATOM     23  C   UNL     1      -0.256  -2.417   0.819  0.00  0.00    +0.035 A 
ATOM     24  C   UNL     1      -0.620  -1.935   2.070  0.00  0.00    +0.023 A 
ATOM     25  C   UNL     1      -0.601  -0.576   2.316  0.00  0.00    +0.005 A 
ENDBRANCH   1  23
BRANCH  16  26
ATOM     26  C   UNL     1      -0.840  -7.909   2.428  0.00  0.00    -0.025 A 
ATOM     27  C   UNL     1      -1.743  -7.874   3.474  0.00  0.00    +0.008 A 
ATOM     28  C   UNL     1      -2.797  -8.767   3.507  0.00  0.00    +0.038 A 
ATOM     29  C   UNL     1      -2.949  -9.696   2.492  0.00  0.00    +0.123 A 
ATOM     30  C   UNL     1      -2.044  -9.730   1.445  0.00  0.00    +0.038 A 
ATOM     31  C   UNL     1      -0.993  -8.833   1.411  0.00  0.00    +0.008 A 
ATOM     32  F   UNL     1      -3.979 -10.570   2.524  0.00  0.00    -0.205 F 
ENDBRANCH  16  26
BRANCH  10  33
ATOM     33  O   UNL     1       2.292 -12.719  -0.888  0.00  0.00    -0.495 OA
ATOM     34  C   UNL     1       2.487 -14.064  -0.448  0.00  0.00    +0.277 C 
ENDBRANCH  10  33
TORSDOF 3
