REMARK  Name = ZINC10693762
REMARK  10 active torsions:
REMARK  status: ('A' for Active; 'I' for Inactive)
REMARK    1  A    between atoms: C_1  and  C_2
REMARK    2  A    between atoms: C_4  and  C_37
REMARK    3  A    between atoms: C_6  and  N_8
REMARK    4  A    between atoms: C_9  and  C_11
REMARK    5  A    between atoms: C_11  and  C_13
REMARK    6  A    between atoms: C_11  and  O_19
REMARK    7  A    between atoms: O_19  and  C_20
REMARK    8  A    between atoms: C_20  and  C_22
REMARK    9  A    between atoms: C_22  and  N_23
REMARK   10  A    between atoms: C_31  and  C_33
REMARK                            x       y       z     vdW  Elec       q    Type
REMARK                         _______ _______ _______ _____ _____    ______ ____
ROOT
ATOM      1  C   UNL     1       1.085   3.740  -0.017  0.00  0.00    +0.292 C 
ENDROOT
BRANCH   1   2
ATOM      2  C   UNL     1       1.314   2.251  -0.069  0.00  0.00    +0.002 A 
ATOM      3  C   UNL     1       0.237   1.385  -0.040  0.00  0.00    +0.008 A 
ATOM      4  C   UNL     1       0.448   0.019  -0.088  0.00  0.00    +0.000 A 
ATOM      5  C   UNL     1       1.734  -0.480  -0.165  0.00  0.00    +0.000 A 
ATOM      6  C   UNL     1       2.811   0.387  -0.194  0.00  0.00    +0.000 A 
ATOM      7  C   UNL     1       2.601   1.752  -0.146  0.00  0.00    +0.008 A 
ENDBRANCH   1   2
BRANCH   1   9
ATOM      8  N   UNL     1       0.513   3.833   2.388  0.00  0.00    -0.282 N 
ATOM      9  C   UNL     1       1.320   4.236   1.387  0.00  0.00    +0.263 C 
ATOM     10  O   UNL     1       2.236   4.997   1.615  0.00  0.00    -0.271 OA
ATOM     11  H   UNL     1      -0.264   3.286   2.194  0.00  0.00    +0.155 HD
BRANCH   8  17
ATOM     12  C   UNL     1      -1.080   5.048   6.877  0.00  0.00    +0.044 C 
ATOM     13  C   UNL     1       0.043   4.800   5.904  0.00  0.00    -0.048 A 
ATOM     14  C   UNL     1       1.356   4.938   6.315  0.00  0.00    +0.006 A 
ATOM     15  C   UNL     1       2.390   4.711   5.425  0.00  0.00    -0.048 A 
ATOM     16  C   UNL     1       2.114   4.344   4.123  0.00  0.00    +0.026 A 
ATOM     17  C   UNL     1       0.796   4.204   3.707  0.00  0.00    +0.034 A 
ATOM     18  C   UNL     1      -0.240   4.439   4.601  0.00  0.00    +0.026 A 
ATOM     19  C   UNL     1       3.820   4.863   5.878  0.00  0.00    +0.044 C 
ENDBRANCH   8  17
ENDBRANCH   1   9
BRANCH   1  20
ATOM     20  O   UNL     1       2.004   4.403  -0.925  0.00  0.00    -0.446 OA
BRANCH  20  21
ATOM     21  C   UNL     1       1.586   4.588  -2.187  0.00  0.00    +0.326 C 
ATOM     22  O   UNL     1       0.488   4.209  -2.522  0.00  0.00    -0.249 OA
BRANCH  21  23
ATOM     23  C   UNL     1       2.485   5.269  -3.187  0.00  0.00    +0.238 C 
BRANCH  23  24
ATOM     24  N   UNL     1       1.804   5.349  -4.481  0.00  0.00    -0.213 N 
ATOM     25  C   UNL     1       1.885   4.404  -5.441  0.00  0.00    +0.247 C 
ATOM     26  O   UNL     1       2.511   3.367  -5.398  0.00  0.00    -0.273 OA
ATOM     27  C   UNL     1       1.030   4.910  -6.579  0.00  0.00    +0.115 C 
ATOM     28  C   UNL     1      -0.124   3.951  -6.851  0.00  0.00    +0.035 C 
ATOM     29  C   UNL     1       0.430   2.603  -7.320  0.00  0.00    +0.003 C 
ATOM     30  C   UNL     1       1.256   2.807  -8.592  0.00  0.00    +0.000 C 
ATOM     31  C   UNL     1       2.423   3.752  -8.296  0.00  0.00    +0.006 C 
ATOM     32  C   UNL     1       1.877   5.105  -7.831  0.00  0.00    +0.018 C 
ATOM     33  C   UNL     1       3.044   6.043  -7.516  0.00  0.00    +0.010 C 
ATOM     34  N   UNL     1       0.521   6.201  -6.097  0.00  0.00    -0.285 N 
ATOM     35  C   UNL     1       1.028   6.372  -4.861  0.00  0.00    +0.310 C 
ATOM     36  O   UNL     1       0.806   7.345  -4.168  0.00  0.00    -0.252 OA
ATOM     37  H   UNL     1      -0.064   6.810  -6.574  0.00  0.00    +0.151 HD
ENDBRANCH  23  24
ENDBRANCH  21  23
ENDBRANCH  20  21
ENDBRANCH   1  20
TORSDOF 7
