REMARK  Name = ZINC13440735
REMARK  10 active torsions:
REMARK  status: ('A' for Active; 'I' for Inactive)
REMARK    1  A    between atoms: C_1  and  C_2
REMARK    2  A    between atoms: C_5  and  N_21
REMARK    3  A    between atoms: N_8  and  C_9
REMARK    4  A    between atoms: C_9  and  C_10
REMARK    5  A    between atoms: N_12  and  C_13
REMARK    6  A    between atoms: C_13  and  C_14
REMARK    7  A    between atoms: C_17  and  C_19
REMARK    8  A    between atoms: N_21  and  S_22
REMARK    9  A    between atoms: S_22  and  C_25
REMARK   10  A    between atoms: C_25  and  C_26
REMARK                            x       y       z     vdW  Elec       q    Type
REMARK                         _______ _______ _______ _____ _____    ______ ____
ROOT
ATOM      1  C   UNL     1      -4.306  -0.387  -1.318  0.00  0.00    +0.063 C 
ATOM      2  C   UNL     1      -3.707  -0.913  -0.039  0.00  0.00    +0.020 A 
ATOM      3  C   UNL     1      -2.370  -0.839   0.151  0.00  0.00    +0.023 A 
ATOM      4  C   UNL     1      -1.802  -1.320   1.340  0.00  0.00    +0.031 A 
ATOM      5  C   UNL     1      -2.614  -1.873   2.292  0.00  0.00    +0.112 A 
ATOM      6  C   UNL     1      -4.005  -1.934   2.060  0.00  0.00    +0.274 A 
ATOM      7  O   UNL     1      -4.744  -2.421   2.901  0.00  0.00    -0.266 OA
ATOM      8  N   UNL     1      -4.516  -1.457   0.909  0.00  0.00    -0.302 N 
ENDROOT
BRANCH   5   9
ATOM      9  N   UNL     1      -2.071  -2.366   3.486  0.00  0.00    -0.215 N 
ATOM     10  H   UNL     1      -2.653  -2.752   4.159  0.00  0.00    +0.173 HD
BRANCH   9  11
ATOM     11  S   UNL     1      -0.438  -2.288   3.748  0.00  0.00    +0.047 S 
ATOM     12  O   UNL     1       0.143  -2.857   2.583  0.00  0.00    -0.155 OA
ATOM     13  O   UNL     1      -0.246  -2.889   5.021  0.00  0.00    -0.155 OA
BRANCH  11  14
ATOM     14  C   UNL     1      -0.063  -0.515   3.830  0.00  0.00    +0.223 C 
BRANCH  14  15
ATOM     15  C   UNL     1       1.413  -0.325   4.069  0.00  0.00    -0.025 A 
ATOM     16  C   UNL     1       1.900  -0.247   5.360  0.00  0.00    +0.005 A 
ATOM     17  C   UNL     1       3.254  -0.077   5.579  0.00  0.00    +0.000 A 
ATOM     18  C   UNL     1       4.120   0.026   4.506  0.00  0.00    +0.000 A 
ATOM     19  C   UNL     1       3.632  -0.046   3.215  0.00  0.00    +0.000 A 
ATOM     20  C   UNL     1       2.278  -0.222   2.996  0.00  0.00    +0.005 A 
ENDBRANCH  14  15
ENDBRANCH  11  14
ENDBRANCH   9  11
ENDBRANCH   5   9
BRANCH   8  21
ATOM     21  C   UNL     1      -5.961  -1.525   0.675  0.00  0.00    +0.220 C 
BRANCH  21  22
ATOM     22  C   UNL     1      -6.614  -0.274   1.203  0.00  0.00    +0.233 C 
ATOM     23  O   UNL     1      -5.940   0.590   1.723  0.00  0.00    -0.274 OA
ATOM     24  N   UNL     1      -7.948  -0.114   1.097  0.00  0.00    -0.309 N 
ATOM     25  H   UNL     1      -8.488  -0.804   0.681  0.00  0.00    +0.149 HD
BRANCH  24  26
ATOM     26  C   UNL     1      -8.584   1.102   1.610  0.00  0.00    +0.146 C 
BRANCH  26  27
ATOM     27  C   UNL     1     -10.070   1.032   1.370  0.00  0.00    +0.008 A 
ATOM     28  C   UNL     1     -11.032   0.526   2.181  0.00  0.00    +0.013 A 
ATOM     29  C   UNL     1     -12.344   0.560   1.769  0.00  0.00    +0.019 A 
ATOM     30  C   UNL     1     -12.601   1.120   0.530  0.00  0.00    +0.050 A 
ATOM     31  S   UNL     1     -10.965   1.587  -0.007  0.00  0.00    -0.089 S 
BRANCH  30  32
ATOM     32  C   UNL     1     -13.888   1.291  -0.161  0.00  0.00    +0.101 C 
ATOM     33  N   UNL     1     -13.929   1.881  -1.407  0.00  0.00    -0.344 N 
ATOM     34  H   UNL     1     -15.890   0.952   0.030  0.00  0.00    +0.157 HD
ATOM     35  H   UNL     1     -13.109   2.184  -1.828  0.00  0.00    +0.144 HD
ATOM     36  H   UNL     1     -14.778   1.994  -1.863  0.00  0.00    +0.144 HD
ATOM     37  N   UNL     1     -14.974   0.856   0.468  0.00  0.00    -0.386 N 
ATOM     38  H   UNL     1     -14.892   0.423   1.396  0.00  0.00    +0.157 HD
ENDBRANCH  30  32
ENDBRANCH  26  27
ENDBRANCH  24  26
ENDBRANCH  21  22
ENDBRANCH   8  21
TORSDOF 9
