REMARK  Name = ZINC14132954
REMARK  9 active torsions:
REMARK  status: ('A' for Active; 'I' for Inactive)
REMARK    1  A    between atoms: C_1  and  C_2
REMARK    2  A    between atoms: C_2  and  C_4
REMARK    3  A    between atoms: C_2  and  S_14
REMARK    4  A    between atoms: N_9  and  C_10
REMARK    5  A    between atoms: C_10  and  C_11
REMARK    6  A    between atoms: C_11  and  C_12
REMARK    7  A    between atoms: C_11  and  C_13
REMARK    8  A    between atoms: S_14  and  C_15
REMARK    9  A    between atoms: N_19  and  C_20
REMARK                            x       y       z     vdW  Elec       q    Type
REMARK                         _______ _______ _______ _____ _____    ______ ____
ROOT
ATOM      1  C   UNL     1       2.504   0.111   1.313  0.00  0.00    +0.198 A 
ATOM      2  N   UNL     1       2.993   0.544   0.176  0.00  0.00    -0.120 NA
ATOM      3  N   UNL     1       4.380   0.678   0.322  0.00  0.00    -0.112 NA
ATOM      4  C   UNL     1       4.696   0.322   1.543  0.00  0.00    +0.225 A 
ATOM      5  N   UNL     1       3.545  -0.033   2.191  0.00  0.00    -0.259 N 
ATOM      6  N   UNL     1       5.975   0.313   2.085  0.00  0.00    -0.299 N 
ATOM      7  C   UNL     1       6.218  -0.250   3.420  0.00  0.00    +0.108 C 
ATOM      8  C   UNL     1       7.330  -1.299   3.318  0.00  0.00    +0.019 C 
ATOM      9  C   UNL     1       8.563  -0.666   2.669  0.00  0.00    +0.003 C 
ATOM     10  C   UNL     1       8.213  -0.195   1.256  0.00  0.00    +0.019 C 
ATOM     11  C   UNL     1       7.111   0.860   1.332  0.00  0.00    +0.108 C 
ENDROOT
BRANCH   5  12
ATOM     12  C   UNL     1       3.447  -0.471   3.520  0.00  0.00    +0.052 A 
ATOM     13  C   UNL     1       3.611   0.430   4.563  0.00  0.00    +0.026 A 
ATOM     14  C   UNL     1       3.515  -0.003   5.871  0.00  0.00    +0.002 A 
ATOM     15  C   UNL     1       3.255  -1.334   6.142  0.00  0.00    +0.000 A 
ATOM     16  C   UNL     1       3.091  -2.234   5.105  0.00  0.00    +0.002 A 
ATOM     17  C   UNL     1       3.182  -1.805   3.796  0.00  0.00    +0.026 A 
ENDBRANCH   5  12
BRANCH   1  18
ATOM     18  S   UNL     1       0.807  -0.221   1.653  0.00  0.00    -0.073 S 
BRANCH  18  20
ATOM     19  C   UNL     1       0.099   1.662  -0.201  0.00  0.00    +0.029 C 
ATOM     20  C   UNL     1      -0.036   0.167   0.094  0.00  0.00    +0.137 C 
BRANCH  20  21
ATOM     21  C   UNL     1      -1.495  -0.193   0.209  0.00  0.00    +0.233 C 
ATOM     22  O   UNL     1      -2.027  -0.225   1.298  0.00  0.00    -0.274 OA
ATOM     23  N   UNL     1      -2.208  -0.479  -0.898  0.00  0.00    -0.239 N 
ATOM     24  C   UNL     1      -3.513  -0.800  -0.795  0.00  0.00    +0.306 C 
ATOM     25  O   UNL     1      -4.046  -0.833   0.297  0.00  0.00    -0.252 OA
ATOM     26  N   UNL     1      -4.226  -1.086  -1.902  0.00  0.00    -0.299 N 
ATOM     27  H   UNL     1      -1.782  -0.453  -1.769  0.00  0.00    +0.159 HD
ATOM     28  H   UNL     1      -3.800  -1.061  -2.773  0.00  0.00    +0.150 HD
BRANCH  26  29
ATOM     29  C   UNL     1      -5.644  -1.436  -1.790  0.00  0.00    +0.108 C 
BRANCH  29  30
ATOM     30  C   UNL     1      -6.213  -1.712  -3.183  0.00  0.00    -0.000 C 
ATOM     31  C   UNL     1      -7.659  -2.197  -3.056  0.00  0.00    +0.009 C 
ATOM     32  C   UNL     1      -6.178  -0.427  -4.013  0.00  0.00    +0.009 C 
ENDBRANCH  29  30
ENDBRANCH  26  29
ENDBRANCH  20  21
ENDBRANCH  18  20
ENDBRANCH   1  18
TORSDOF 6
