REMARK  Name = ZINC37279581
REMARK  9 active torsions:
REMARK  status: ('A' for Active; 'I' for Inactive)
REMARK    1  A    between atoms: C_1  and  C_2
REMARK    2  A    between atoms: C_2  and  C_4
REMARK    3  A    between atoms: C_2  and  N_10
REMARK    4  A    between atoms: N_10  and  C_11
REMARK    5  A    between atoms: C_14  and  C_17
REMARK    6  A    between atoms: C_17  and  O_19
REMARK    7  A    between atoms: O_19  and  C_20
REMARK    8  A    between atoms: C_20  and  C_21
REMARK    9  A    between atoms: C_20  and  C_22
REMARK                            x       y       z     vdW  Elec       q    Type
REMARK                         _______ _______ _______ _____ _____    ______ ____
ROOT
ATOM      1  C   UNL     1      -2.072  -0.647  -1.181  0.00  0.00    +0.028 A 
ATOM      2  C   UNL     1      -1.463  -0.306  -2.386  0.00  0.00    +0.024 A 
ATOM      3  C   UNL     1      -2.151  -0.439  -3.565  0.00  0.00    +0.017 A 
ATOM      4  C   UNL     1      -3.465  -0.918  -3.556  0.00  0.00    +0.059 A 
ATOM      5  C   UNL     1      -4.073  -1.259  -2.344  0.00  0.00    +0.017 A 
ATOM      6  C   UNL     1      -3.378  -1.129  -1.169  0.00  0.00    +0.024 A 
ENDROOT
BRANCH   1   7
ATOM      7  N   UNL     1      -1.372  -0.511   0.012  0.00  0.00    -0.337 N 
ATOM      8  H   UNL     1      -1.794  -0.752   0.852  0.00  0.00    +0.147 HD
BRANCH   7  10
ATOM      9  C   UNL     1      -0.019   1.526   0.010  0.00  0.00    +0.033 C 
ATOM     10  C   UNL     1       0.002  -0.004   0.002  0.00  0.00    +0.105 C 
BRANCH  10  11
ATOM     11  C   UNL     1       0.731  -0.503   1.223  0.00  0.00    +0.024 A 
ATOM     12  C   UNL     1       1.979  -1.024   1.319  0.00  0.00    +0.030 A 
ATOM     13  C   UNL     1       2.447  -1.420   2.558  0.00  0.00    +0.023 A 
ATOM     14  C   UNL     1       1.643  -1.276   3.640  0.00  0.00    +0.046 A 
ATOM     15  S   UNL     1       0.177  -0.556   2.919  0.00  0.00    -0.099 S 
ATOM     16 BR   UNL     1       3.064  -1.205  -0.219  0.00  0.00    -0.049 Br
ENDBRANCH  10  11
ENDBRANCH   7  10
ENDBRANCH   1   7
BRANCH   4  17
ATOM     17  C   UNL     1      -4.207  -1.062  -4.821  0.00  0.00    +0.339 C 
ATOM     18  O   UNL     1      -3.677  -0.764  -5.874  0.00  0.00    -0.245 OA
BRANCH  17  19
ATOM     19  O   UNL     1      -5.473  -1.523  -4.811  0.00  0.00    -0.458 OA
BRANCH  19  20
ATOM     20  C   UNL     1      -6.132  -1.637  -6.074  0.00  0.00    +0.171 C 
ATOM     21  C   UNL     1      -5.876  -3.027  -6.659  0.00  0.00    +0.052 C 
ATOM     22  C   UNL     1      -7.636  -1.433  -5.885  0.00  0.00    +0.052 C 
ENDBRANCH  19  20
ENDBRANCH  17  19
ENDBRANCH   4  17
TORSDOF 6
