REMARK  Name = ZINC39462145
REMARK  9 active torsions:
REMARK  status: ('A' for Active; 'I' for Inactive)
REMARK    1  A    between atoms: C_1  and  C_2
REMARK    2  A    between atoms: C_5  and  C_30
REMARK    3  A    between atoms: C_12  and  N_15
REMARK    4  A    between atoms: C_16  and  C_18
REMARK    5  A    between atoms: C_18  and  N_19
REMARK    6  A    between atoms: N_19  and  C_20
REMARK    7  A    between atoms: N_19  and  C_23
REMARK    8  A    between atoms: C_20  and  C_21
REMARK    9  A    between atoms: C_23  and  C_24
REMARK                            x       y       z     vdW  Elec       q    Type
REMARK                         _______ _______ _______ _____ _____    ______ ____
ROOT
ATOM      1  N   UNL     1      -0.527   0.935   2.727  0.00  0.00    -0.288 N 
ATOM      2  C   UNL     1      -0.113   0.859   4.008  0.00  0.00    +0.199 C 
ATOM      3  O   UNL     1       0.452  -0.138   4.404  0.00  0.00    -0.278 OA
ATOM      4  H   UNL     1      -0.979   1.733   2.410  0.00  0.00    +0.151 HD
ENDROOT
BRANCH   1  15
ATOM      5  C   UNL     1       0.381   2.230   0.011  0.00  0.00    +0.043 C 
ATOM      6  C   UNL     1       0.368   0.712  -0.175  0.00  0.00    +0.150 C 
ATOM      7  C   UNL     1      -1.047   0.221  -0.344  0.00  0.00    +0.016 A 
ATOM      8  C   UNL     1      -1.952   0.217  -1.412  0.00  0.00    +0.065 A 
ATOM      9  N   UNL     1      -3.145  -0.292  -1.257  0.00  0.00    -0.176 NA
ATOM     10  N   UNL     1      -3.541  -0.803  -0.147  0.00  0.00    -0.243 N 
ATOM     11  C   UNL     1      -2.742  -0.847   0.939  0.00  0.00    +0.272 A 
ATOM     12  O   UNL     1      -3.140  -1.338   1.983  0.00  0.00    -0.266 OA
ATOM     13  C   UNL     1      -1.443  -0.317   0.848  0.00  0.00    +0.072 A 
ATOM     14  H   UNL     1      -4.438  -1.167  -0.088  0.00  0.00    +0.192 HD
ATOM     15  C   UNL     1      -0.294  -0.186   1.814  0.00  0.00    +0.243 C 
ATOM     16  O   UNL     1       0.875   0.062   1.006  0.00  0.00    -0.347 OA
ATOM     17  C   UNL     1      -1.551   0.802  -2.742  0.00  0.00    +0.068 C 
ENDBRANCH   1  15
BRANCH   2  18
ATOM     18  C   UNL     1      -0.353   2.013   4.947  0.00  0.00    +0.020 C 
BRANCH  18  19
ATOM     19  N   UNL     1       0.307   1.744   6.231  0.00  0.00    +0.391 N 
ATOM     20  H   UNL     1       0.008   0.846   6.581  0.00  0.00    -0.080 HD
BRANCH  19  21
ATOM     21  C   UNL     1      -0.055   2.790   7.197  0.00  0.00    -0.051 C 
BRANCH  21  22
ATOM     22  C   UNL     1      -1.529   2.705   7.501  0.00  0.00    -0.053 C 
ATOM     23  C   UNL     1      -1.936   2.586   8.741  0.00  0.00    +0.002 C 
ENDBRANCH  21  22
ENDBRANCH  19  21
BRANCH  19  24
ATOM     24  C   UNL     1       1.764   1.735   6.042  0.00  0.00    -0.034 C 
BRANCH  24  25
ATOM     25  C   UNL     1       2.436   1.339   7.331  0.00  0.00    -0.025 A 
ATOM     26  C   UNL     1       2.778   0.103   7.769  0.00  0.00    +0.011 A 
ATOM     27  C   UNL     1       3.394  -0.025   9.001  0.00  0.00    +0.028 A 
ATOM     28  C   UNL     1       3.638   1.091   9.732  0.00  0.00    +0.078 A 
ATOM     29  S   UNL     1       2.995   2.375   8.672  0.00  0.00    -0.084 S 
ATOM     30 CL   UNL     1       4.387   1.234  11.292  0.00  0.00    -0.076 Cl
ENDBRANCH  24  25
ENDBRANCH  19  24
ENDBRANCH  18  19
ENDBRANCH   2  18
TORSDOF 7
