REMARK  Name = ZINC39710709
REMARK  12 active torsions:
REMARK  status: ('A' for Active; 'I' for Inactive)
REMARK    1  A    between atoms: C_1  and  C_2
REMARK    2  A    between atoms: C_7  and  C_14
REMARK    3  A    between atoms: C_14  and  C_16
REMARK    4  A    between atoms: C_14  and  N_26
REMARK    5  A    between atoms: N_21  and  C_22
REMARK    6  A    between atoms: C_22  and  C_23
REMARK    7  A    between atoms: C_22  and  C_24
REMARK    8  A    between atoms: C_22  and  C_25
REMARK    9  A    between atoms: N_26  and  C_27
REMARK   10  A    between atoms: N_26  and  C_35
REMARK   11  A    between atoms: C_27  and  C_28
REMARK   12  A    between atoms: C_35  and  C_36
REMARK                            x       y       z     vdW  Elec       q    Type
REMARK                         _______ _______ _______ _____ _____    ______ ____
ROOT
ATOM      1  C   UNL     1       1.268  -5.632   1.107  0.00  0.00    -0.009 C 
ENDROOT
BRANCH   1   8
ATOM      2  C   UNL     1      -3.787  -5.681  -4.429  0.00  0.00    +0.044 C 
ATOM      3  C   UNL     1      -3.072  -5.678  -3.103  0.00  0.00    -0.049 A 
ATOM      4  C   UNL     1      -3.528  -6.527  -2.095  0.00  0.00    +0.004 A 
ATOM      5  C   UNL     1      -2.925  -6.570  -0.879  0.00  0.00    +0.010 A 
ATOM      6  C   UNL     1      -1.772  -5.703  -0.632  0.00  0.00    -0.007 A 
ATOM      7  C   UNL     1      -1.135  -5.712   0.573  0.00  0.00    -0.006 C 
ATOM      8  C   UNL     1       0.051  -4.781   0.739  0.00  0.00    +0.088 C 
ATOM      9  C   UNL     1       0.429  -3.919  -0.444  0.00  0.00    +0.223 C 
ATOM     10  O   UNL     1       1.372  -3.154  -0.366  0.00  0.00    -0.275 OA
ATOM     11  N   UNL     1      -0.269  -4.000  -1.565  0.00  0.00    -0.285 N 
ATOM     12  C   UNL     1      -1.312  -4.817  -1.715  0.00  0.00    +0.041 A 
ATOM     13  C   UNL     1      -2.005  -4.854  -2.939  0.00  0.00    +0.027 A 
ATOM     14  H   UNL     1      -0.010  -3.438  -2.312  0.00  0.00    +0.155 HD
ENDBRANCH   1   8
BRANCH   1  15
ATOM     15  C   UNL     1       1.480  -6.707   0.039  0.00  0.00    +0.205 C 
ATOM     16  N   UNL     1       0.450  -7.748   0.148  0.00  0.00    -0.152 NA
ATOM     17  N   UNL     1       0.997  -8.827   0.389  0.00  0.00    -0.070 NA
ATOM     18  N   UNL     1       2.384  -8.723   0.480  0.00  0.00    -0.179 N 
ATOM     19  N   UNL     1       2.755  -7.418   0.269  0.00  0.00    -0.183 NA
ATOM     20  H   UNL     1       2.991  -9.457   0.664  0.00  0.00    +0.191 HD
BRANCH  19  21
ATOM     21  C   UNL     1       3.641  -7.302  -0.897  0.00  0.00    +0.035 C 
ATOM     22  C   UNL     1       3.876  -5.824  -1.214  0.00  0.00    +0.029 C 
ATOM     23  C   UNL     1       4.979  -7.977  -0.591  0.00  0.00    +0.029 C 
ATOM     24  C   UNL     1       2.989  -7.984  -2.102  0.00  0.00    +0.029 C 
ENDBRANCH  19  21
ENDBRANCH   1  15
BRANCH   1  25
ATOM     25  N   UNL     1       1.041  -6.274   2.409  0.00  0.00    +0.389 N 
ATOM     26  H   UNL     1       0.287  -6.940   2.329  0.00  0.00    -0.081 HD
BRANCH  25  27
ATOM     27  C   UNL     1       0.687  -5.252   3.403  0.00  0.00    -0.042 C 
BRANCH  27  28
ATOM     28  C   UNL     1       1.821  -4.269   3.538  0.00  0.00    -0.064 A 
ATOM     29  C   UNL     1       2.879  -4.546   4.384  0.00  0.00    +0.003 A 
ATOM     30  C   UNL     1       3.920  -3.645   4.508  0.00  0.00    +0.020 A 
ATOM     31  C   UNL     1       3.902  -2.465   3.786  0.00  0.00    +0.041 A 
ATOM     32  C   UNL     1       2.843  -2.187   2.941  0.00  0.00    +0.020 A 
ATOM     33  C   UNL     1       1.806  -3.092   2.813  0.00  0.00    +0.003 A 
ATOM     34 CL   UNL     1       5.208  -1.332   3.942  0.00  0.00    -0.084 Cl
ENDBRANCH  27  28
ENDBRANCH  25  27
BRANCH  25  35
ATOM     35  C   UNL     1       2.265  -6.967   2.833  0.00  0.00    -0.046 C 
BRANCH  35  36
ATOM     36  C   UNL     1       2.012  -7.681   4.162  0.00  0.00    +0.102 C 
ATOM     37  C   UNL     1       3.315  -8.343   4.657  0.00  0.00    +0.032 C 
ATOM     38  C   UNL     1       2.801  -9.688   5.240  0.00  0.00    +0.030 C 
ATOM     39  C   UNL     1       1.627  -9.996   4.277  0.00  0.00    +0.160 C 
ATOM     40  O   UNL     1       1.040  -8.717   3.979  0.00  0.00    -0.378 OA
ENDBRANCH  35  36
ENDBRANCH  25  35
ENDBRANCH   1  25
TORSDOF 8
