REMARK  Name = ZINC03172279
REMARK  10 active torsions:
REMARK  status: ('A' for Active; 'I' for Inactive)
REMARK    1  A    between atoms: C_1  and  O_2
REMARK    2  A    between atoms: O_2  and  C_3
REMARK    3  A    between atoms: C_4  and  C_18
REMARK    4  A    between atoms: C_8  and  C_9
REMARK    5  A    between atoms: C_9  and  O_10
REMARK    6  A    between atoms: O_10  and  C_11
REMARK    7  A    between atoms: C_16  and  N_17
REMARK    8  A    between atoms: C_18  and  O_19
REMARK    9  A    between atoms: O_19  and  C_20
REMARK   10  A    between atoms: C_25  and  N_26
REMARK                            x       y       z     vdW  Elec       q    Type
REMARK                         _______ _______ _______ _____ _____    ______ ____
ROOT
ATOM      1  C   UNL     1       1.213  -0.680  -0.013  0.00  0.00    +0.133 A 
ATOM      2  C   UNL     1       0.002  -0.004   0.002  0.00  0.00    +0.032 A 
ATOM      3  C   UNL     1      -0.017   1.377   0.010  0.00  0.00    +0.010 A 
ATOM      4  C   UNL     1       1.171   2.086   0.002  0.00  0.00    +0.001 A 
ATOM      5  C   UNL     1       2.379   1.415  -0.013  0.00  0.00    +0.010 A 
ATOM      6  C   UNL     1       2.403   0.033  -0.021  0.00  0.00    +0.032 A 
ENDROOT
BRANCH   1   8
ATOM      7  C   UNL     1       1.232  -2.681  -1.297  0.00  0.00    +0.277 C 
ATOM      8  O   UNL     1       1.234  -2.039  -0.020  0.00  0.00    -0.494 OA
ENDBRANCH   1   8
BRANCH   6   9
ATOM      9  C   UNL     1       3.721  -0.698  -0.037  0.00  0.00    +0.268 C 
BRANCH   9  10
ATOM     10  O   UNL     1       4.791   0.249  -0.042  0.00  0.00    -0.485 OA
BRANCH  10  11
ATOM     11  C   UNL     1       6.056  -0.249  -0.057  0.00  0.00    +0.142 A 
ATOM     12  C   UNL     1       6.263  -1.619  -0.060  0.00  0.00    +0.047 A 
ATOM     13  C   UNL     1       7.550  -2.124  -0.080  0.00  0.00    +0.004 A 
ATOM     14  C   UNL     1       8.634  -1.266  -0.086  0.00  0.00    +0.002 A 
ATOM     15  C   UNL     1       8.436   0.102  -0.077  0.00  0.00    +0.026 A 
ATOM     16  C   UNL     1       7.148   0.617  -0.062  0.00  0.00    +0.067 A 
BRANCH  16  17
ATOM     17  N   UNL     1       6.945   2.001  -0.053  0.00  0.00    -0.355 N 
ATOM     18  H   UNL     1       6.044   2.359  -0.042  0.00  0.00    +0.142 HD
ATOM     19  H   UNL     1       7.706   2.603  -0.057  0.00  0.00    +0.142 HD
ENDBRANCH  16  17
ENDBRANCH  10  11
ENDBRANCH   9  10
ENDBRANCH   6   9
BRANCH   2  20
ATOM     20  C   UNL     1      -1.292  -0.776   0.011  0.00  0.00    +0.268 C 
BRANCH  20  21
ATOM     21  O   UNL     1      -2.391   0.137   0.027  0.00  0.00    -0.485 OA
BRANCH  21  22
ATOM     22  C   UNL     1      -3.641  -0.400   0.036  0.00  0.00    +0.142 A 
ATOM     23  C   UNL     1      -3.805  -1.776   0.025  0.00  0.00    +0.047 A 
ATOM     24  C   UNL     1      -5.075  -2.321   0.040  0.00  0.00    +0.004 A 
ATOM     25  C   UNL     1      -6.185  -1.496   0.056  0.00  0.00    +0.002 A 
ATOM     26  C   UNL     1      -6.030  -0.123   0.062  0.00  0.00    +0.026 A 
ATOM     27  C   UNL     1      -4.758   0.431   0.052  0.00  0.00    +0.067 A 
BRANCH  27  28
ATOM     28  N   UNL     1      -4.599   1.822   0.057  0.00  0.00    -0.355 N 
ATOM     29  H   UNL     1      -3.709   2.208   0.050  0.00  0.00    +0.142 HD
ATOM     30  H   UNL     1      -5.378   2.399   0.068  0.00  0.00    +0.142 HD
ENDBRANCH  27  28
ENDBRANCH  21  22
ENDBRANCH  20  21
ENDBRANCH   2  20
TORSDOF 9
