REMARK  Name = ZINC39466972
REMARK  8 active torsions:
REMARK  status: ('A' for Active; 'I' for Inactive)
REMARK    1  A    between atoms: C_1  and  C_2
REMARK    2  A    between atoms: C_2  and  C_3
REMARK    3  A    between atoms: C_2  and  S_4
REMARK    4  A    between atoms: S_4  and  C_7
REMARK    5  A    between atoms: P_16  and  C_32
REMARK    6  A    between atoms: C_24  and  C_25
REMARK    7  A    between atoms: C_30  and  O_31
REMARK    8  A    between atoms: C_32  and  C_33
REMARK                            x       y       z     vdW  Elec       q    Type
REMARK                         _______ _______ _______ _____ _____    ______ ____
ROOT
ATOM      1  C   UNL     1      -1.536  -2.381   0.152  0.00  0.00    +0.092 C 
ATOM      2  C   UNL     1      -1.984  -3.009   1.232  0.00  0.00    +0.004 C 
ATOM      3  C   UNL     1      -1.847  -4.510   1.336  0.00  0.00    +0.017 C 
ATOM      4  C   UNL     1      -0.424  -4.844   1.786  0.00  0.00    -0.003 C 
ATOM      5  C   UNL     1      -0.200  -6.360   1.780  0.00  0.00    -0.020 C 
ATOM      6  C   UNL     1       1.246  -6.603   2.235  0.00  0.00    +0.156 C 
ATOM      7  O   UNL     1       1.498  -8.018   2.299  0.00  0.00    -0.319 OA
ATOM      8  P   UNL     1       1.106  -8.915   1.000  0.00  0.00    +0.262 P 
ATOM      9  O   UNL     1       0.912 -10.329   1.391  0.00  0.00    -0.274 OA
ATOM     10  N   UNL     1      -0.311  -8.275   0.444  0.00  0.00    -0.291 NA
ATOM     11  N   UNL     1      -0.432  -6.902   0.439  0.00  0.00    +0.397 N 
ATOM     12  C   UNL     1      -1.811  -6.622   0.006  0.00  0.00    -0.046 C 
ATOM     13  C   UNL     1      -2.095  -5.125  -0.044  0.00  0.00    +0.005 C 
ATOM     14  C   UNL     1      -1.188  -4.473  -1.053  0.00  0.00    -0.014 C 
ATOM     15  C   UNL     1      -0.905  -3.156  -0.938  0.00  0.00    +0.006 C 
ATOM     16  H   UNL     1      -1.030  -8.846   0.131  0.00  0.00    +0.111 HD
ATOM     17  H   UNL     1       0.229  -6.500  -0.209  0.00  0.00    -0.055 HD
ENDROOT
BRANCH  15  18
ATOM     18  C   UNL     1       0.004  -2.490  -1.902  0.00  0.00    +0.025 A 
ATOM     19  C   UNL     1      -0.514  -1.664  -2.898  0.00  0.00    +0.012 A 
ATOM     20  C   UNL     1       0.337  -1.047  -3.792  0.00  0.00    +0.001 A 
ATOM     21  C   UNL     1       1.704  -1.245  -3.704  0.00  0.00    +0.004 A 
ATOM     22  C   UNL     1       2.228  -2.062  -2.721  0.00  0.00    +0.046 A 
ATOM     23  C   UNL     1       1.386  -2.684  -1.813  0.00  0.00    +0.125 A 
BRANCH  23  24
ATOM     24  O   UNL     1       1.901  -3.483  -0.843  0.00  0.00    -0.506 OA
ATOM     25  H   UNL     1       1.988  -4.411  -1.102  0.00  0.00    +0.292 HD
ENDBRANCH  23  24
ENDBRANCH  15  18
BRANCH   1  26
ATOM     26  S   UNL     1      -1.700  -0.632   0.015  0.00  0.00    -0.001 S 
ATOM     27  O   UNL     1      -2.359  -0.234   1.209  0.00  0.00    -0.169 OA
ATOM     28  O   UNL     1      -2.308  -0.423  -1.252  0.00  0.00    -0.169 OA
BRANCH  26  30
ATOM     29  C   UNL     1      -0.019   1.526   0.010  0.00  0.00    +0.032 C 
ATOM     30  C   UNL     1       0.002  -0.004   0.002  0.00  0.00    +0.130 C 
ATOM     31  C   UNL     1       0.742  -0.511   1.242  0.00  0.00    +0.032 C 
ENDBRANCH  26  30
ENDBRANCH   1  26
BRANCH   8  32
ATOM     32  C   UNL     1       2.404  -8.786  -0.274  0.00  0.00    +0.147 C 
BRANCH  32  33
ATOM     33  C   UNL     1       3.711  -9.281   0.290  0.00  0.00    -0.037 A 
ATOM     34  C   UNL     1       4.566  -8.402   0.929  0.00  0.00    +0.004 A 
ATOM     35  C   UNL     1       5.765  -8.857   1.445  0.00  0.00    +0.000 A 
ATOM     36  C   UNL     1       6.109 -10.190   1.324  0.00  0.00    +0.000 A 
ATOM     37  C   UNL     1       5.254 -11.069   0.686  0.00  0.00    +0.000 A 
ATOM     38  C   UNL     1       4.053 -10.616   0.173  0.00  0.00    +0.004 A 
ENDBRANCH  32  33
ENDBRANCH   8  32
TORSDOF 6
