REMARK  Name = ZINC38739044
REMARK  7 active torsions:
REMARK  status: ('A' for Active; 'I' for Inactive)
REMARK    1  A    between atoms: C_1  and  C_2
REMARK    2  A    between atoms: C_2  and  C_4
REMARK    3  A    between atoms: C_2  and  N_11
REMARK    4  A    between atoms: C_12  and  C_14
REMARK    5  A    between atoms: C_14  and  S_15
REMARK    6  A    between atoms: S_15  and  C_16
REMARK    7  A    between atoms: C_20  and  C_22
REMARK                            x       y       z     vdW  Elec       q    Type
REMARK                         _______ _______ _______ _____ _____    ______ ____
ROOT
ATOM      1  C   UNL     1      -5.787  -1.865  -2.647  0.00  0.00    +0.339 C 
ATOM      2  N   UNL     1      -6.575  -0.988  -1.764  0.00  0.00    -0.219 N 
ATOM      3  N   UNL     1      -6.948  -1.789  -0.675  0.00  0.00    -0.145 NA
ATOM      4  C   UNL     1      -6.476  -2.998  -0.824  0.00  0.00    +0.238 C 
ATOM      5  O   UNL     1      -5.771  -3.133  -1.976  0.00  0.00    -0.443 OA
ATOM      6  H   UNL     1      -6.792  -0.053  -1.907  0.00  0.00    +0.173 HD
ENDROOT
BRANCH   4   7
ATOM      7  C   UNL     1      -6.676  -4.036   0.097  0.00  0.00    +0.043 C 
ATOM      8  C   UNL     1      -7.393  -3.977   1.293  0.00  0.00    +0.008 A 
ATOM      9  C   UNL     1      -8.100  -2.935   1.930  0.00  0.00    +0.010 A 
ATOM     10  C   UNL     1      -8.717  -3.166   3.117  0.00  0.00    +0.001 A 
ATOM     11  C   UNL     1      -8.671  -4.419   3.733  0.00  0.00    +0.002 A 
ATOM     12  C   UNL     1      -8.009  -5.465   3.178  0.00  0.00    +0.026 A 
ATOM     13  C   UNL     1      -7.340  -5.299   1.938  0.00  0.00    +0.043 A 
ATOM     14  N   UNL     1      -6.641  -6.142   1.205  0.00  0.00    -0.380 N 
ATOM     15  C   UNL     1      -6.166  -5.457  -0.001  0.00  0.00    +0.154 C 
ATOM     16  H   UNL     1      -6.469  -7.071   1.427  0.00  0.00    +0.160 HD
ENDBRANCH   4   7
BRANCH   1  17
ATOM     17  S   UNL     1      -4.100  -1.225  -2.832  0.00  0.00    -0.087 S 
BRANCH  17  18
ATOM     18  C   UNL     1      -3.465  -1.164  -1.134  0.00  0.00    +0.170 C 
BRANCH  18  20
ATOM     19  N   UNL     1      -1.372  -0.511   0.012  0.00  0.00    -0.308 N 
ATOM     20  C   UNL     1      -2.051  -0.643  -1.145  0.00  0.00    +0.223 C 
ATOM     21  O   UNL     1      -1.524  -0.341  -2.194  0.00  0.00    -0.275 OA
ATOM     22  H   UNL     1      -1.794  -0.752   0.852  0.00  0.00    +0.149 HD
BRANCH  19  24
ATOM     23  C   UNL     1      -0.019   1.526   0.010  0.00  0.00    +0.033 C 
ATOM     24  C   UNL     1       0.002  -0.004   0.002  0.00  0.00    +0.100 C 
BRANCH  24  25
ATOM     25  C   UNL     1       0.731  -0.503   1.223  0.00  0.00    -0.026 A 
ATOM     26  C   UNL     1       0.081  -0.558   2.442  0.00  0.00    +0.005 A 
ATOM     27  C   UNL     1       0.748  -1.016   3.562  0.00  0.00    +0.002 A 
ATOM     28  C   UNL     1       2.067  -1.419   3.464  0.00  0.00    +0.020 A 
ATOM     29  C   UNL     1       2.719  -1.364   2.245  0.00  0.00    +0.041 A 
ATOM     30  C   UNL     1       2.047  -0.911   1.123  0.00  0.00    +0.025 A 
ATOM     31 CL   UNL     1       4.375  -1.869   2.122  0.00  0.00    -0.084 Cl
ENDBRANCH  24  25
ENDBRANCH  19  24
ENDBRANCH  18  20
ENDBRANCH  17  18
ENDBRANCH   1  17
TORSDOF 6
