REMARK  Name = ZINC45616975
REMARK  6 active torsions:
REMARK  status: ('A' for Active; 'I' for Inactive)
REMARK    1  A    between atoms: C_7  and  C_11
REMARK    2  A    between atoms: C_11  and  C_12
REMARK    3  A    between atoms: C_12  and  C_13
REMARK    4  A    between atoms: C_13  and  C_14
REMARK    5  A    between atoms: N_16  and  N_17
REMARK    6  A    between atoms: C_18  and  C_20
REMARK                            x       y       z     vdW  Elec       q    Type
REMARK                         _______ _______ _______ _____ _____    ______ ____
ROOT
ATOM      1  C   UNL     1      -1.139  -5.096  -2.865  0.00  0.00    +0.229 C 
ATOM      2  O   UNL     1      -0.722  -4.424  -3.784  0.00  0.00    -0.274 OA
ATOM      3  N   UNL     1      -1.983  -6.119  -3.107  0.00  0.00    -0.234 N 
ATOM      4  H   UNL     1      -2.317  -6.657  -2.372  0.00  0.00    +0.173 HD
ENDROOT
BRANCH   3   5
ATOM      5  N   UNL     1      -2.377  -6.407  -4.420  0.00  0.00    -0.230 N 
ATOM      6  C   UNL     1      -3.220  -7.430  -4.662  0.00  0.00    +0.267 C 
ATOM      7  O   UNL     1      -3.639  -8.104  -3.740  0.00  0.00    -0.268 OA
ATOM      8  H   UNL     1      -2.042  -5.869  -5.155  0.00  0.00    +0.173 HD
BRANCH   6   9
ATOM      9  C   UNL     1      -3.632  -7.730  -6.036  0.00  0.00    +0.076 A 
ATOM     10  C   UNL     1      -4.482  -8.717  -6.495  0.00  0.00    +0.024 A 
ATOM     11  C   UNL     1      -4.699  -8.776  -7.869  0.00  0.00    -0.036 A 
ATOM     12  C   UNL     1      -4.049  -7.853  -8.625  0.00  0.00    -0.006 A 
ATOM     13  S   UNL     1      -3.175  -6.912  -7.552  0.00  0.00    -0.088 S 
ATOM     14  C   UNL     1      -4.093  -7.690 -10.116  0.00  0.00    +0.043 C 
ATOM     15  C   UNL     1      -5.443  -8.188 -10.644  0.00  0.00    +0.005 C 
ATOM     16  C   UNL     1      -5.324  -9.677 -10.956  0.00  0.00    +0.001 C 
ATOM     17  C   UNL     1      -4.972 -10.463  -9.695  0.00  0.00    +0.005 C 
ATOM     18  C   UNL     1      -5.624  -9.828  -8.472  0.00  0.00    +0.036 C 
ENDBRANCH   6   9
ENDBRANCH   3   5
BRANCH   1  19
ATOM     19  C   UNL     1      -0.715  -4.787  -1.452  0.00  0.00    +0.097 C 
BRANCH  19  20
ATOM     20  C   UNL     1       0.236  -3.589  -1.455  0.00  0.00    +0.014 C 
BRANCH  20  21
ATOM     21  C   UNL     1       0.666  -3.275  -0.021  0.00  0.00    +0.038 C 
BRANCH  21  28
ATOM     22  C   UNL     1      -0.017   1.362   0.009  0.00  0.00    +0.001 A 
ATOM     23  C   UNL     1       1.170   2.083   0.002  0.00  0.00    +0.002 A 
ATOM     24  C   UNL     1       2.386   1.436  -0.013  0.00  0.00    +0.026 A 
ATOM     25  C   UNL     1       2.428   0.046  -0.021  0.00  0.00    +0.047 A 
ATOM     26  C   UNL     1       1.223  -0.681  -0.013  0.00  0.00    +0.003 A 
ATOM     27  C   UNL     1       0.002  -0.004   0.002  0.00  0.00    +0.010 A 
ATOM     28  C   UNL     1       1.604  -2.095  -0.025  0.00  0.00    -0.022 A 
ATOM     29  C   UNL     1       2.945  -2.141  -0.038  0.00  0.00    +0.087 A 
ATOM     30  N   UNL     1       3.455  -0.871  -0.036  0.00  0.00    -0.360 N 
ATOM     31  H   UNL     1       4.399  -0.650  -0.044  0.00  0.00    +0.165 HD
ENDBRANCH  21  28
ENDBRANCH  20  21
ENDBRANCH  19  20
ENDBRANCH   1  19
TORSDOF 6
