REMARK  Name = ZINC65770765
REMARK  7 active torsions:
REMARK  status: ('A' for Active; 'I' for Inactive)
REMARK    1  A    between atoms: C_1  and  C_2
REMARK    2  A    between atoms: C_2  and  N_3
REMARK    3  A    between atoms: C_4  and  C_6
REMARK    4  A    between atoms: C_6  and  N_7
REMARK    5  A    between atoms: N_10  and  C_11
REMARK    6  A    between atoms: C_13  and  C_23
REMARK    7  A    between atoms: C_16  and  N_17
REMARK                            x       y       z     vdW  Elec       q    Type
REMARK                         _______ _______ _______ _____ _____    ______ ____
ROOT
ATOM      1  C   UNL     1      -5.361  -6.535   0.111  0.00  0.00    +0.057 A 
ATOM      2  C   UNL     1      -6.543  -5.820   0.112  0.00  0.00    +0.038 A 
ATOM      3  C   UNL     1      -7.764  -6.493   0.213  0.00  0.00    +0.038 A 
ATOM      4  C   UNL     1      -7.785  -7.887   0.311  0.00  0.00    +0.015 A 
ATOM      5  C   UNL     1      -6.604  -8.596   0.310  0.00  0.00    +0.026 A 
ATOM      6  C   UNL     1      -5.389  -7.929   0.204  0.00  0.00    +0.051 A 
ENDROOT
BRANCH   1  10
ATOM      7  N   UNL     1      -2.922  -3.953  -0.565  0.00  0.00    -0.291 N 
ATOM      8  C   UNL     1      -4.077  -4.647  -0.569  0.00  0.00    +0.304 C 
ATOM      9  O   UNL     1      -5.068  -4.178  -1.095  0.00  0.00    -0.252 OA
ATOM     10  N   UNL     1      -4.134  -5.863   0.010  0.00  0.00    -0.268 N 
ATOM     11  H   UNL     1      -2.132  -4.327  -0.145  0.00  0.00    +0.151 HD
ATOM     12  H   UNL     1      -3.327  -6.273   0.357  0.00  0.00    +0.156 HD
BRANCH   7  13
ATOM     13  C   UNL     1      -2.861  -2.631  -1.194  0.00  0.00    +0.201 C 
BRANCH  13  15
ATOM     14  N   UNL     1      -1.175  -0.858  -1.560  0.00  0.00    -0.314 N 
ATOM     15  C   UNL     1      -1.468  -2.072  -1.053  0.00  0.00    +0.230 C 
ATOM     16  O   UNL     1      -0.612  -2.714  -0.482  0.00  0.00    -0.274 OA
ATOM     17  H   UNL     1      -1.860  -0.345  -2.016  0.00  0.00    +0.149 HD
BRANCH  14  19
ATOM     18  C   UNL     1       0.243   1.065  -2.079  0.00  0.00    +0.024 C 
ATOM     19  C   UNL     1       0.179  -0.315  -1.422  0.00  0.00    +0.101 C 
ENDBRANCH  14  19
ENDBRANCH  13  15
ENDBRANCH   7  13
ENDBRANCH   1  10
BRANCH   6  20
ATOM     20  N   UNL     1      -4.198  -8.651   0.196  0.00  0.00    -0.328 N 
ATOM     21  C   UNL     1      -3.503  -8.961   1.453  0.00  0.00    +0.105 C 
ATOM     22  C   UNL     1      -3.258 -10.471   1.521  0.00  0.00    +0.019 C 
ATOM     23  C   UNL     1      -2.512 -10.921   0.263  0.00  0.00    +0.003 C 
ATOM     24  C   UNL     1      -3.366 -10.625  -0.972  0.00  0.00    +0.019 C 
ATOM     25  C   UNL     1      -3.616  -9.121  -1.068  0.00  0.00    +0.105 C 
ENDBRANCH   6  20
BRANCH   3  26
ATOM     26  C   UNL     1      -9.028  -5.733   0.215  0.00  0.00    +0.242 C 
ATOM     27  O   UNL     1      -9.009  -4.521   0.130  0.00  0.00    -0.270 OA
ATOM     28  N   UNL     1     -10.205  -6.384   0.312  0.00  0.00    -0.325 N 
ATOM     29  H   UNL     1     -10.220  -7.351   0.381  0.00  0.00    +0.145 HD
ATOM     30  H   UNL     1     -11.036  -5.884   0.314  0.00  0.00    +0.145 HD
ENDBRANCH   3  26
TORSDOF 6
