REMARK  Name = ZINC05619129
REMARK  4 active torsions:
REMARK  status: ('A' for Active; 'I' for Inactive)
REMARK    1  A    between atoms: C_1  and  C_2
REMARK    2  A    between atoms: C_9  and  C_12
REMARK    3  A    between atoms: N_14  and  N_15
REMARK    4  A    between atoms: C_16  and  C_17
REMARK                            x       y       z     vdW  Elec       q    Type
REMARK                         _______ _______ _______ _____ _____    ______ ____
ROOT
ATOM      1  C   UNL     1       6.218  -0.142  -0.062  0.00  0.00    +0.271 C 
ATOM      2  O   UNL     1       6.539  -1.316  -0.071  0.00  0.00    -0.268 OA
ATOM      3  N   UNL     1       7.166   0.816  -0.066  0.00  0.00    -0.202 N 
ATOM      4  H   UNL     1       6.910   1.752  -0.059  0.00  0.00    +0.178 HD
ENDROOT
BRANCH   1  13
ATOM      5  C   UNL     1      -1.329   2.127   0.020  0.00  0.00    +0.044 C 
ATOM      6  C   UNL     1      -0.017   1.385   0.010  0.00  0.00    -0.049 A 
ATOM      7  C   UNL     1       0.002  -0.004   0.002  0.00  0.00    +0.004 A 
ATOM      8  C   UNL     1       1.168  -0.700  -0.013  0.00  0.00    +0.011 A 
ATOM      9  C   UNL     1       2.416  -0.026  -0.022  0.00  0.00    +0.008 A 
ATOM     10  C   UNL     1       2.367   1.388  -0.013  0.00  0.00    +0.022 A 
ATOM     11  C   UNL     1       1.175   2.082   0.002  0.00  0.00    +0.019 A 
ATOM     12  S   UNL     1       4.077   1.863  -0.028  0.00  0.00    -0.082 S 
ATOM     13  C   UNL     1       4.798   0.231  -0.045  0.00  0.00    +0.095 A 
ATOM     14  C   UNL     1       3.708  -0.584  -0.038  0.00  0.00    +0.068 A 
ATOM     15 CL   UNL     1       3.910  -2.308  -0.050  0.00  0.00    -0.082 Cl
ENDBRANCH   1  13
BRANCH   3  16
ATOM     16  N   UNL     1       8.521   0.461  -0.082  0.00  0.00    -0.187 NA
ATOM     17  C   UNL     1       9.434   1.384  -0.087  0.00  0.00    +0.138 C 
BRANCH  17  18
ATOM     18  C   UNL     1      10.860   1.010  -0.103  0.00  0.00    -0.005 A 
ATOM     19  C   UNL     1      11.232  -0.337  -0.109  0.00  0.00    +0.012 A 
ATOM     20  C   UNL     1      12.567  -0.681  -0.129  0.00  0.00    +0.039 A 
ATOM     21  C   UNL     1      13.540   0.307  -0.133  0.00  0.00    +0.123 A 
ATOM     22  C   UNL     1      13.177   1.645  -0.123  0.00  0.00    +0.039 A 
ATOM     23  C   UNL     1      11.845   2.001  -0.108  0.00  0.00    +0.012 A 
ATOM     24  F   UNL     1      14.846  -0.036  -0.147  0.00  0.00    -0.205 F 
ENDBRANCH  17  18
ENDBRANCH   3  16
TORSDOF 3
