REMARK  Name = ZINC32754975
REMARK  9 active torsions:
REMARK  status: ('A' for Active; 'I' for Inactive)
REMARK    1  A    between atoms: C_1  and  C_2
REMARK    2  A    between atoms: C_5  and  N_8
REMARK    3  A    between atoms: C_9  and  C_26
REMARK    4  A    between atoms: C_10  and  N_14
REMARK    5  A    between atoms: C_11  and  C_13
REMARK    6  A    between atoms: N_14  and  S_15
REMARK    7  A    between atoms: S_15  and  C_18
REMARK    8  A    between atoms: C_21  and  C_25
REMARK    9  A    between atoms: C_22  and  C_24
REMARK                            x       y       z     vdW  Elec       q    Type
REMARK                         _______ _______ _______ _____ _____    ______ ____
ROOT
ATOM      1  N   UNL     1      -0.561  -3.214  -4.045  0.00  0.00    -0.235 N 
ATOM      2  C   UNL     1      -1.392  -2.158  -3.819  0.00  0.00    +0.064 A 
ATOM      3  C   UNL     1      -1.327  -1.862  -2.497  0.00  0.00    +0.092 A 
ATOM      4  C   UNL     1      -0.439  -2.768  -1.896  0.00  0.00    +0.083 A 
ATOM      5  N   UNL     1       0.017  -3.574  -2.821  0.00  0.00    -0.169 NA
ATOM      6  C   UNL     1      -0.073  -2.805  -0.435  0.00  0.00    +0.069 C 
ATOM      7  C   UNL     1      -2.228  -1.446  -4.851  0.00  0.00    +0.068 C 
ENDROOT
BRANCH   1  12
ATOM      8  C   UNL     1       0.372  -5.724  -9.049  0.00  0.00    +0.044 C 
ATOM      9  C   UNL     1       0.124  -5.058  -7.720  0.00  0.00    -0.050 A 
ATOM     10  C   UNL     1       0.013  -3.681  -7.649  0.00  0.00    +0.005 A 
ATOM     11  C   UNL     1      -0.214  -3.067  -6.432  0.00  0.00    +0.028 A 
ATOM     12  C   UNL     1      -0.331  -3.834  -5.281  0.00  0.00    +0.066 A 
ATOM     13  C   UNL     1      -0.213  -5.215  -5.355  0.00  0.00    +0.028 A 
ATOM     14  C   UNL     1       0.009  -5.824  -6.574  0.00  0.00    +0.005 A 
ENDBRANCH   1  12
BRANCH   3  15
ATOM     15  N   UNL     1      -2.029  -0.833  -1.842  0.00  0.00    -0.213 N 
ATOM     16  H   UNL     1      -3.119  -0.908  -1.711  0.00  0.00    +0.174 HD
BRANCH  15  17
ATOM     17  S   UNL     1      -1.216   0.491  -1.269  0.00  0.00    +0.072 S 
ATOM     18  O   UNL     1      -0.074  -0.001  -0.580  0.00  0.00    -0.150 OA
ATOM     19  O   UNL     1      -2.183   1.323  -0.644  0.00  0.00    -0.150 OA
BRANCH  17  20
ATOM     20  C   UNL     1      -0.616   1.379  -2.667  0.00  0.00    +0.109 A 
ATOM     21  C   UNL     1       0.674   1.168  -3.119  0.00  0.00    +0.029 A 
ATOM     22  C   UNL     1       1.144   1.865  -4.216  0.00  0.00    +0.005 A 
ATOM     23  C   UNL     1       0.325   2.772  -4.862  0.00  0.00    -0.047 A 
ATOM     24  C   UNL     1      -0.964   2.984  -4.410  0.00  0.00    -0.046 A 
ATOM     25  C   UNL     1      -1.434   2.287  -3.313  0.00  0.00    +0.032 A 
ATOM     26  C   UNL     1      -1.856   3.973  -5.114  0.00  0.00    +0.044 C 
ATOM     27  C   UNL     1       0.838   3.532  -6.058  0.00  0.00    +0.044 C 
ENDBRANCH  17  20
ENDBRANCH  15  17
ENDBRANCH   3  15
TORSDOF 4
