REMARK  Name = ZINC02133752
REMARK  14 active torsions:
REMARK  status: ('A' for Active; 'I' for Inactive)
REMARK    1  A    between atoms: C_1  and  O_2
REMARK    2  A    between atoms: O_2  and  C_3
REMARK    3  A    between atoms: C_8  and  O_9
REMARK    4  A    between atoms: O_9  and  C_10
REMARK    5  A    between atoms: C_14  and  N_16
REMARK    6  A    between atoms: N_16  and  C_17
REMARK    7  A    between atoms: C_22  and  C_23
REMARK    8  A    between atoms: C_23  and  C_25
REMARK    9  A    between atoms: C_27  and  O_35
REMARK   10  A    between atoms: C_28  and  O_33
REMARK   11  A    between atoms: C_29  and  O_31
REMARK   12  A    between atoms: O_31  and  C_32
REMARK   13  A    between atoms: O_33  and  C_34
REMARK   14  A    between atoms: O_35  and  C_36
REMARK                            x       y       z     vdW  Elec       q    Type
REMARK                         _______ _______ _______ _____ _____    ______ ____
ROOT
ATOM      1  C   UNL     1       0.837   2.055   0.338  0.00  0.00    +0.041 A 
ATOM      2  C   UNL     1       1.934   1.221   0.516  0.00  0.00    +0.025 A 
ATOM      3  C   UNL     1       3.212   1.716   0.362  0.00  0.00    +0.022 A 
ATOM      4  C   UNL     1       3.414   3.048   0.028  0.00  0.00    +0.042 A 
ATOM      5  C   UNL     1       2.339   3.891  -0.152  0.00  0.00    +0.033 A 
ATOM      6  C   UNL     1       1.037   3.402  -0.005  0.00  0.00    +0.045 A 
ATOM      7 CL   UNL     1       5.029   3.655  -0.162  0.00  0.00    -0.084 Cl
ENDROOT
BRANCH   1   8
ATOM      8  N   UNL     1      -0.450   1.558   0.492  0.00  0.00    -0.305 N 
ATOM      9  H   UNL     1      -1.215   2.116   0.280  0.00  0.00    +0.150 HD
BRANCH   8  19
ATOM     10  C   UNL     1      -4.403  -0.445   2.885  0.00  0.00    +0.162 A 
ATOM     11  C   UNL     1      -3.550   0.446   3.513  0.00  0.00    +0.050 A 
ATOM     12  C   UNL     1      -2.304   0.722   2.970  0.00  0.00    +0.013 A 
ATOM     13  C   UNL     1      -1.909   0.112   1.805  0.00  0.00    +0.029 A 
ATOM     14  C   UNL     1      -2.757  -0.792   1.155  0.00  0.00    +0.112 A 
ATOM     15  C   UNL     1      -4.015  -1.070   1.704  0.00  0.00    +0.176 A 
ATOM     16  C   UNL     1      -2.070  -1.276  -0.052  0.00  0.00    +0.345 C 
ATOM     17  O   UNL     1      -2.532  -2.076  -0.841  0.00  0.00    -0.245 OA
ATOM     18  O   UNL     1      -0.856  -0.709  -0.155  0.00  0.00    -0.435 OA
ATOM     19  C   UNL     1      -0.654   0.188   0.971  0.00  0.00    +0.296 C 
BRANCH  10  21
ATOM     20  C   UNL     1      -5.958  -0.034   4.637  0.00  0.00    +0.277 C 
ATOM     21  O   UNL     1      -5.623  -0.710   3.424  0.00  0.00    -0.491 OA
ENDBRANCH  10  21
BRANCH  15  22
ATOM     22  O   UNL     1      -4.851  -1.943   1.087  0.00  0.00    -0.491 OA
ATOM     23  C   UNL     1      -4.746  -3.318   1.463  0.00  0.00    +0.277 C 
ENDBRANCH  15  22
ENDBRANCH   8  19
ENDBRANCH   1   8
BRANCH   6  24
ATOM     24  C   UNL     1      -0.117   4.296  -0.204  0.00  0.00    +0.195 C 
ATOM     25  O   UNL     1      -0.404   5.117   0.647  0.00  0.00    -0.287 OA
BRANCH  24  26
ATOM     26  C   UNL     1      -0.926   4.195  -1.434  0.00  0.00    +0.029 A 
ATOM     27  C   UNL     1      -0.530   3.337  -2.464  0.00  0.00    +0.061 A 
ATOM     28  C   UNL     1      -1.292   3.240  -3.612  0.00  0.00    +0.166 A 
ATOM     29  C   UNL     1      -2.447   4.005  -3.749  0.00  0.00    +0.204 A 
ATOM     30  C   UNL     1      -2.842   4.865  -2.727  0.00  0.00    +0.166 A 
ATOM     31  C   UNL     1      -2.086   4.962  -1.574  0.00  0.00    +0.061 A 
BRANCH  30  32
ATOM     32  O   UNL     1      -3.971   5.611  -2.864  0.00  0.00    -0.491 OA
ATOM     33  C   UNL     1      -4.315   6.472  -1.777  0.00  0.00    +0.277 C 
ENDBRANCH  30  32
BRANCH  29  34
ATOM     34  O   UNL     1      -3.192   3.912  -4.883  0.00  0.00    -0.488 OA
ATOM     35  C   UNL     1      -2.864   4.806  -5.949  0.00  0.00    +0.277 C 
ENDBRANCH  29  34
BRANCH  28  36
ATOM     36  O   UNL     1      -0.910   2.400  -4.612  0.00  0.00    -0.491 OA
ATOM     37  C   UNL     1       0.285   1.645  -4.404  0.00  0.00    +0.277 C 
ENDBRANCH  28  36
ENDBRANCH  24  26
ENDBRANCH   6  24
TORSDOF 9
