REMARK  Name = ZINC30781735
REMARK  4 active torsions:
REMARK  status: ('A' for Active; 'I' for Inactive)
REMARK    1  A    between atoms: C_6  and  C_7
REMARK    2  A    between atoms: C_8  and  C_9
REMARK    3  A    between atoms: N_20  and  C_21
REMARK    4  A    between atoms: C_21  and  C_22
REMARK                            x       y       z     vdW  Elec       q    Type
REMARK                         _______ _______ _______ _____ _____    ______ ____
ROOT
ATOM      1  C   UNL     1      -2.450  -2.840   0.011  0.00  0.00    +0.117 C 
ATOM      2  N   UNL     1      -3.670  -2.315   0.020  0.00  0.00    -0.329 N 
ATOM      3  C   UNL     1      -4.583  -3.278   0.026  0.00  0.00    +0.125 C 
ATOM      4  C   UNL     1      -6.034  -3.080   0.036  0.00  0.00    +0.061 C 
ATOM      5  C   UNL     1      -6.899  -4.182   0.046  0.00  0.00    +0.015 C 
ATOM      6  C   UNL     1      -8.250  -3.989   0.055  0.00  0.00    +0.001 C 
ATOM      7  C   UNL     1      -8.784  -2.706   0.054  0.00  0.00    +0.004 C 
ATOM      8  C   UNL     1      -7.971  -1.610   0.044  0.00  0.00    +0.051 C 
ATOM      9  C   UNL     1      -6.578  -1.772   0.041  0.00  0.00    +0.189 C 
ATOM     10  O   UNL     1      -5.840  -0.794   0.038  0.00  0.00    -0.287 OA
ATOM     11  N   UNL     1      -3.942  -4.488   0.020  0.00  0.00    -0.247 N 
ATOM     12  N   UNL     1      -2.565  -4.207   0.005  0.00  0.00    -0.223 N 
ATOM     13  H   UNL     1      -4.356  -5.365   0.022  0.00  0.00    +0.172 HD
ATOM     14  H   UNL     1      -3.865  -1.365   0.023  0.00  0.00    +0.168 HD
ENDROOT
BRANCH   1  16
ATOM     15  C   UNL     1      -1.259  -0.760   0.011  0.00  0.00    +0.011 C 
ATOM     16  C   UNL     1      -1.236  -2.112   0.003  0.00  0.00    +0.044 C 
BRANCH  15  22
ATOM     17  C   UNL     1      -0.017   1.395   0.010  0.00  0.00    +0.009 A 
ATOM     18  C   UNL     1       1.169   2.097   0.002  0.00  0.00    +0.016 A 
ATOM     19  C   UNL     1       2.378   1.421  -0.013  0.00  0.00    +0.018 A 
ATOM     20  C   UNL     1       2.405   0.035  -0.021  0.00  0.00    +0.016 A 
ATOM     21  C   UNL     1       1.227  -0.680  -0.013  0.00  0.00    +0.009 A 
ATOM     22  C   UNL     1       0.002  -0.004   0.002  0.00  0.00    -0.025 A 
ATOM     23 BR   UNL     1       4.000   2.393  -0.024  0.00  0.00    -0.050 Br
ENDBRANCH  15  22
ENDBRANCH   1  16
BRANCH  12  24
ATOM     24  C   UNL     1      -1.470  -5.180  -0.011  0.00  0.00    +0.247 C 
BRANCH  24  25
ATOM     25  C   UNL     1      -1.090  -5.513   1.372  0.00  0.00    +0.083 C 
ATOM     26  N   UNL     1      -0.797  -5.770   2.439  0.00  0.00    -0.195 NA
ENDBRANCH  24  25
ENDBRANCH  12  24
TORSDOF 4
