REMARK  Name = ZINC64237581
REMARK  8 active torsions:
REMARK  status: ('A' for Active; 'I' for Inactive)
REMARK    1  A    between atoms: C_1  and  C_2
REMARK    2  A    between atoms: C_5  and  C_8
REMARK    3  A    between atoms: C_8  and  C_9
REMARK    4  A    between atoms: C_8  and  N_24
REMARK    5  A    between atoms: C_9  and  N_10
REMARK    6  A    between atoms: N_13  and  N_14
REMARK    7  A    between atoms: C_15  and  C_17
REMARK    8  A    between atoms: C_22  and  C_23
REMARK                            x       y       z     vdW  Elec       q    Type
REMARK                         _______ _______ _______ _____ _____    ______ ____
ROOT
ATOM      1  N   UNL     1      -2.302  -3.231  -0.632  0.00  0.00    -0.299 N 
ATOM      2  C   UNL     1      -3.630  -3.432  -0.743  0.00  0.00    +0.316 C 
ATOM      3  O   UNL     1      -4.251  -3.917   0.183  0.00  0.00    -0.251 OA
ATOM      4  N   UNL     1      -4.270  -3.096  -1.881  0.00  0.00    -0.218 N 
ATOM      5  H   UNL     1      -1.807  -2.844  -1.371  0.00  0.00    +0.150 HD
ATOM      6  H   UNL     1      -5.226  -3.241  -1.960  0.00  0.00    +0.174 HD
ENDROOT
BRANCH   4   7
ATOM      7  N   UNL     1      -3.555  -2.538  -2.948  0.00  0.00    -0.229 N 
ATOM      8  C   UNL     1      -4.195  -2.203  -4.086  0.00  0.00    +0.260 C 
ATOM      9  O   UNL     1      -5.393  -2.384  -4.186  0.00  0.00    -0.269 OA
ATOM     10  H   UNL     1      -2.599  -2.393  -2.869  0.00  0.00    +0.173 HD
BRANCH   8  11
ATOM     11  C   UNL     1      -3.440  -1.613  -5.213  0.00  0.00    +0.041 A 
ATOM     12  C   UNL     1      -2.093  -1.282  -5.057  0.00  0.00    +0.013 A 
ATOM     13  C   UNL     1      -1.394  -0.733  -6.112  0.00  0.00    +0.001 A 
ATOM     14  C   UNL     1      -2.026  -0.510  -7.323  0.00  0.00    +0.000 A 
ATOM     15  C   UNL     1      -3.361  -0.836  -7.484  0.00  0.00    +0.004 A 
ATOM     16  C   UNL     1      -4.070  -1.391  -6.438  0.00  0.00    -0.038 A 
ATOM     17  C   UNL     1      -5.522  -1.751  -6.617  0.00  0.00    +0.044 C 
ENDBRANCH   8  11
ENDBRANCH   4   7
BRANCH   1  18
ATOM     18  C   UNL     1      -1.607  -3.595   0.604  0.00  0.00    +0.095 C 
BRANCH  18  19
ATOM     19  C   UNL     1      -0.146  -3.147   0.519  0.00  0.00    -0.020 C 
BRANCH  19  24
ATOM     20  C   UNL     1       0.088   2.625   0.365  0.00  0.00    +0.044 C 
ATOM     21  C   UNL     1       0.027   1.120   0.406  0.00  0.00    -0.050 A 
ATOM     22  C   UNL     1       0.147   0.392  -0.763  0.00  0.00    +0.003 A 
ATOM     23  C   UNL     1       0.092  -0.989  -0.727  0.00  0.00    +0.002 A 
ATOM     24  C   UNL     1      -0.084  -1.642   0.479  0.00  0.00    -0.059 A 
ATOM     25  C   UNL     1      -0.204  -0.914   1.648  0.00  0.00    +0.002 A 
ATOM     26  C   UNL     1      -0.144   0.467   1.612  0.00  0.00    +0.003 A 
ENDBRANCH  19  24
BRANCH  19  27
ATOM     27  N   UNL     1       0.585  -3.636   1.696  0.00  0.00    +0.385 N 
ATOM     28  C   UNL     1       0.658  -5.119   1.673  0.00  0.00    -0.078 C 
ATOM     29  C   UNL     1       1.872  -5.429   2.585  0.00  0.00    -0.020 C 
ATOM     30  C   UNL     1       2.859  -4.288   2.245  0.00  0.00    -0.020 C 
ATOM     31  C   UNL     1       1.986  -3.163   1.658  0.00  0.00    -0.078 C 
ATOM     32  H   UNL     1       0.135  -3.321   2.542  0.00  0.00    -0.081 HD
ENDBRANCH  19  27
ENDBRANCH  18  19
ENDBRANCH   1  18
TORSDOF 6
