REMARK  Name = ZINC67041953
REMARK  8 active torsions:
REMARK  status: ('A' for Active; 'I' for Inactive)
REMARK    1  A    between atoms: C_1  and  C_2
REMARK    2  A    between atoms: C_6  and  C_8
REMARK    3  A    between atoms: N_10  and  N_11
REMARK    4  A    between atoms: N_14  and  C_15
REMARK    5  A    between atoms: C_15  and  C_16
REMARK    6  A    between atoms: C_16  and  C_17
REMARK    7  A    between atoms: C_16  and  C_18
REMARK    8  A    between atoms: C_16  and  N_19
REMARK                            x       y       z     vdW  Elec       q    Type
REMARK                         _______ _______ _______ _____ _____    ______ ____
ROOT
ATOM      1  N   UNL     1      -0.093  -5.847   4.687  0.00  0.00    -0.218 N 
ATOM      2  C   UNL     1      -0.041  -7.132   4.285  0.00  0.00    +0.316 C 
ATOM      3  O   UNL     1      -0.043  -8.028   5.107  0.00  0.00    -0.251 OA
ATOM      4  N   UNL     1       0.014  -7.425   2.970  0.00  0.00    -0.300 N 
ATOM      5  H   UNL     1      -0.133  -5.636   5.633  0.00  0.00    +0.174 HD
ATOM      6  H   UNL     1       0.016  -6.711   2.314  0.00  0.00    +0.150 HD
ENDROOT
BRANCH   1   9
ATOM      7  C   UNL     1      -0.142  -3.530   4.141  0.00  0.00    +0.260 C 
ATOM      8  O   UNL     1      -0.192  -3.266   5.327  0.00  0.00    -0.269 OA
ATOM      9  N   UNL     1      -0.090  -4.816   3.739  0.00  0.00    -0.229 N 
ATOM     10  H   UNL     1      -0.051  -5.027   2.793  0.00  0.00    +0.173 HD
BRANCH   7  16
ATOM     11  C   UNL     1      -0.250   1.340   3.060  0.00  0.00    +0.044 C 
ATOM     12  C   UNL     1      -0.191  -0.099   2.616  0.00  0.00    -0.050 A 
ATOM     13  C   UNL     1      -0.134  -0.403   1.267  0.00  0.00    +0.003 A 
ATOM     14  C   UNL     1      -0.080  -1.721   0.851  0.00  0.00    +0.001 A 
ATOM     15  C   UNL     1      -0.083  -2.742   1.779  0.00  0.00    +0.013 A 
ATOM     16  C   UNL     1      -0.140  -2.442   3.141  0.00  0.00    +0.038 A 
ATOM     17  C   UNL     1      -0.189  -1.109   3.554  0.00  0.00    +0.016 A 
ENDBRANCH   7  16
ENDBRANCH   1   9
BRANCH   4  18
ATOM     18  C   UNL     1       0.070  -8.822   2.533  0.00  0.00    +0.093 C 
BRANCH  18  19
ATOM     19  C   UNL     1       0.125  -8.877   1.005  0.00  0.00    -0.055 C 
ATOM     20  C   UNL     1       0.184 -10.336   0.548  0.00  0.00    -0.008 C 
ATOM     21  C   UNL     1      -1.125  -8.211   0.425  0.00  0.00    -0.008 C 
BRANCH  19  22
ATOM     22  N   UNL     1       1.322  -8.167   0.533  0.00  0.00    +0.387 N 
ATOM     23  C   UNL     1       1.434  -8.309  -0.927  0.00  0.00    -0.073 C 
ATOM     24  C   UNL     1       2.490  -7.325  -1.433  0.00  0.00    +0.017 C 
ATOM     25  C   UNL     1       3.756  -7.479  -0.630  0.00  0.00    -0.048 A 
ATOM     26  C   UNL     1       4.931  -6.942  -1.133  0.00  0.00    +0.004 A 
ATOM     27  C   UNL     1       6.110  -7.061  -0.425  0.00  0.00    +0.000 A 
ATOM     28  C   UNL     1       6.119  -7.717   0.792  0.00  0.00    +0.000 A 
ATOM     29  C   UNL     1       4.949  -8.253   1.292  0.00  0.00    +0.002 A 
ATOM     30  C   UNL     1       3.764  -8.136   0.581  0.00  0.00    -0.061 A 
ATOM     31  C   UNL     1       2.514  -8.743   1.161  0.00  0.00    -0.042 C 
ATOM     32  H   UNL     1       1.252  -7.190   0.774  0.00  0.00    -0.080 HD
ENDBRANCH  19  22
ENDBRANCH  18  19
ENDBRANCH   4  18
TORSDOF 5
