REMARK  Name = ZINC09517976
REMARK  9 active torsions:
REMARK  status: ('A' for Active; 'I' for Inactive)
REMARK    1  A    between atoms: C_1  and  C_2
REMARK    2  A    between atoms: C_5  and  N_9
REMARK    3  A    between atoms: C_7  and  C_8
REMARK    4  A    between atoms: C_11  and  C_16
REMARK    5  A    between atoms: C_22  and  S_24
REMARK    6  A    between atoms: S_24  and  C_25
REMARK    7  A    between atoms: C_25  and  C_26
REMARK    8  A    between atoms: N_28  and  C_29
REMARK    9  A    between atoms: C_29  and  C_30
REMARK                            x       y       z     vdW  Elec       q    Type
REMARK                         _______ _______ _______ _____ _____    ______ ____
ROOT
ATOM      1  C   UNL     1      -0.329  -7.474  -1.520  0.00  0.00    +0.224 C 
ATOM      2  O   UNL     1      -1.214  -7.173  -2.293  0.00  0.00    -0.275 OA
ATOM      3  N   UNL     1      -0.048  -8.771  -1.290  0.00  0.00    -0.263 N 
ATOM      4  C   UNL     1      -0.773  -9.767  -1.939  0.00  0.00    +0.189 A 
ATOM      5  N   UNL     1      -1.762  -9.666  -2.813  0.00  0.00    -0.125 NA
ATOM      6  N   UNL     1      -2.318 -10.681  -3.313  0.00  0.00    -0.133 NA
ATOM      7  C   UNL     1      -1.946 -11.913  -2.994  0.00  0.00    +0.160 A 
ATOM      8  S   UNL     1      -0.630 -11.549  -1.836  0.00  0.00    -0.024 S 
ATOM      9  H   UNL     1       0.660  -9.012  -0.671  0.00  0.00    +0.157 HD
ENDROOT
BRANCH   1  12
ATOM     10  N   UNL     1       0.059  -4.170  -0.021  0.00  0.00    -0.271 N 
ATOM     11  C   UNL     1      -0.037  -4.992  -1.232  0.00  0.00    +0.127 C 
ATOM     12  C   UNL     1       0.457  -6.396  -0.817  0.00  0.00    +0.102 C 
ATOM     13  C   UNL     1       0.163  -6.397   0.701  0.00  0.00    +0.110 C 
ATOM     14  C   UNL     1       0.172  -4.933   1.080  0.00  0.00    +0.221 C 
ATOM     15  O   UNL     1       0.265  -4.509   2.212  0.00  0.00    -0.275 OA
BRANCH  10  20
ATOM     16  C   UNL     1      -0.015   1.503   0.010  0.00  0.00    +0.044 C 
ATOM     17  C   UNL     1       0.005  -0.004   0.002  0.00  0.00    -0.047 A 
ATOM     18  C   UNL     1       0.005  -0.701   1.197  0.00  0.00    +0.005 A 
ATOM     19  C   UNL     1       0.023  -2.082   1.193  0.00  0.00    +0.024 A 
ATOM     20  C   UNL     1       0.040  -2.771  -0.013  0.00  0.00    +0.037 A 
ATOM     21  C   UNL     1       0.039  -2.068  -1.211  0.00  0.00    +0.027 A 
ATOM     22  C   UNL     1       0.017  -0.687  -1.200  0.00  0.00    -0.046 A 
ATOM     23  C   UNL     1       0.010   0.076  -2.499  0.00  0.00    +0.044 C 
ENDBRANCH  10  20
ENDBRANCH   1  12
BRANCH   7  24
ATOM     24  S   UNL     1      -2.567 -13.464  -3.553  0.00  0.00    -0.088 S 
BRANCH  24  25
ATOM     25  C   UNL     1      -3.885 -13.016  -4.716  0.00  0.00    +0.172 C 
BRANCH  25  26
ATOM     26  C   UNL     1      -4.507 -14.269  -5.276  0.00  0.00    +0.223 C 
ATOM     27  O   UNL     1      -4.102 -15.357  -4.925  0.00  0.00    -0.275 OA
ATOM     28  N   UNL     1      -5.515 -14.181  -6.167  0.00  0.00    -0.312 N 
ATOM     29  H   UNL     1      -5.839 -13.311  -6.448  0.00  0.00    +0.149 HD
BRANCH  28  30
ATOM     30  C   UNL     1      -6.120 -15.399  -6.712  0.00  0.00    +0.135 C 
BRANCH  30  31
ATOM     31  C   UNL     1      -7.232 -15.021  -7.693  0.00  0.00    +0.135 C 
ATOM     32  C   UNL     1      -7.910 -16.296  -8.254  0.00  0.00    +0.035 C 
ATOM     33  C   UNL     1      -9.307 -15.740  -8.644  0.00  0.00    +0.031 C 
ATOM     34  C   UNL     1      -9.552 -14.676  -7.553  0.00  0.00    +0.160 C 
ATOM     35  O   UNL     1      -8.277 -14.307  -7.012  0.00  0.00    -0.375 OA
ENDBRANCH  30  31
ENDBRANCH  28  30
ENDBRANCH  25  26
ENDBRANCH  24  25
ENDBRANCH   7  24
TORSDOF 7
