REMARK  Name = ZINC35003062
REMARK  12 active torsions:
REMARK  status: ('A' for Active; 'I' for Inactive)
REMARK    1  A    between atoms: C_1  and  C_2
REMARK    2  A    between atoms: C_2  and  C_4
REMARK    3  A    between atoms: C_2  and  N_27
REMARK    4  A    between atoms: C_4  and  C_5
REMARK    5  A    between atoms: C_5  and  C_6
REMARK    6  A    between atoms: C_6  and  N_7
REMARK    7  A    between atoms: N_7  and  C_8
REMARK    8  A    between atoms: C_8  and  C_9
REMARK    9  A    between atoms: N_18  and  C_19
REMARK   10  A    between atoms: N_27  and  C_28
REMARK   11  A    between atoms: C_30  and  O_38
REMARK   12  A    between atoms: O_38  and  C_39
REMARK                            x       y       z     vdW  Elec       q    Type
REMARK                         _______ _______ _______ _____ _____    ______ ____
ROOT
ATOM      1  N   UNL     1       1.271  -3.978  -2.672  0.00  0.00    -0.281 N 
ATOM      2  C   UNL     1       2.223  -4.735  -2.091  0.00  0.00    +0.307 C 
ATOM      3  O   UNL     1       3.153  -4.206  -1.514  0.00  0.00    -0.252 OA
ATOM      4  N   UNL     1       2.143  -6.079  -2.150  0.00  0.00    -0.267 N 
ATOM      5  H   UNL     1       1.361  -6.503  -2.538  0.00  0.00    +0.156 HD
ENDROOT
BRANCH   4   6
ATOM      6  C   UNL     1       3.191  -6.866  -1.651  0.00  0.00    +0.070 A 
ATOM      7  C   UNL     1       4.476  -6.347  -1.577  0.00  0.00    +0.029 A 
ATOM      8  C   UNL     1       5.507  -7.123  -1.084  0.00  0.00    +0.040 A 
ATOM      9  C   UNL     1       5.260  -8.420  -0.665  0.00  0.00    +0.126 A 
ATOM     10  C   UNL     1       3.980  -8.942  -0.738  0.00  0.00    +0.078 A 
ATOM     11  C   UNL     1       2.943  -8.166  -1.225  0.00  0.00    +0.147 A 
ATOM     12  F   UNL     1       1.692  -8.673  -1.291  0.00  0.00    -0.203 F 
ATOM     13  F   UNL     1       6.271  -9.177  -0.184  0.00  0.00    -0.205 F 
ENDBRANCH   4   6
BRANCH   1  14
ATOM     14  C   UNL     1       1.357  -2.517  -2.607  0.00  0.00    +0.110 C 
BRANCH  14  15
ATOM     15  C   UNL     1       0.631  -2.018  -1.357  0.00  0.00    +0.021 C 
BRANCH  15  16
ATOM     16  C   UNL     1       0.721  -0.492  -1.290  0.00  0.00    +0.023 C 
BRANCH  16  18
ATOM     17  C   UNL     1      -0.024   1.538  -0.037  0.00  0.00    +0.028 C 
ATOM     18  C   UNL     1      -0.006   0.008  -0.039  0.00  0.00    +0.067 C 
BRANCH  18  19
ATOM     19  N   UNL     1       0.691  -0.475   1.156  0.00  0.00    -0.340 N 
ATOM     20  H   UNL     1       1.635  -0.694   1.111  0.00  0.00    +0.146 HD
BRANCH  19  21
ATOM     21  C   UNL     1      -0.003  -0.618   2.357  0.00  0.00    +0.057 A 
ATOM     22  C   UNL     1      -1.343  -0.313   2.421  0.00  0.00    +0.070 A 
ATOM     23  C   UNL     1      -2.051  -0.451   3.617  0.00  0.00    +0.123 A 
ATOM     24  C   UNL     1      -1.422  -0.897   4.758  0.00  0.00    +0.055 A 
ATOM     25  C   UNL     1      -0.056  -1.216   4.722  0.00  0.00    +0.006 A 
ATOM     26  C   UNL     1       0.666  -1.083   3.511  0.00  0.00    +0.092 A 
ATOM     27  N   UNL     1       1.965  -1.392   3.474  0.00  0.00    -0.253 NA
ATOM     28  C   UNL     1       2.594  -1.824   4.540  0.00  0.00    +0.111 A 
ATOM     29  C   UNL     1       1.943  -1.983   5.761  0.00  0.00    +0.020 A 
ATOM     30  C   UNL     1       0.617  -1.674   5.871  0.00  0.00    +0.011 A 
BRANCH  23  31
ATOM     31  O   UNL     1      -3.373  -0.142   3.655  0.00  0.00    -0.495 OA
ATOM     32  C   UNL     1      -4.042  -0.304   4.908  0.00  0.00    +0.277 C 
ENDBRANCH  23  31
ENDBRANCH  19  21
ENDBRANCH  18  19
ENDBRANCH  16  18
ENDBRANCH  15  16
ENDBRANCH  14  15
ENDBRANCH   1  14
BRANCH   1  33
ATOM     33  C   UNL     1       0.150  -4.615  -3.367  0.00  0.00    +0.144 C 
BRANCH  33  34
ATOM     34  C   UNL     1       0.511  -4.825  -4.815  0.00  0.00    -0.030 A 
ATOM     35  C   UNL     1       0.235  -3.840  -5.745  0.00  0.00    +0.008 A 
ATOM     36  C   UNL     1       0.566  -4.031  -7.074  0.00  0.00    +0.038 A 
ATOM     37  C   UNL     1       1.175  -5.209  -7.472  0.00  0.00    +0.123 A 
ATOM     38  C   UNL     1       1.452  -6.194  -6.540  0.00  0.00    +0.038 A 
ATOM     39  C   UNL     1       1.124  -5.999  -5.211  0.00  0.00    +0.008 A 
ATOM     40  F   UNL     1       1.499  -5.397  -8.771  0.00  0.00    -0.205 F 
ENDBRANCH  33  34
ENDBRANCH   1  33
TORSDOF 10
