REMARK  Name = ZINC04702959
REMARK  6 active torsions:
REMARK  status: ('A' for Active; 'I' for Inactive)
REMARK    1  A    between atoms: C_1  and  C_2
REMARK    2  A    between atoms: C_2  and  O_3
REMARK    3  A    between atoms: O_3  and  C_4
REMARK    4  A    between atoms: C_7  and  C_10
REMARK    5  A    between atoms: N_21  and  C_22
REMARK    6  A    between atoms: C_25  and  C_28
REMARK                            x       y       z     vdW  Elec       q    Type
REMARK                         _______ _______ _______ _____ _____    ______ ____
ROOT
ATOM      1  C   UNL     1       1.511   0.033   6.069  0.00  0.00    +0.198 C 
ATOM      2  N   UNL     1       0.443  -0.019   7.074  0.00  0.00    -0.321 N 
ATOM      3  C   UNL     1      -0.374  -1.143   7.125  0.00  0.00    +0.041 A 
ATOM      4  C   UNL     1      -1.683  -1.073   7.570  0.00  0.00    +0.024 A 
ATOM      5  C   UNL     1      -2.454  -2.219   7.612  0.00  0.00    +0.002 A 
ATOM      6  C   UNL     1      -1.926  -3.437   7.214  0.00  0.00    +0.001 A 
ATOM      7  C   UNL     1      -0.625  -3.524   6.765  0.00  0.00    +0.015 A 
ATOM      8  C   UNL     1       0.161  -2.375   6.712  0.00  0.00    +0.058 A 
ATOM      9  C   UNL     1       1.548  -2.411   6.216  0.00  0.00    +0.254 C 
ATOM     10  O   UNL     1       2.098  -3.476   6.007  0.00  0.00    -0.270 OA
ATOM     11  N   UNL     1       2.200  -1.255   5.997  0.00  0.00    -0.244 N 
ATOM     12  H   UNL     1       0.310   0.717   7.692  0.00  0.00    +0.148 HD
ENDROOT
BRANCH  11  13
ATOM     13  C   UNL     1       3.564  -1.289   5.693  0.00  0.00    +0.039 A 
ATOM     14  C   UNL     1       4.015  -2.005   4.591  0.00  0.00    +0.024 A 
ATOM     15  C   UNL     1       5.362  -2.031   4.291  0.00  0.00    +0.005 A 
ATOM     16  C   UNL     1       6.264  -1.355   5.092  0.00  0.00    -0.050 A 
ATOM     17  C   UNL     1       5.820  -0.646   6.193  0.00  0.00    +0.005 A 
ATOM     18  C   UNL     1       4.473  -0.611   6.496  0.00  0.00    +0.024 A 
ATOM     19  C   UNL     1       7.735  -1.391   4.764  0.00  0.00    +0.044 C 
ENDBRANCH  11  13
BRANCH   1  23
ATOM     20  C   UNL     1      -0.183   0.947   2.253  0.00  0.00    +0.121 A 
ATOM     21  C   UNL     1       0.967   0.174   2.336  0.00  0.00    +0.046 A 
ATOM     22  C   UNL     1       1.515  -0.115   3.571  0.00  0.00    +0.010 A 
ATOM     23  C   UNL     1       0.913   0.355   4.723  0.00  0.00    -0.009 A 
ATOM     24  C   UNL     1      -0.235   1.120   4.643  0.00  0.00    +0.010 A 
ATOM     25  C   UNL     1      -0.785   1.417   3.411  0.00  0.00    +0.046 A 
BRANCH  20  26
ATOM     26  O   UNL     1      -0.721   1.237   1.040  0.00  0.00    -0.492 OA
BRANCH  26  28
ATOM     27  C   UNL     1      -0.795   1.147  -1.374  0.00  0.00    +0.048 C 
ATOM     28  C   UNL     1      -0.048   0.719  -0.110  0.00  0.00    +0.225 C 
ENDBRANCH  26  28
ENDBRANCH  20  26
ENDBRANCH   1  23
TORSDOF 4
