REMARK  Name = ZINC42981725
REMARK  9 active torsions:
REMARK  status: ('A' for Active; 'I' for Inactive)
REMARK    1  A    between atoms: C_1  and  C_2
REMARK    2  A    between atoms: C_3  and  C_7
REMARK    3  A    between atoms: C_10  and  S_13
REMARK    4  A    between atoms: N_11  and  N_12
REMARK    5  A    between atoms: S_13  and  C_14
REMARK    6  A    between atoms: C_14  and  C_16
REMARK    7  A    between atoms: C_14  and  C_19
REMARK    8  A    between atoms: C_16  and  C_17
REMARK    9  A    between atoms: C_16  and  C_18
REMARK                            x       y       z     vdW  Elec       q    Type
REMARK                         _______ _______ _______ _____ _____    ______ ____
ROOT
ATOM      1  S   UNL     1      -6.656  -1.062  -0.061  0.00  0.00    -0.071 S 
ENDROOT
BRANCH   1   5
ATOM      2  C   UNL     1      -2.752  -1.205  -0.111  0.00  0.00    +0.185 A 
ATOM      3  N   UNL     1      -2.991   0.044   0.213  0.00  0.00    -0.127 NA
ATOM      4  N   UNL     1      -4.259   0.248   0.269  0.00  0.00    -0.121 NA
ATOM      5  C   UNL     1      -4.907  -0.858  -0.015  0.00  0.00    +0.209 A 
ATOM      6  N   UNL     1      -3.971  -1.820  -0.273  0.00  0.00    -0.224 N 
BRANCH   2   9
ATOM      7  C   UNL     1       0.024   0.205   0.258  0.00  0.00    +0.087 C 
ATOM      8  C   UNL     1      -0.209  -1.235  -0.120  0.00  0.00    +0.112 A 
ATOM      9  C   UNL     1      -1.422  -1.831  -0.277  0.00  0.00    +0.061 A 
ATOM     10  C   UNL     1      -1.137  -3.223  -0.644  0.00  0.00    +0.053 A 
ATOM     11  C   UNL     1       0.201  -3.333  -0.673  0.00  0.00    +0.196 A 
ATOM     12  O   UNL     1       0.745  -2.146  -0.366  0.00  0.00    -0.467 OA
ENDBRANCH   2   9
BRANCH   6  13
ATOM     13  N   UNL     1      -4.199  -3.123  -0.617  0.00  0.00    -0.295 N 
ATOM     14  H   UNL     1      -4.259  -3.708   0.203  0.00  0.00    +0.163 HD
ATOM     15  H   UNL     1      -5.030  -3.207  -1.183  0.00  0.00    +0.163 HD
ENDBRANCH   6  13
ENDBRANCH   1   5
BRANCH   1  16
ATOM     16  C   UNL     1      -7.301   0.615   0.197  0.00  0.00    +0.143 C 
BRANCH  16  17
ATOM     17  C   UNL     1      -8.735   0.537   0.653  0.00  0.00    +0.233 C 
ATOM     18  O   UNL     1      -9.415  -0.421   0.353  0.00  0.00    -0.274 OA
ATOM     19  N   UNL     1      -9.261   1.532   1.394  0.00  0.00    -0.270 N 
ATOM     20  C   UNL     1      -8.577   2.785   1.724  0.00  0.00    +0.118 C 
ATOM     21  C   UNL     1      -9.581   3.579   2.577  0.00  0.00    +0.056 C 
ATOM     22  C   UNL     1     -10.796   2.684   2.666  0.00  0.00    -0.024 A 
ATOM     23  C   UNL     1     -10.542   1.522   1.955  0.00  0.00    +0.040 A 
ATOM     24  C   UNL     1     -11.530   0.538   1.889  0.00  0.00    +0.024 A 
ATOM     25  C   UNL     1     -12.741   0.725   2.520  0.00  0.00    +0.002 A 
ATOM     26  C   UNL     1     -12.987   1.890   3.223  0.00  0.00    +0.000 A 
ATOM     27  C   UNL     1     -12.010   2.866   3.301  0.00  0.00    +0.005 A 
ENDBRANCH  16  17
BRANCH  16  28
ATOM     28  C   UNL     1      -7.224   1.398  -1.115  0.00  0.00    +0.005 C 
ATOM     29  C   UNL     1      -5.758   1.604  -1.502  0.00  0.00    +0.009 C 
ATOM     30  C   UNL     1      -7.938   0.614  -2.219  0.00  0.00    +0.009 C 
ENDBRANCH  16  28
ENDBRANCH   1  16
TORSDOF 6
