REMARK  Name = ZINC63405735
REMARK  10 active torsions:
REMARK  status: ('A' for Active; 'I' for Inactive)
REMARK    1  A    between atoms: C_1  and  C_2
REMARK    2  A    between atoms: C_2  and  C_4
REMARK    3  A    between atoms: C_2  and  N_32
REMARK    4  A    between atoms: N_6  and  C_7
REMARK    5  A    between atoms: C_10  and  N_13
REMARK    6  A    between atoms: C_14  and  C_16
REMARK    7  A    between atoms: C_16  and  C_18
REMARK    8  A    between atoms: C_16  and  N_28
REMARK    9  A    between atoms: C_18  and  C_19
REMARK   10  A    between atoms: C_29  and  C_31
REMARK                            x       y       z     vdW  Elec       q    Type
REMARK                         _______ _______ _______ _____ _____    ______ ____
ROOT
ATOM      1  N   UNL     1       3.208  -1.689   6.947  0.00  0.00    -0.284 N 
ATOM      2  C   UNL     1       2.709  -1.473   8.180  0.00  0.00    +0.238 C 
ATOM      3  O   UNL     1       1.664  -0.872   8.315  0.00  0.00    -0.273 OA
ATOM      4  H   UNL     1       4.079  -2.104   6.843  0.00  0.00    +0.155 HD
ENDROOT
BRANCH   1   8
ATOM      5  C   UNL     1       1.013  -0.572   3.583  0.00  0.00    +0.034 A 
ATOM      6  C   UNL     1       2.400  -0.501   3.562  0.00  0.00    +0.025 A 
ATOM      7  C   UNL     1       3.126  -0.870   4.676  0.00  0.00    +0.025 A 
ATOM      8  C   UNL     1       2.471  -1.313   5.817  0.00  0.00    +0.034 A 
ATOM      9  C   UNL     1       1.084  -1.385   5.838  0.00  0.00    +0.025 A 
ATOM     10  C   UNL     1       0.357  -1.010   4.726  0.00  0.00    +0.025 A 
BRANCH   5  13
ATOM     11  C   UNL     1      -0.913   0.421   2.598  0.00  0.00    +0.242 C 
ATOM     12  O   UNL     1      -1.384   0.578   3.705  0.00  0.00    -0.273 OA
ATOM     13  N   UNL     1       0.275  -0.197   2.453  0.00  0.00    -0.284 N 
ATOM     14  H   UNL     1       0.620  -0.383   1.565  0.00  0.00    +0.155 HD
BRANCH  11  16
ATOM     15  C   UNL     1      -1.965  -0.262   0.459  0.00  0.00    +0.042 C 
ATOM     16  C   UNL     1      -1.658   0.917   1.385  0.00  0.00    +0.191 C 
BRANCH  16  17
ATOM     17  N   UNL     1      -2.912   1.546   1.806  0.00  0.00    -0.240 N 
ATOM     18  C   UNL     1      -4.080   0.929   2.054  0.00  0.00    +0.219 A 
ATOM     19  N   UNL     1      -4.954   1.838   2.405  0.00  0.00    -0.223 NA
ATOM     20  C   UNL     1      -4.383   3.042   2.392  0.00  0.00    +0.245 A 
ATOM     21  N   UNL     1      -3.131   2.914   2.037  0.00  0.00    -0.158 NA
ENDBRANCH  16  17
ENDBRANCH  11  16
ENDBRANCH   5  13
ENDBRANCH   1   8
BRANCH   2  22
ATOM     22  C   UNL     1       3.448  -1.979   9.392  0.00  0.00    +0.163 C 
BRANCH  22  23
ATOM     23  N   UNL     1       2.526  -2.059  10.528  0.00  0.00    -0.304 N 
ATOM     24  C   UNL     1       1.901  -0.949  10.968  0.00  0.00    +0.211 C 
ATOM     25  O   UNL     1       2.101   0.116  10.424  0.00  0.00    -0.276 OA
ATOM     26  C   UNL     1       0.953  -1.032  12.137  0.00  0.00    +0.109 C 
ATOM     27  H   UNL     1       2.366  -2.911  10.964  0.00  0.00    +0.149 HD
ENDBRANCH  22  23
BRANCH  22  28
ATOM     28  C   UNL     1       4.591  -1.020   9.729  0.00  0.00    +0.065 C 
BRANCH  28  29
ATOM     29  C   UNL     1       5.405  -1.588  10.864  0.00  0.00    -0.039 C 
ATOM     30  C   UNL     1       6.537  -2.321  10.765  0.00  0.00    -0.001 A 
ATOM     31  C   UNL     1       7.320  -2.792   9.616  0.00  0.00    +0.010 A 
ATOM     32  C   UNL     1       8.435  -3.525   9.837  0.00  0.00    +0.001 A 
ATOM     33  C   UNL     1       8.860  -3.845  11.134  0.00  0.00    +0.002 A 
ATOM     34  C   UNL     1       8.194  -3.449  12.239  0.00  0.00    +0.026 A 
ATOM     35  C   UNL     1       7.008  -2.672  12.124  0.00  0.00    +0.043 A 
ATOM     36  N   UNL     1       6.199  -2.176  13.027  0.00  0.00    -0.380 N 
ATOM     37  C   UNL     1       5.124  -1.448  12.343  0.00  0.00    +0.144 C 
ATOM     38  H   UNL     1       6.296  -2.272  13.988  0.00  0.00    +0.160 HD
ENDBRANCH  28  29
ENDBRANCH  22  28
ENDBRANCH   2  22
TORSDOF 8
