REMARK  Name = ZINC65778977
REMARK  6 active torsions:
REMARK  status: ('A' for Active; 'I' for Inactive)
REMARK    1  A    between atoms: C_3  and  C_6
REMARK    2  A    between atoms: C_8  and  C_11
REMARK    3  A    between atoms: C_11  and  N_12
REMARK    4  A    between atoms: C_13  and  C_15
REMARK    5  A    between atoms: C_18  and  N_21
REMARK    6  A    between atoms: N_24  and  C_25
REMARK                            x       y       z     vdW  Elec       q    Type
REMARK                         _______ _______ _______ _____ _____    ______ ____
ROOT
ATOM      1  N   UNL     1       7.774   1.223  -1.468  0.00  0.00    -0.303 N 
ATOM      2  C   UNL     1       9.021   0.784  -1.728  0.00  0.00    +0.244 C 
ATOM      3  O   UNL     1       9.775   0.517  -0.812  0.00  0.00    -0.270 OA
ATOM      4  H   UNL     1       7.173   1.437  -2.200  0.00  0.00    +0.150 HD
ENDROOT
BRANCH   2   5
ATOM      5  C   UNL     1       9.473   0.629  -3.124  0.00  0.00    +0.037 A 
ATOM      6  C   UNL     1       8.611   0.941  -4.179  0.00  0.00    +0.015 A 
ATOM      7  C   UNL     1       9.036   0.796  -5.480  0.00  0.00    +0.024 A 
ATOM      8  C   UNL     1      10.322   0.338  -5.746  0.00  0.00    +0.035 A 
ATOM      9  C   UNL     1      11.183   0.025  -4.699  0.00  0.00    +0.024 A 
ATOM     10  C   UNL     1      10.767   0.174  -3.395  0.00  0.00    +0.015 A 
BRANCH   8  11
ATOM     11  N   UNL     1      10.749   0.191  -7.065  0.00  0.00    -0.269 N 
ATOM     12  C   UNL     1       9.880  -0.208  -8.015  0.00  0.00    +0.304 C 
ATOM     13  O   UNL     1       8.706  -0.360  -7.739  0.00  0.00    -0.253 OA
ATOM     14  N   UNL     1      10.312  -0.439  -9.270  0.00  0.00    -0.296 N 
ATOM     15  H   UNL     1      11.672   0.377  -7.300  0.00  0.00    +0.156 HD
ATOM     16  H   UNL     1      11.249  -0.318  -9.491  0.00  0.00    +0.151 HD
BRANCH  14  17
ATOM     17  C   UNL     1       9.367  -0.873 -10.302  0.00  0.00    +0.075 C 
ATOM     18  C   UNL     1       9.809  -2.002 -11.235  0.00  0.00    +0.024 C 
ATOM     19  C   UNL     1       9.723  -0.567 -11.759  0.00  0.00    +0.024 C 
ENDBRANCH  14  17
ENDBRANCH   8  11
ENDBRANCH   2   5
BRANCH   1  20
ATOM     20  C   UNL     1       7.325   1.377  -0.083  0.00  0.00    +0.203 C 
BRANCH  20  23
ATOM     21  C   UNL     1       3.734   1.907  -0.048  0.00  0.00    +0.209 A 
ATOM     22  N   UNL     1       4.836   1.133  -0.062  0.00  0.00    -0.190 NA
ATOM     23  C   UNL     1       5.904   1.878  -0.067  0.00  0.00    +0.245 A 
ATOM     24  O   UNL     1       5.527   3.163  -0.057  0.00  0.00    -0.336 OA
ATOM     25  N   UNL     1       4.107   3.166  -0.050  0.00  0.00    -0.055 NA
BRANCH  21  28
ATOM     26  C   UNL     1      -0.024   1.465  -0.022  0.00  0.00    +0.008 A 
ATOM     27  C   UNL     1       1.174   2.143  -0.029  0.00  0.00    +0.019 A 
ATOM     28  C   UNL     1       2.338   1.422  -0.038  0.00  0.00    +0.060 A 
ATOM     29  S   UNL     1       1.732  -0.257  -0.037  0.00  0.00    -0.093 S 
ATOM     30  C   UNL     1      -0.016   0.106  -0.024  0.00  0.00    +0.046 A 
ENDBRANCH  21  28
ENDBRANCH  20  23
ENDBRANCH   1  20
TORSDOF 6
