REMARK  Name = ZINC35268002
REMARK  8 active torsions:
REMARK  status: ('A' for Active; 'I' for Inactive)
REMARK    1  A    between atoms: C_1  and  C_2
REMARK    2  A    between atoms: C_2  and  C_3
REMARK    3  A    between atoms: C_3  and  C_5
REMARK    4  A    between atoms: C_3  and  C_6
REMARK    5  A    between atoms: C_6  and  C_8
REMARK    6  A    between atoms: C_6  and  N_22
REMARK    7  A    between atoms: C_14  and  C_16
REMARK    8  A    between atoms: N_25  and  C_26
REMARK                            x       y       z     vdW  Elec       q    Type
REMARK                         _______ _______ _______ _____ _____    ______ ____
ROOT
ATOM      1  C   UNL     1       0.542  -2.134  -1.325  0.00  0.00    +0.163 C 
ENDROOT
BRANCH   1   2
ATOM      2  C   UNL     1       0.929  -2.724   0.006  0.00  0.00    +0.239 C 
ATOM      3  O   UNL     1       0.160  -3.458   0.591  0.00  0.00    -0.273 OA
ATOM      4  N   UNL     1       2.129  -2.438   0.547  0.00  0.00    -0.262 N 
ATOM      5  C   UNL     1       2.443  -2.893   1.822  0.00  0.00    +0.188 A 
ATOM      6  N   UNL     1       1.712  -3.615   2.650  0.00  0.00    -0.125 NA
ATOM      7  N   UNL     1       2.135  -3.958   3.790  0.00  0.00    -0.140 NA
ATOM      8  C   UNL     1       3.351  -3.578   4.163  0.00  0.00    +0.134 A 
ATOM      9  S   UNL     1       3.859  -2.671   2.710  0.00  0.00    -0.030 S 
ATOM     10  H   UNL     1       2.774  -1.913   0.047  0.00  0.00    +0.157 HD
BRANCH   8  11
ATOM     11  C   UNL     1       4.081  -3.837   5.423  0.00  0.00    +0.009 A 
ATOM     12  C   UNL     1       5.367  -3.327   5.605  0.00  0.00    +0.010 A 
ATOM     13  C   UNL     1       6.043  -3.572   6.782  0.00  0.00    +0.001 A 
ATOM     14  C   UNL     1       5.447  -4.322   7.782  0.00  0.00    +0.000 A 
ATOM     15  C   UNL     1       4.173  -4.830   7.607  0.00  0.00    +0.001 A 
ATOM     16  C   UNL     1       3.484  -4.587   6.437  0.00  0.00    +0.010 A 
ENDBRANCH   8  11
ENDBRANCH   1   2
BRANCH   1  17
ATOM     17  N   UNL     1      -0.598  -2.872  -1.874  0.00  0.00    -0.288 N 
ATOM     18  C   UNL     1      -0.809  -2.893  -3.205  0.00  0.00    +0.304 C 
ATOM     19  O   UNL     1      -0.054  -2.300  -3.950  0.00  0.00    -0.252 OA
ATOM     20  N   UNL     1      -1.859  -3.573  -3.710  0.00  0.00    -0.269 N 
ATOM     21  H   UNL     1      -1.201  -3.346  -1.280  0.00  0.00    +0.151 HD
ATOM     22  H   UNL     1      -2.503  -3.983  -3.113  0.00  0.00    +0.156 HD
BRANCH  20  23
ATOM     23  C   UNL     1      -2.018  -3.685  -5.096  0.00  0.00    +0.036 A 
ATOM     24  C   UNL     1      -3.291  -3.706  -5.651  0.00  0.00    +0.025 A 
ATOM     25  C   UNL     1      -3.446  -3.817  -7.018  0.00  0.00    +0.023 A 
ATOM     26  C   UNL     1      -2.334  -3.908  -7.837  0.00  0.00    +0.059 A 
ATOM     27  C   UNL     1      -1.064  -3.887  -7.288  0.00  0.00    +0.061 A 
ATOM     28  C   UNL     1      -0.903  -3.770  -5.920  0.00  0.00    +0.044 A 
ATOM     29 CL   UNL     1       0.329  -4.002  -8.318  0.00  0.00    -0.082 Cl
ATOM     30 CL   UNL     1      -2.533  -4.048  -9.556  0.00  0.00    -0.082 Cl
ENDBRANCH  20  23
ENDBRANCH   1  17
BRANCH   1  31
ATOM     31  C   UNL     1       0.157  -0.665  -1.140  0.00  0.00    +0.015 C 
ATOM     32  C   UNL     1      -1.083  -0.572  -0.249  0.00  0.00    +0.010 C 
BRANCH  31  34
ATOM     33  C   UNL     1      -0.409   1.456  -2.332  0.00  0.00    +0.004 C 
ATOM     34  C   UNL     1      -0.146  -0.041  -2.503  0.00  0.00    +0.002 C 
ENDBRANCH  31  34
ENDBRANCH   1  31
TORSDOF 6
