REMARK  Name = ZINC48280067
REMARK  7 active torsions:
REMARK  status: ('A' for Active; 'I' for Inactive)
REMARK    1  A    between atoms: N_9  and  C_11
REMARK    2  A    between atoms: C_11  and  C_12
REMARK    3  A    between atoms: C_12  and  C_14
REMARK    4  A    between atoms: C_12  and  O_26
REMARK    5  A    between atoms: C_14  and  N_15
REMARK    6  A    between atoms: N_18  and  C_19
REMARK    7  A    between atoms: C_19  and  C_20
REMARK                            x       y       z     vdW  Elec       q    Type
REMARK                         _______ _______ _______ _____ _____    ______ ____
ROOT
ATOM      1  C   UNL     1       5.939  -2.100   1.067  0.00  0.00    +0.115 C 
ENDROOT
BRANCH   1   2
ATOM      2  O   UNL     1       6.000  -0.711   0.736  0.00  0.00    -0.392 OA
ATOM      3  H   UNL     1       6.219  -0.536  -0.189  0.00  0.00    +0.210 HD
ENDBRANCH   1   2
BRANCH   1   4
ATOM      4  C   UNL     1       4.866  -2.780   0.214  0.00  0.00    -0.045 C 
BRANCH   4  13
ATOM      5  C   UNL     1      -1.367  -1.283   0.465  0.00  0.00    +0.000 A 
ATOM      6  C   UNL     1      -1.086  -1.829  -0.773  0.00  0.00    +0.000 A 
ATOM      7  C   UNL     1       0.187  -2.284  -1.052  0.00  0.00    +0.002 A 
ATOM      8  C   UNL     1       1.188  -2.196  -0.095  0.00  0.00    -0.061 A 
ATOM      9  C   UNL     1       0.907  -1.649   1.139  0.00  0.00    -0.048 A 
ATOM     10  C   UNL     1      -0.372  -1.194   1.418  0.00  0.00    +0.004 A 
ATOM     11  C   UNL     1       1.966  -1.527   2.204  0.00  0.00    +0.017 C 
ATOM     12  C   UNL     1       3.153  -2.428   1.859  0.00  0.00    -0.074 C 
ATOM     13  N   UNL     1       3.563  -2.153   0.474  0.00  0.00    +0.384 N 
ATOM     14  C   UNL     1       2.561  -2.709  -0.440  0.00  0.00    -0.043 C 
ATOM     15  H   UNL     1       3.632  -1.157   0.333  0.00  0.00    -0.081 HD
ENDBRANCH   4  13
ENDBRANCH   1   4
BRANCH   1  16
ATOM     16  C   UNL     1       7.296  -2.750   0.794  0.00  0.00    +0.135 C 
BRANCH  16  17
ATOM     17  N   UNL     1       8.301  -2.181   1.696  0.00  0.00    -0.297 N 
ATOM     18  C   UNL     1       9.579  -2.606   1.635  0.00  0.00    +0.300 C 
ATOM     19  O   UNL     1       9.898  -3.461   0.832  0.00  0.00    -0.253 OA
ATOM     20  N   UNL     1      10.503  -2.082   2.465  0.00  0.00    -0.294 N 
ATOM     21  H   UNL     1       8.046  -1.499   2.336  0.00  0.00    +0.150 HD
ATOM     22  H   UNL     1      10.248  -1.400   3.106  0.00  0.00    +0.151 HD
BRANCH  20  23
ATOM     23  C   UNL     1      11.892  -2.544   2.399  0.00  0.00    +0.163 C 
BRANCH  23  24
ATOM     24  C   UNL     1      12.715  -1.807   3.424  0.00  0.00    +0.080 A 
ATOM     25  C   UNL     1      13.018  -2.259   4.712  0.00  0.00    +0.045 A 
ATOM     26  C   UNL     1      13.775  -1.315   5.318  0.00  0.00    +0.105 A 
ATOM     27  N   UNL     1      13.945  -0.301   4.443  0.00  0.00    -0.284 N 
ATOM     28  H   UNL     1      14.446   0.514   4.604  0.00  0.00    +0.188 HD
ATOM     29  N   UNL     1      13.275  -0.635   3.260  0.00  0.00    -0.177 NA
ENDBRANCH  23  24
ENDBRANCH  20  23
ENDBRANCH  16  17
ENDBRANCH   1  16
TORSDOF 7
