REMARK  Name = ZINC09406421
REMARK  7 active torsions:
REMARK  status: ('A' for Active; 'I' for Inactive)
REMARK    1  A    between atoms: C_1  and  O_2
REMARK    2  A    between atoms: O_2  and  C_3
REMARK    3  A    between atoms: C_6  and  C_9
REMARK    4  A    between atoms: C_15  and  C_21
REMARK    5  A    between atoms: N_23  and  C_24
REMARK    6  A    between atoms: C_24  and  C_25
REMARK    7  A    between atoms: C_25  and  C_26
REMARK                            x       y       z     vdW  Elec       q    Type
REMARK                         _______ _______ _______ _____ _____    ______ ____
ROOT
ATOM      1  C   UNL     1      -9.751  -7.113  -2.522  0.00  0.00    +0.090 A 
ATOM      2  C   UNL     1      -8.809  -6.488  -1.777  0.00  0.00    +0.122 A 
ATOM      3  N   UNL     1      -7.999  -5.764  -2.650  0.00  0.00    -0.293 N 
ATOM      4  C   UNL     1      -6.884  -4.929  -2.537  0.00  0.00    +0.062 A 
ATOM      5  C   UNL     1      -6.223  -4.573  -1.347  0.00  0.00    +0.028 A 
ATOM      6  C   UNL     1      -5.130  -3.746  -1.366  0.00  0.00    +0.015 A 
ATOM      7  C   UNL     1      -4.644  -3.221  -2.568  0.00  0.00    +0.038 A 
ATOM      8  C   UNL     1      -5.285  -3.562  -3.763  0.00  0.00    +0.030 A 
ATOM      9  C   UNL     1      -6.375  -4.395  -3.728  0.00  0.00    +0.040 A 
ATOM     10  S   UNL     1      -7.455  -5.063  -4.971  0.00  0.00    -0.049 S 
ATOM     11  C   UNL     1      -8.512  -6.001  -3.893  0.00  0.00    +0.179 A 
ATOM     12  N   UNL     1      -9.542  -6.794  -3.817  0.00  0.00    -0.221 NA
ENDROOT
BRANCH   1  16
ATOM     13  C   UNL     1     -12.832  -9.645  -1.040  0.00  0.00    +0.120 A 
ATOM     14  C   UNL     1     -12.732  -9.400  -2.402  0.00  0.00    +0.046 A 
ATOM     15  C   UNL     1     -11.734  -8.579  -2.886  0.00  0.00    +0.013 A 
ATOM     16  C   UNL     1     -10.825  -7.996  -2.005  0.00  0.00    +0.002 A 
ATOM     17  C   UNL     1     -10.924  -8.249  -0.638  0.00  0.00    +0.013 A 
ATOM     18  C   UNL     1     -11.928  -9.066  -0.160  0.00  0.00    +0.046 A 
BRANCH  13  20
ATOM     19  C   UNL     1     -13.860 -10.662   0.847  0.00  0.00    +0.277 C 
ATOM     20  O   UNL     1     -13.816 -10.453  -0.566  0.00  0.00    -0.495 OA
ENDBRANCH  13  20
ENDBRANCH   1  16
BRANCH   7  21
ATOM     21  C   UNL     1      -3.469  -2.326  -2.575  0.00  0.00    +0.244 C 
ATOM     22  O   UNL     1      -3.051  -1.880  -3.626  0.00  0.00    -0.270 OA
ATOM     23  N   UNL     1      -2.859  -2.005  -1.417  0.00  0.00    -0.311 N 
ATOM     24  H   UNL     1      -3.192  -2.362  -0.578  0.00  0.00    +0.149 HD
BRANCH  23  25
ATOM     25  C   UNL     1      -1.694  -1.118  -1.424  0.00  0.00    +0.109 C 
BRANCH  25  26
ATOM     26  C   UNL     1      -1.197  -0.917   0.009  0.00  0.00    +0.056 C 
BRANCH  26  27
ATOM     27  C   UNL     1       0.002  -0.004   0.002  0.00  0.00    -0.021 A 
ATOM     28  C   UNL     1       1.291  -0.379  -0.012  0.00  0.00    +0.087 A 
ATOM     29  N   UNL     1       2.098   0.726  -0.014  0.00  0.00    -0.360 N 
ATOM     30  H   UNL     1       3.068   0.707  -0.023  0.00  0.00    +0.165 HD
ATOM     31  C   UNL     1       1.329   1.868  -0.001  0.00  0.00    +0.047 A 
ATOM     32  C   UNL     1      -0.018   1.461   0.010  0.00  0.00    +0.003 A 
ATOM     33  C   UNL     1      -1.034   2.417   0.030  0.00  0.00    +0.010 A 
ATOM     34  C   UNL     1      -0.716   3.746   0.030  0.00  0.00    +0.001 A 
ATOM     35  C   UNL     1       0.611   4.153   0.019  0.00  0.00    +0.002 A 
ATOM     36  C   UNL     1       1.631   3.225   0.004  0.00  0.00    +0.026 A 
ENDBRANCH  26  27
ENDBRANCH  25  26
ENDBRANCH  23  25
ENDBRANCH   7  21
TORSDOF 6
