REMARK  Name = ZINC02261909
REMARK  12 active torsions:
REMARK  status: ('A' for Active; 'I' for Inactive)
REMARK    1  A    between atoms: C_1  and  C_2
REMARK    2  A    between atoms: C_2  and  O_3
REMARK    3  A    between atoms: O_3  and  C_4
REMARK    4  A    between atoms: N_6  and  C_7
REMARK    5  A    between atoms: C_7  and  C_8
REMARK    6  A    between atoms: C_7  and  C_12
REMARK    7  A    between atoms: C_7  and  N_16
REMARK    8  A    between atoms: N_16  and  C_17
REMARK    9  A    between atoms: C_18  and  C_27
REMARK   10  A    between atoms: N_23  and  C_26
REMARK   11  A    between atoms: C_27  and  O_29
REMARK   12  A    between atoms: O_29  and  C_30
REMARK                            x       y       z     vdW  Elec       q    Type
REMARK                         _______ _______ _______ _____ _____    ______ ____
ROOT
ATOM      1  N   UNL     1       2.355  -4.306   3.817  0.00  0.00    -0.303 N 
ATOM      2  H   UNL     1       2.621  -3.665   4.495  0.00  0.00    +0.149 HD
ENDROOT
BRANCH   1   3
ATOM      3  C   UNL     1       2.704  -5.636   3.951  0.00  0.00    +0.082 A 
ATOM      4  C   UNL     1       3.338  -6.250   5.024  0.00  0.00    +0.090 A 
ATOM      5  C   UNL     1       3.593  -7.674   4.913  0.00  0.00    -0.025 A 
ATOM      6  C   UNL     1       3.170  -8.226   3.754  0.00  0.00    -0.021 A 
ATOM      7  S   UNL     1       2.451  -6.885   2.856  0.00  0.00    -0.080 S 
ATOM      8  C   UNL     1       3.301  -9.664   3.361  0.00  0.00    -0.036 C 
ATOM      9  N   UNL     1       4.289 -10.299   4.252  0.00  0.00    +0.381 N 
ATOM     10  C   UNL     1       3.955 -10.002   5.651  0.00  0.00    -0.074 C 
ATOM     11  C   UNL     1       4.268  -8.537   5.970  0.00  0.00    +0.018 C 
ATOM     12  C   UNL     1       4.273 -11.753   4.043  0.00  0.00    -0.096 C 
ATOM     13  H   UNL     1       5.209  -9.941   4.043  0.00  0.00    -0.082 HD
BRANCH   4  14
ATOM     14  C   UNL     1       3.733  -5.494   6.212  0.00  0.00    +0.342 C 
ATOM     15  O   UNL     1       2.961  -5.381   7.145  0.00  0.00    -0.245 OA
BRANCH  14  16
ATOM     16  O   UNL     1       4.953  -4.921   6.273  0.00  0.00    -0.464 OA
ATOM     17  C   UNL     1       5.272  -4.198   7.463  0.00  0.00    +0.280 C 
ENDBRANCH  14  16
ENDBRANCH   4  14
ENDBRANCH   1   3
BRANCH   1  18
ATOM     18  C   UNL     1       1.585  -3.864   2.652  0.00  0.00    +0.296 C 
BRANCH  18  21
ATOM     19  C   UNL     1       3.483  -4.481   1.255  0.00  0.00    +0.402 C 
ATOM     20  O   UNL     1       4.215  -3.932   2.055  0.00  0.00    -0.226 OA
ATOM     21  N   UNL     1       2.148  -4.461   1.439  0.00  0.00    -0.245 N 
ATOM     22  H   UNL     1       1.560  -4.842   0.768  0.00  0.00    +0.155 HD
BRANCH  19  23
ATOM     23  O   UNL     1       4.006  -5.109   0.185  0.00  0.00    -0.451 OA
BRANCH  23  25
ATOM     24  C   UNL     1       5.834  -5.849  -1.212  0.00  0.00    +0.048 C 
ATOM     25  C   UNL     1       5.429  -5.091   0.053  0.00  0.00    +0.230 C 
ENDBRANCH  23  25
ENDBRANCH  19  23
ENDBRANCH  18  21
BRANCH  18  26
ATOM     26  C   UNL     1       1.649  -2.339   2.548  0.00  0.00    +0.436 C 
ATOM     27  F   UNL     1       0.833  -1.909   1.496  0.00  0.00    -0.166 F 
ATOM     28  F   UNL     1       1.203  -1.770   3.746  0.00  0.00    -0.166 F 
ATOM     29  F   UNL     1       2.968  -1.943   2.306  0.00  0.00    -0.166 F 
ENDBRANCH  18  26
BRANCH  18  30
ATOM     30  C   UNL     1       0.128  -4.304   2.808  0.00  0.00    +0.436 C 
ATOM     31  F   UNL     1       0.058  -5.701   2.792  0.00  0.00    -0.166 F 
ATOM     32  F   UNL     1      -0.377  -3.826   4.022  0.00  0.00    -0.166 F 
ATOM     33  F   UNL     1      -0.631  -3.787   1.752  0.00  0.00    -0.166 F 
ENDBRANCH  18  30
ENDBRANCH   1  18
TORSDOF 9
