REMARK  Name = ZINC33254388
REMARK  3 active torsions:
REMARK  status: ('A' for Active; 'I' for Inactive)
REMARK    1  A    between atoms: C_8  and  C_10
REMARK    2  A    between atoms: C_13  and  C_16
REMARK    3  A    between atoms: C_18  and  C_21
REMARK                            x       y       z     vdW  Elec       q    Type
REMARK                         _______ _______ _______ _____ _____    ______ ____
ROOT
ATOM      1  C   UNL     1      -1.021   7.371  -0.161  0.00  0.00    +0.037 A 
ATOM      2  C   UNL     1       0.210   8.031  -0.164  0.00  0.00    +0.014 A 
ATOM      3  C   UNL     1       0.255   9.404  -0.267  0.00  0.00    +0.012 A 
ATOM      4  C   UNL     1      -0.929  10.136  -0.357  0.00  0.00    +0.022 A 
ATOM      5  C   UNL     1      -2.159   9.479  -0.348  0.00  0.00    +0.012 A 
ATOM      6  C   UNL     1      -2.206   8.105  -0.252  0.00  0.00    +0.014 A 
ENDROOT
BRANCH   1  14
ATOM      7  C   UNL     1       1.166   1.692   0.001  0.00  0.00    +0.005 A 
ATOM      8  C   UNL     1      -0.079   1.078   0.003  0.00  0.00    +0.020 A 
ATOM      9  C   UNL     1      -1.218   1.859   0.019  0.00  0.00    +0.113 A 
ATOM     10  N   UNL     1      -1.135   3.175   0.027  0.00  0.00    -0.240 NA
ATOM     11  C   UNL     1       0.033   3.798   0.020  0.00  0.00    +0.125 A 
ATOM     12  C   UNL     1       1.221   3.074   0.004  0.00  0.00    +0.044 A 
ATOM     13  N   UNL     1       0.074   5.190   0.029  0.00  0.00    -0.266 N 
ATOM     14  C   UNL     1      -1.070   5.898  -0.058  0.00  0.00    +0.249 C 
ATOM     15  O   UNL     1      -2.142   5.325  -0.051  0.00  0.00    -0.270 OA
ATOM     16  H   UNL     1       1.039   5.712   0.108  0.00  0.00    +0.157 HD
ENDBRANCH   1  14
BRANCH   4  17
ATOM     17  C   UNL     1      -0.879  11.615  -0.462  0.00  0.00    +0.202 A 
ATOM     18  N   UNL     1       0.234  12.382  -0.476  0.00  0.00    -0.191 NA
ATOM     19  C   UNL     1      -0.190  13.617  -0.584  0.00  0.00    +0.231 A 
ATOM     20  O   UNL     1      -1.526  13.572  -0.622  0.00  0.00    -0.337 OA
ATOM     21  N   UNL     1      -1.905  12.422  -0.551  0.00  0.00    -0.056 NA
BRANCH  19  22
ATOM     22  C   UNL     1       0.666  14.855  -0.646  0.00  0.00    +0.078 C 
ATOM     23  C   UNL     1       0.281  15.820   0.495  0.00  0.00    +0.013 C 
ATOM     24  C   UNL     1       0.409  17.228  -0.140  0.00  0.00    +0.001 C 
ATOM     25  C   UNL     1      -0.121  17.004  -1.578  0.00  0.00    +0.001 C 
ATOM     26  C   UNL     1       0.410  15.608  -1.963  0.00  0.00    +0.013 C 
ENDBRANCH  19  22
ENDBRANCH   4  17
TORSDOF 3
