REMARK  Name = ZINC05284669
REMARK  7 active torsions:
REMARK  status: ('A' for Active; 'I' for Inactive)
REMARK    1  A    between atoms: C_1  and  C_2
REMARK    2  A    between atoms: C_2  and  C_3
REMARK    3  A    between atoms: C_2  and  C_4
REMARK    4  A    between atoms: C_4  and  C_5
REMARK    5  A    between atoms: C_8  and  C_11
REMARK    6  A    between atoms: C_16  and  C_20
REMARK    7  A    between atoms: C_16  and  C_21
REMARK                            x       y       z     vdW  Elec       q    Type
REMARK                         _______ _______ _______ _____ _____    ______ ____
ROOT
ATOM      1  C   UNL     1      -5.989  -0.797   1.549  0.00  0.00    +0.136 C 
ATOM      2  C   UNL     1      -6.322  -1.383   0.198  0.00  0.00    +0.036 C 
ATOM      3  C   UNL     1      -7.240  -0.909  -0.662  0.00  0.00    +0.017 C 
ATOM      4  C   UNL     1      -7.482  -1.603  -1.992  0.00  0.00    +0.058 C 
ATOM      5  C   UNL     1      -6.186  -2.237  -2.494  0.00  0.00    -0.023 C 
ATOM      6  C   UNL     1      -5.722  -3.248  -1.438  0.00  0.00    +0.086 C 
ATOM      7  C   UNL     1      -5.563  -2.531  -0.131  0.00  0.00    +0.163 C 
ATOM      8  O   UNL     1      -4.754  -2.950   0.673  0.00  0.00    -0.292 OA
ATOM      9  C   UNL     1      -5.119  -1.157  -2.683  0.00  0.00    +0.011 C 
ATOM     10  C   UNL     1      -6.439  -2.954  -3.822  0.00  0.00    +0.011 C 
ATOM     11  N   UNL     1      -8.021   0.178  -0.437  0.00  0.00    -0.316 N 
ATOM     12  C   UNL     1      -7.566   1.398   0.049  0.00  0.00    +0.052 A 
ATOM     13  C   UNL     1      -7.608   2.558  -0.704  0.00  0.00    +0.025 A 
ATOM     14  C   UNL     1      -7.182   3.749  -0.140  0.00  0.00    +0.002 A 
ATOM     15  C   UNL     1      -6.722   3.778   1.164  0.00  0.00    +0.002 A 
ATOM     16  C   UNL     1      -6.662   2.615   1.912  0.00  0.00    +0.025 A 
ATOM     17  C   UNL     1      -7.067   1.419   1.343  0.00  0.00    +0.049 A 
ATOM     18  N   UNL     1      -6.920   0.207   2.017  0.00  0.00    -0.331 N 
ATOM     19  H   UNL     1      -8.968   0.098  -0.631  0.00  0.00    +0.152 HD
ATOM     20  H   UNL     1      -7.451   0.034   2.810  0.00  0.00    +0.147 HD
ENDROOT
BRANCH   1  24
ATOM     21  C   UNL     1      -2.100   0.958   1.339  0.00  0.00    -0.047 A 
ATOM     22  C   UNL     1      -2.329  -0.116   2.178  0.00  0.00    +0.004 A 
ATOM     23  C   UNL     1      -3.589  -0.681   2.250  0.00  0.00    +0.006 A 
ATOM     24  C   UNL     1      -4.617  -0.178   1.475  0.00  0.00    -0.023 A 
ATOM     25  C   UNL     1      -4.387   0.893   0.632  0.00  0.00    +0.006 A 
ATOM     26  C   UNL     1      -3.128   1.461   0.564  0.00  0.00    +0.004 A 
BRANCH  21  27
ATOM     27  C   UNL     1      -0.728   1.577   1.264  0.00  0.00    +0.038 C 
BRANCH  27  29
ATOM     28  C   UNL     1       0.729   3.408   2.140  0.00  0.00    +0.007 C 
ATOM     29  C   UNL     1      -0.617   2.698   2.299  0.00  0.00    -0.013 C 
ATOM     30  C   UNL     1      -0.717   2.105   3.706  0.00  0.00    +0.007 C 
ENDBRANCH  27  29
ENDBRANCH  21  27
ENDBRANCH   1  24
TORSDOF 3
