REMARK  Name = ZINC06409846
REMARK  9 active torsions:
REMARK  status: ('A' for Active; 'I' for Inactive)
REMARK    1  A    between atoms: C_1  and  C_2
REMARK    2  A    between atoms: C_7  and  C_14
REMARK    3  A    between atoms: C_14  and  C_16
REMARK    4  A    between atoms: C_14  and  N_71
REMARK    5  A    between atoms: N_20  and  C_21
REMARK    6  A    between atoms: C_27  and  C_28
REMARK    7  A    between atoms: C_27  and  N_71
REMARK    8  A    between atoms: C_33  and  C_34
REMARK    9  A    between atoms: C_33  and  N_71
REMARK                            x       y       z     vdW  Elec       q    Type
REMARK                         _______ _______ _______ _____ _____    ______ ____
ROOT
ATOM      1  C   UNL     1      -1.905   4.075   7.623  0.00  0.00    +0.039 C 
ENDROOT
BRANCH   1   8
ATOM      2  C   UNL     1       3.811   1.916   2.496  0.00  0.00    +0.044 C 
ATOM      3  C   UNL     1       2.584   2.296   3.285  0.00  0.00    -0.048 A 
ATOM      4  C   UNL     1       1.343   2.307   2.663  0.00  0.00    +0.004 A 
ATOM      5  C   UNL     1       0.218   2.643   3.361  0.00  0.00    +0.010 A 
ATOM      6  C   UNL     1       0.319   2.990   4.713  0.00  0.00    -0.001 A 
ATOM      7  C   UNL     1      -0.865   3.361   5.489  0.00  0.00    +0.017 A 
ATOM      8  C   UNL     1      -0.707   3.688   6.795  0.00  0.00    +0.011 A 
ATOM      9  C   UNL     1       0.576   3.669   7.383  0.00  0.00    +0.251 A 
ATOM     10  O   UNL     1       0.697   3.967   8.558  0.00  0.00    -0.268 OA
ATOM     11  N   UNL     1       1.670   3.330   6.677  0.00  0.00    -0.322 N 
ATOM     12  H   UNL     1       2.537   3.326   7.112  0.00  0.00    +0.169 HD
ATOM     13  C   UNL     1       1.576   2.986   5.346  0.00  0.00    +0.049 A 
ATOM     14  C   UNL     1       2.707   2.635   4.615  0.00  0.00    +0.029 A 
ENDBRANCH   1   8
BRANCH   1  15
ATOM     15  C   UNL     1      -2.088   3.079   8.739  0.00  0.00    +0.143 A 
ATOM     16  N   UNL     1      -1.210   2.768   9.662  0.00  0.00    -0.115 NA
ATOM     17  N   UNL     1      -1.740   1.881  10.432  0.00  0.00    -0.023 NA
ATOM     18  N   UNL     1      -2.930   1.613  10.020  0.00  0.00    -0.044 NA
ATOM     19  N   UNL     1      -3.181   2.331   8.978  0.00  0.00    -0.227 N 
BRANCH  19  20
ATOM     20  C   UNL     1      -4.423   2.333   8.201  0.00  0.00    +0.111 C 
ATOM     21  C   UNL     1      -5.568   2.854   9.072  0.00  0.00    +0.027 C 
ATOM     22  C   UNL     1      -6.866   2.856   8.261  0.00  0.00    +0.002 C 
ATOM     23  C   UNL     1      -7.182   1.431   7.802  0.00  0.00    +0.000 C 
ATOM     24  C   UNL     1      -6.037   0.910   6.931  0.00  0.00    +0.002 C 
ATOM     25  C   UNL     1      -4.740   0.908   7.742  0.00  0.00    +0.027 C 
ENDBRANCH  19  20
ENDBRANCH   1  15
BRANCH   1  26
ATOM     26  N   UNL     1      -1.671   5.414   8.204  0.00  0.00    +0.396 N 
ATOM     27  H   UNL     1      -0.758   5.419   8.674  0.00  0.00    -0.080 HD
BRANCH  26  28
ATOM     28  C   UNL     1      -1.668   6.435   7.136  0.00  0.00    -0.002 C 
BRANCH  28  29
ATOM     29  C   UNL     1      -0.330   6.403   6.442  0.00  0.00    +0.089 A 
ATOM     30  C   UNL     1      -0.125   6.126   5.142  0.00  0.00    +0.042 A 
ATOM     31  C   UNL     1       1.269   6.207   4.922  0.00  0.00    +0.041 A 
ATOM     32  C   UNL     1       1.832   6.528   6.100  0.00  0.00    +0.195 A 
ATOM     33  O   UNL     1       0.858   6.651   7.016  0.00  0.00    -0.470 OA
ENDBRANCH  28  29
ENDBRANCH  26  28
BRANCH  26  34
ATOM     34  C   UNL     1      -2.722   5.724   9.197  0.00  0.00    -0.045 C 
BRANCH  34  35
ATOM     35  C   UNL     1      -2.240   5.267  10.575  0.00  0.00    +0.102 C 
ATOM     36  C   UNL     1      -3.287   5.621  11.655  0.00  0.00    +0.032 C 
ATOM     37  C   UNL     1      -2.438   6.027  12.881  0.00  0.00    +0.030 C 
ATOM     38  C   UNL     1      -0.979   5.870  12.396  0.00  0.00    +0.160 C 
ATOM     39  O   UNL     1      -1.053   5.993  10.959  0.00  0.00    -0.378 OA
ENDBRANCH  34  35
ENDBRANCH  26  34
ENDBRANCH   1  26
TORSDOF 8
