REMARK  Name = ZINC09695168
REMARK  18 active torsions:
REMARK  status: ('A' for Active; 'I' for Inactive)
REMARK    1  A    between atoms: C_1  and  C_2
REMARK    2  A    between atoms: C_2  and  C_3
REMARK    3  A    between atoms: C_3  and  C_4
REMARK    4  A    between atoms: C_4  and  O_5
REMARK    5  A    between atoms: O_5  and  C_6
REMARK    6  A    between atoms: C_6  and  C_8
REMARK    7  A    between atoms: C_9  and  N_37
REMARK    8  A    between atoms: C_11  and  C_31
REMARK    9  A    between atoms: C_12  and  C_26
REMARK   10  A    between atoms: N_20  and  C_23
REMARK   11  A    between atoms: C_23  and  C_24
REMARK   12  A    between atoms: C_26  and  O_28
REMARK   13  A    between atoms: O_28  and  C_29
REMARK   14  A    between atoms: C_29  and  C_30
REMARK   15  A    between atoms: C_31  and  C_32
REMARK   16  A    between atoms: C_32  and  O_34
REMARK   17  A    between atoms: O_34  and  C_35
REMARK   18  A    between atoms: C_35  and  C_36
REMARK                            x       y       z     vdW  Elec       q    Type
REMARK                         _______ _______ _______ _____ _____    ______ ____
ROOT
ATOM      1  C   UNL     1       1.877   2.615   1.256  0.00  0.00    +0.117 C 
ATOM      2  C   UNL     1       2.817   3.576   1.056  0.00  0.00    +0.195 C 
ATOM      3  O   UNL     1       3.426   3.732  -0.131  0.00  0.00    -0.445 OA
ATOM      4  C   UNL     1       2.880   3.200  -1.234  0.00  0.00    +0.129 C 
ATOM      5  C   UNL     1       1.956   2.231  -1.179  0.00  0.00    +0.099 C 
ATOM      6  C   UNL     1       1.483   1.691   0.139  0.00  0.00    +0.145 C 
ATOM      7  C   UNL     1       2.037   0.309   0.376  0.00  0.00    -0.002 A 
ATOM      8  C   UNL     1       3.317  -0.184   0.493  0.00  0.00    +0.007 A 
ATOM      9  C   UNL     1       3.520  -1.535   0.715  0.00  0.00    +0.000 A 
ATOM     10  C   UNL     1       2.435  -2.386   0.818  0.00  0.00    +0.002 A 
ATOM     11  C   UNL     1       1.151  -1.895   0.700  0.00  0.00    +0.024 A 
ATOM     12  C   UNL     1       0.938  -0.537   0.476  0.00  0.00    +0.041 A 
ATOM     13  N   UNL     1      -0.244   0.188   0.323  0.00  0.00    -0.266 N 
ATOM     14  C   UNL     1      -0.015   1.498   0.121  0.00  0.00    +0.240 C 
ATOM     15  O   UNL     1      -0.852   2.360  -0.048  0.00  0.00    -0.274 OA
ENDROOT
BRANCH   2  16
ATOM     16  N   UNL     1       3.152   4.406   2.092  0.00  0.00    -0.329 N 
ATOM     17  H   UNL     1       3.763   5.145   1.943  0.00  0.00    +0.145 HD
ATOM     18  H   UNL     1       2.778   4.256   2.974  0.00  0.00    +0.145 HD
ENDBRANCH   2  16
BRANCH   1  19
ATOM     19  C   UNL     1       1.269   2.485   2.515  0.00  0.00    +0.342 C 
ATOM     20  O   UNL     1       1.621   1.598   3.272  0.00  0.00    -0.245 OA
BRANCH  19  21
ATOM     21  O   UNL     1       0.294   3.343   2.886  0.00  0.00    -0.461 OA
BRANCH  21  22
ATOM     22  C   UNL     1      -0.280   3.152   4.180  0.00  0.00    +0.232 C 
BRANCH  22  23
ATOM     23  C   UNL     1      -1.358   4.210   4.421  0.00  0.00    +0.041 C 
BRANCH  23  25
ATOM     24  C   UNL     1      -3.050   5.064   6.049  0.00  0.00    +0.004 C 
ATOM     25  C   UNL     1      -1.972   4.006   5.808  0.00  0.00    -0.000 C 
ENDBRANCH  23  25
ENDBRANCH  22  23
ENDBRANCH  21  22
ENDBRANCH  19  21
ENDBRANCH   1  19
BRANCH   5  26
ATOM     26  C   UNL     1       1.419   1.708  -2.382  0.00  0.00    +0.340 C 
ATOM     27  O   UNL     1       1.823   0.647  -2.818  0.00  0.00    -0.245 OA
BRANCH  26  28
ATOM     28  O   UNL     1       0.459   2.388  -3.043  0.00  0.00    -0.462 OA
BRANCH  28  29
ATOM     29  C   UNL     1      -0.115   1.752  -4.187  0.00  0.00    +0.229 C 
ATOM     30  C   UNL     1      -1.258   2.613  -4.729  0.00  0.00    +0.048 C 
ENDBRANCH  28  29
ENDBRANCH  26  28
ENDBRANCH   5  26
BRANCH  13  31
ATOM     31  C   UNL     1      -1.581  -0.408   0.376  0.00  0.00    +0.140 C 
BRANCH  31  32
ATOM     32  C   UNL     1      -2.041  -0.736  -1.021  0.00  0.00    -0.015 C 
ATOM     33  C   UNL     1      -2.402  -1.959  -1.322  0.00  0.00    +0.005 C 
ENDBRANCH  31  32
ENDBRANCH  13  31
BRANCH   4  34
ATOM     34  C   UNL     1       3.320   3.711  -2.582  0.00  0.00    +0.195 C 
BRANCH  34  35
ATOM     35  C   UNL     1       2.558   4.968  -2.916  0.00  0.00    +0.314 C 
ATOM     36  O   UNL     1       1.742   5.404  -2.139  0.00  0.00    -0.250 OA
BRANCH  35  37
ATOM     37  O   UNL     1       2.786   5.603  -4.077  0.00  0.00    -0.465 OA
BRANCH  37  38
ATOM     38  C   UNL     1       2.017   6.807  -4.332  0.00  0.00    +0.229 C 
ATOM     39  C   UNL     1       2.411   7.386  -5.692  0.00  0.00    +0.048 C 
ENDBRANCH  37  38
ENDBRANCH  35  37
ENDBRANCH  34  35
ENDBRANCH   4  34
TORSDOF 15
