REMARK  Name = ZINC59022331
REMARK  9 active torsions:
REMARK  status: ('A' for Active; 'I' for Inactive)
REMARK    1  A    between atoms: C_1  and  C_2
REMARK    2  A    between atoms: C_5  and  C_32
REMARK    3  A    between atoms: C_6  and  N_8
REMARK    4  A    between atoms: C_9  and  C_11
REMARK    5  A    between atoms: C_11  and  S_12
REMARK    6  A    between atoms: S_12  and  C_13
REMARK    7  A    between atoms: N_18  and  N_19
REMARK    8  A    between atoms: C_20  and  C_21
REMARK    9  A    between atoms: C_20  and  C_22
REMARK                            x       y       z     vdW  Elec       q    Type
REMARK                         _______ _______ _______ _____ _____    ______ ____
ROOT
ATOM      1  C   UNL     1       0.592  -2.770   7.652  0.00  0.00    +0.211 A 
ATOM      2  N   UNL     1       0.682  -2.347   8.917  0.00  0.00    -0.186 NA
ATOM      3  C   UNL     1       0.768  -3.382   9.725  0.00  0.00    +0.232 A 
ATOM      4  N   UNL     1       0.732  -4.503   8.973  0.00  0.00    -0.245 N 
ATOM      5  N   UNL     1       0.613  -4.082   7.638  0.00  0.00    -0.144 NA
ATOM      6  N   UNL     1       0.876  -3.331  11.103  0.00  0.00    -0.205 N 
ATOM      7  H   UNL     1       0.934  -4.153  11.616  0.00  0.00    +0.177 HD
ATOM      8  H   UNL     1       0.776  -5.418   9.291  0.00  0.00    +0.192 HD
ENDROOT
BRANCH   6   9
ATOM      9  N   UNL     1       0.902  -2.093  11.758  0.00  0.00    -0.184 NA
ATOM     10  C   UNL     1       1.103  -2.041  13.040  0.00  0.00    +0.063 C 
ATOM     11  C   UNL     1       1.240  -0.707  13.728  0.00  0.00    +0.068 C 
BRANCH  10  12
ATOM     12  C   UNL     1       1.196  -3.287  13.822  0.00  0.00    -0.002 A 
ATOM     13  C   UNL     1       2.257  -4.182  13.588  0.00  0.00    +0.010 A 
ATOM     14  C   UNL     1       2.363  -5.335  14.296  0.00  0.00    +0.009 A 
ATOM     15  C   UNL     1       1.406  -5.649  15.279  0.00  0.00    -0.018 A 
ATOM     16  C   UNL     1       1.496  -6.837  16.024  0.00  0.00    +0.008 A 
ATOM     17  C   UNL     1       0.556  -7.114  16.968  0.00  0.00    +0.001 A 
ATOM     18  C   UNL     1      -0.499  -6.236  17.210  0.00  0.00    +0.001 A 
ATOM     19  C   UNL     1      -0.620  -5.077  16.509  0.00  0.00    +0.008 A 
ATOM     20  C   UNL     1       0.333  -4.756  15.525  0.00  0.00    -0.017 A 
ATOM     21  C   UNL     1       0.241  -3.566  14.788  0.00  0.00    +0.018 A 
ENDBRANCH  10  12
ENDBRANCH   6   9
BRANCH   1  22
ATOM     22  S   UNL     1       0.457  -1.734   6.232  0.00  0.00    -0.075 S 
BRANCH  22  23
ATOM     23  C   UNL     1       0.364  -2.900   4.846  0.00  0.00    +0.173 C 
BRANCH  23  25
ATOM     24  N   UNL     1       0.160  -2.797   2.383  0.00  0.00    -0.285 N 
ATOM     25  C   UNL     1       0.244  -2.135   3.553  0.00  0.00    +0.227 C 
ATOM     26  O   UNL     1       0.224  -0.922   3.566  0.00  0.00    -0.275 OA
ATOM     27  H   UNL     1       0.092  -3.765   2.377  0.00  0.00    +0.155 HD
BRANCH  24  33
ATOM     28  C   UNL     1       1.401   1.228  -0.153  0.00  0.00    +0.044 C 
ATOM     29  C   UNL     1       0.765  -0.136  -0.082  0.00  0.00    -0.049 A 
ATOM     30  C   UNL     1       0.190  -0.690  -1.211  0.00  0.00    +0.004 A 
ATOM     31  C   UNL     1      -0.395  -1.941  -1.150  0.00  0.00    +0.005 A 
ATOM     32  C   UNL     1      -0.406  -2.643   0.040  0.00  0.00    -0.029 A 
ATOM     33  C   UNL     1       0.170  -2.090   1.175  0.00  0.00    +0.037 A 
ATOM     34  C   UNL     1       0.761  -0.834   1.110  0.00  0.00    +0.027 A 
ATOM     35  C   UNL     1      -1.044  -4.007   0.105  0.00  0.00    +0.045 C 
ENDBRANCH  24  33
ENDBRANCH  23  25
ENDBRANCH  22  23
ENDBRANCH   1  22
TORSDOF 6
