REMARK  Name = ZINC63660586
REMARK  10 active torsions:
REMARK  status: ('A' for Active; 'I' for Inactive)
REMARK    1  A    between atoms: C_1  and  C_2
REMARK    2  A    between atoms: C_5  and  C_9
REMARK    3  A    between atoms: C_6  and  C_8
REMARK    4  A    between atoms: C_11  and  C_25
REMARK    5  A    between atoms: C_12  and  C_14
REMARK    6  A    between atoms: N_16  and  N_17
REMARK    7  A    between atoms: N_20  and  C_21
REMARK    8  A    between atoms: C_21  and  C_22
REMARK    9  A    between atoms: C_22  and  C_23
REMARK   10  A    between atoms: C_22  and  C_24
REMARK                            x       y       z     vdW  Elec       q    Type
REMARK                         _______ _______ _______ _____ _____    ______ ____
ROOT
ATOM      1  C   UNL     1      -0.335  -4.216  -0.274  0.00  0.00    +0.109 A 
ATOM      2  N   UNL     1      -0.425  -4.928  -1.385  0.00  0.00    -0.243 NA
ATOM      3  C   UNL     1      -0.588  -6.224  -1.355  0.00  0.00    +0.058 A 
ATOM      4  C   UNL     1      -0.659  -6.808  -0.096  0.00  0.00    +0.098 A 
ATOM      5  S   UNL     1      -0.470  -5.369   0.945  0.00  0.00    -0.062 S 
ATOM      6  C   UNL     1      -0.692  -7.042  -2.616  0.00  0.00    +0.067 C 
ENDROOT
BRANCH   1  11
ATOM      7  C   UNL     1       0.380   1.468   0.265  0.00  0.00    +0.044 C 
ATOM      8  C   UNL     1       0.193  -0.021   0.124  0.00  0.00    -0.050 A 
ATOM      9  C   UNL     1      -0.768  -0.669   0.880  0.00  0.00    +0.004 A 
ATOM     10  C   UNL     1      -0.944  -2.031   0.756  0.00  0.00    +0.011 A 
ATOM     11  C   UNL     1      -0.151  -2.756  -0.136  0.00  0.00    +0.010 A 
ATOM     12  C   UNL     1       0.816  -2.096  -0.896  0.00  0.00    -0.041 A 
ATOM     13  C   UNL     1       0.978  -0.732  -0.765  0.00  0.00    +0.007 A 
ATOM     14  C   UNL     1       1.676  -2.871  -1.860  0.00  0.00    +0.044 C 
ENDBRANCH   1  11
BRANCH   4  15
ATOM     15  C   UNL     1      -0.834  -8.215   0.276  0.00  0.00    +0.269 C 
ATOM     16  O   UNL     1      -0.942  -9.064  -0.590  0.00  0.00    -0.268 OA
ATOM     17  N   UNL     1      -0.877  -8.569   1.575  0.00  0.00    -0.229 N 
ATOM     18  H   UNL     1      -0.791  -7.893   2.265  0.00  0.00    +0.173 HD
BRANCH  17  19
ATOM     19  N   UNL     1      -1.044  -9.914   1.930  0.00  0.00    -0.218 N 
ATOM     20  C   UNL     1      -1.087 -10.268   3.230  0.00  0.00    +0.316 C 
ATOM     21  O   UNL     1      -1.232 -11.435   3.538  0.00  0.00    -0.251 OA
ATOM     22  N   UNL     1      -0.968  -9.328   4.188  0.00  0.00    -0.298 N 
ATOM     23  H   UNL     1      -1.130 -10.591   1.240  0.00  0.00    +0.174 HD
ATOM     24  H   UNL     1      -0.852  -8.397   3.943  0.00  0.00    +0.150 HD
BRANCH  22  25
ATOM     25  C   UNL     1      -1.014  -9.713   5.601  0.00  0.00    +0.108 C 
BRANCH  25  26
ATOM     26  C   UNL     1      -0.857  -8.466   6.474  0.00  0.00    -0.000 C 
ATOM     27  C   UNL     1      -2.059  -7.543   6.267  0.00  0.00    +0.009 C 
ATOM     28  C   UNL     1      -0.779  -8.880   7.945  0.00  0.00    +0.009 C 
ENDBRANCH  25  26
ENDBRANCH  22  25
ENDBRANCH  17  19
ENDBRANCH   4  15
TORSDOF 5
