REMARK  Name = ZINC05954002
REMARK  3 active torsions:
REMARK  status: ('A' for Active; 'I' for Inactive)
REMARK    1  A    between atoms: C_1  and  C_2
REMARK    2  A    between atoms: C_2  and  C_3
REMARK    3  A    between atoms: C_3  and  C_18
REMARK                            x       y       z     vdW  Elec       q    Type
REMARK                         _______ _______ _______ _____ _____    ______ ____
ROOT
ATOM      1  C   UNL     1       4.263   8.244   0.010  0.00  0.00    +0.126 C 
ATOM      2  N   UNL     1       5.204   7.112  -0.004  0.00  0.00    -0.302 N 
ATOM      3  C   UNL     1       4.462   5.989   0.001  0.00  0.00    +0.155 C 
ATOM      4  S   UNL     1       5.114   4.406  -0.006  0.00  0.00    -0.017 S 
ATOM      5  N   UNL     1       3.151   6.262   0.008  0.00  0.00    -0.191 N 
ATOM      6  N   UNL     1       2.930   7.610   0.018  0.00  0.00    -0.205 NA
ATOM      7  C   UNL     1       2.151   5.304   0.011  0.00  0.00    +0.182 A 
ATOM      8  N   UNL     1       2.264   3.997   0.003  0.00  0.00    -0.223 NA
ATOM      9  C   UNL     1       1.191   3.176   0.008  0.00  0.00    +0.080 A 
ATOM     10  C   UNL     1       1.174   1.762   0.000  0.00  0.00    +0.029 A 
ATOM     11  C   UNL     1      -0.013   1.076   0.008  0.00  0.00    +0.002 A 
ATOM     12  C   UNL     1      -1.232   1.737   0.017  0.00  0.00    +0.001 A 
ATOM     13  C   UNL     1      -1.253   3.120   0.030  0.00  0.00    +0.017 A 
ATOM     14  C   UNL     1      -0.069   3.815   0.023  0.00  0.00    +0.041 A 
ATOM     15  S   UNL     1       0.379   5.534   0.028  0.00  0.00    -0.051 S 
ATOM     16  H   UNL     1       6.172   7.165  -0.011  0.00  0.00    +0.150 HD
ATOM     17  H   UNL     1       2.390   7.894  -0.786  0.00  0.00    +0.148 HD
ENDROOT
BRANCH   1  18
ATOM     18  C   UNL     1       4.457   9.078   1.250  0.00  0.00    -0.008 A 
ATOM     19  C   UNL     1       3.372   9.691   1.848  0.00  0.00    +0.007 A 
ATOM     20  C   UNL     1       3.549  10.453   2.988  0.00  0.00    +0.000 A 
ATOM     21  C   UNL     1       4.813  10.609   3.525  0.00  0.00    +0.000 A 
ATOM     22  C   UNL     1       5.899  10.000   2.925  0.00  0.00    +0.000 A 
ATOM     23  C   UNL     1       5.721   9.235   1.787  0.00  0.00    +0.007 A 
ENDBRANCH   1  18
BRANCH   1  25
ATOM     24  C   UNL     1       4.284   8.226  -2.488  0.00  0.00    +0.008 C 
ATOM     25  C   UNL     1       4.441   9.103  -1.244  0.00  0.00    +0.045 C 
ENDBRANCH   1  25
TORSDOF 2
