REMARK  Name = ZINC21689990
REMARK  5 active torsions:
REMARK  status: ('A' for Active; 'I' for Inactive)
REMARK    1  A    between atoms: C_6  and  N_7
REMARK    2  A    between atoms: C_13  and  C_15
REMARK    3  A    between atoms: C_15  and  C_16
REMARK    4  A    between atoms: C_16  and  C_17
REMARK    5  A    between atoms: C_23  and  C_25
REMARK                            x       y       z     vdW  Elec       q    Type
REMARK                         _______ _______ _______ _____ _____    ______ ____
ROOT
ATOM      1  C   UNL     1      -5.945  -4.614  -1.239  0.00  0.00    +0.065 C 
ENDROOT
BRANCH   1   2
ATOM      2  C   UNL     1      -5.927  -6.117  -1.355  0.00  0.00    +0.051 A 
ATOM      3  C   UNL     1      -6.535  -6.905  -0.436  0.00  0.00    +0.071 A 
ATOM      4  S   UNL     1      -6.178  -8.525  -1.098  0.00  0.00    -0.060 S 
ATOM      5  C   UNL     1      -5.307  -8.036  -2.452  0.00  0.00    +0.165 A 
ATOM      6  N   UNL     1      -5.322  -6.723  -2.360  0.00  0.00    -0.230 NA
ATOM      7  N   UNL     1      -4.718  -8.825  -3.431  0.00  0.00    -0.261 N 
ATOM      8  C   UNL     1      -4.812 -10.168  -3.360  0.00  0.00    +0.251 C 
ATOM      9  O   UNL     1      -5.412 -10.688  -2.439  0.00  0.00    -0.270 OA
ATOM     10  H   UNL     1      -4.239  -8.411  -4.166  0.00  0.00    +0.157 HD
BRANCH   8  11
ATOM     11  C   UNL     1      -4.187 -11.007  -4.399  0.00  0.00    +0.053 A 
ATOM     12  C   UNL     1      -3.482 -10.407  -5.471  0.00  0.00    +0.020 A 
ATOM     13  C   UNL     1      -2.915 -11.205  -6.416  0.00  0.00    +0.071 A 
ATOM     14  C   UNL     1      -3.041 -12.602  -6.309  0.00  0.00    +0.249 A 
ATOM     15  O   UNL     1      -2.534 -13.322  -7.153  0.00  0.00    -0.268 OA
ATOM     16  N   UNL     1      -3.715 -13.151  -5.281  0.00  0.00    -0.328 N 
ATOM     17  H   UNL     1      -3.791 -14.116  -5.222  0.00  0.00    +0.168 HD
ATOM     18  C   UNL     1      -4.280 -12.382  -4.332  0.00  0.00    +0.099 A 
ENDBRANCH   8  11
ENDBRANCH   1   2
BRANCH   1  19
ATOM     19  C   UNL     1      -4.511  -4.083  -1.274  0.00  0.00    +0.102 C 
BRANCH  19  26
ATOM     20  N   UNL     1      -1.198  -0.721   0.010  0.00  0.00    -0.327 N 
ATOM     21  C   UNL     1      -2.486  -0.022   0.131  0.00  0.00    +0.124 C 
ATOM     22  C   UNL     1      -3.375  -0.424  -1.053  0.00  0.00    +0.126 C 
ATOM     23  N   UNL     1      -3.372  -1.889  -1.165  0.00  0.00    -0.298 N 
ATOM     24  C   UNL     1      -2.085  -2.588  -1.286  0.00  0.00    +0.126 C 
ATOM     25  C   UNL     1      -1.196  -2.186  -0.108  0.00  0.00    +0.124 C 
ATOM     26  C   UNL     1      -4.529  -2.580  -1.157  0.00  0.00    +0.216 C 
ATOM     27  O   UNL     1      -5.585  -1.993  -1.057  0.00  0.00    -0.276 OA
BRANCH  20  33
ATOM     28  C   UNL     1       1.215  -0.680   0.003  0.00  0.00    +0.026 A 
ATOM     29  C   UNL     1       2.400   0.030  -0.005  0.00  0.00    +0.040 A 
ATOM     30  C   UNL     1       2.379   1.414  -0.015  0.00  0.00    +0.124 A 
ATOM     31  C   UNL     1       1.170   2.090  -0.016  0.00  0.00    +0.040 A 
ATOM     32  C   UNL     1      -0.017   1.385  -0.007  0.00  0.00    +0.026 A 
ATOM     33  C   UNL     1       0.002  -0.004   0.002  0.00  0.00    +0.030 A 
ATOM     34  F   UNL     1       3.539   2.107  -0.023  0.00  0.00    -0.205 F 
ENDBRANCH  20  33
ENDBRANCH  19  26
ENDBRANCH   1  19
TORSDOF 5
