REMARK  Name = ZINC67018615
REMARK  4 active torsions:
REMARK  status: ('A' for Active; 'I' for Inactive)
REMARK    1  A    between atoms: C_1  and  C_2
REMARK    2  A    between atoms: C_5  and  N_19
REMARK    3  A    between atoms: C_7  and  C_8
REMARK    4  A    between atoms: N_10  and  C_11
REMARK                            x       y       z     vdW  Elec       q    Type
REMARK                         _______ _______ _______ _____ _____    ______ ____
ROOT
ATOM      1  C   UNL     1       0.272   0.025   2.479  0.00  0.00    +0.249 C 
ATOM      2  O   UNL     1       0.200   1.238   2.498  0.00  0.00    -0.270 OA
ATOM      3  N   UNL     1       0.461  -0.658   3.625  0.00  0.00    -0.280 N 
ATOM      4  H   UNL     1       0.593  -1.619   3.602  0.00  0.00    +0.155 HD
ENDROOT
BRANCH   3   5
ATOM      5  C   UNL     1       0.465   0.019   4.850  0.00  0.00    +0.054 A 
ATOM      6  C   UNL     1       0.962   1.313   4.928  0.00  0.00    +0.044 A 
ATOM      7  C   UNL     1       0.965   1.979   6.139  0.00  0.00    +0.043 A 
ATOM      8  C   UNL     1       0.472   1.357   7.273  0.00  0.00    +0.021 A 
ATOM      9  C   UNL     1      -0.024   0.069   7.199  0.00  0.00    +0.023 A 
ATOM     10  C   UNL     1      -0.035  -0.601   5.989  0.00  0.00    +0.062 A 
ATOM     11 CL   UNL     1      -0.664  -2.216   5.896  0.00  0.00    -0.082 Cl
ATOM     12 CL   UNL     1       1.587   3.596   6.238  0.00  0.00    -0.083 Cl
ENDBRANCH   3   5
BRANCH   1  19
ATOM     13  C   UNL     1       0.005   1.511   0.011  0.00  0.00    +0.044 C 
ATOM     14  C   UNL     1       0.024   0.005   0.000  0.00  0.00    -0.038 A 
ATOM     15  C   UNL     1      -0.081  -0.680  -1.193  0.00  0.00    +0.006 A 
ATOM     16  C   UNL     1      -0.065  -2.063  -1.205  0.00  0.00    +0.033 A 
ATOM     17  C   UNL     1       0.057  -2.770  -0.021  0.00  0.00    +0.127 A 
ATOM     18  C   UNL     1       0.163  -2.098   1.179  0.00  0.00    +0.046 A 
ATOM     19  C   UNL     1       0.153  -0.702   1.197  0.00  0.00    +0.042 A 
BRANCH  17  20
ATOM     20  N   UNL     1       0.074  -4.250  -0.043  0.00  0.00    +0.056 N 
ATOM     21  O   UNL     1      -0.020  -4.840  -1.094  0.00  0.00    -0.126 OA
ATOM     22  O   UNL     1       0.180  -4.868   0.990  0.00  0.00    -0.126 OA
ENDBRANCH  17  20
ENDBRANCH   1  19
TORSDOF 3
