REMARK  Name = ZINC17969648
REMARK  5 active torsions:
REMARK  status: ('A' for Active; 'I' for Inactive)
REMARK    1  A    between atoms: C_5  and  C_7
REMARK    2  A    between atoms: N_8  and  N_9
REMARK    3  A    between atoms: C_10  and  S_12
REMARK    4  A    between atoms: S_12  and  C_13
REMARK    5  A    between atoms: N_18  and  C_21
REMARK                            x       y       z     vdW  Elec       q    Type
REMARK                         _______ _______ _______ _____ _____    ______ ____
ROOT
ATOM      1  S   UNL     1       3.610  -6.473  -0.067  0.00  0.00    -0.078 S 
ENDROOT
BRANCH   1   2
ATOM      2  C   UNL     1       5.378  -6.878  -0.086  0.00  0.00    +0.149 C 
ATOM      3  C   UNL     1       5.587  -8.405  -0.025  0.00  0.00    +0.120 C 
ATOM      4  C   UNL     1       6.304  -8.717  -1.320  0.00  0.00    +0.228 C 
ATOM      5  O   UNL     1       6.660  -9.819  -1.677  0.00  0.00    -0.275 OA
ATOM      6  N   UNL     1       6.481  -7.584  -2.010  0.00  0.00    -0.208 N 
ATOM      7  C   UNL     1       6.000  -6.484  -1.409  0.00  0.00    +0.240 C 
ATOM      8  O   UNL     1       6.054  -5.357  -1.852  0.00  0.00    -0.274 OA
BRANCH   6   9
ATOM      9  C   UNL     1       7.119  -7.547  -3.258  0.00  0.00    +0.064 A 
ATOM     10  C   UNL     1       6.377  -7.689  -4.423  0.00  0.00    +0.045 A 
ATOM     11  C   UNL     1       7.008  -7.652  -5.652  0.00  0.00    +0.043 A 
ATOM     12  C   UNL     1       8.379  -7.474  -5.722  0.00  0.00    +0.021 A 
ATOM     13  C   UNL     1       9.121  -7.332  -4.564  0.00  0.00    +0.023 A 
ATOM     14  C   UNL     1       8.494  -7.363  -3.332  0.00  0.00    +0.063 A 
ATOM     15 CL   UNL     1       9.425  -7.178  -1.879  0.00  0.00    -0.082 Cl
ATOM     16 CL   UNL     1       6.081  -7.829  -7.109  0.00  0.00    -0.083 Cl
ENDBRANCH   6   9
ENDBRANCH   1   2
BRANCH   1  18
ATOM     17  N   UNL     1       2.421  -4.075  -0.043  0.00  0.00    -0.259 N 
ATOM     18  C   UNL     1       3.576  -4.712  -0.058  0.00  0.00    +0.146 C 
ATOM     19  N   UNL     1       4.751  -4.002  -0.065  0.00  0.00    -0.338 N 
ATOM     20  H   UNL     1       4.732  -3.032  -0.059  0.00  0.00    +0.144 HD
ATOM     21  H   UNL     1       5.600  -4.471  -0.076  0.00  0.00    +0.144 HD
ATOM     22  H   UNL     1       1.591  -4.576  -0.038  0.00  0.00    +0.191 HD
BRANCH  17  24
ATOM     23  C   UNL     1       1.253  -2.155  -0.021  0.00  0.00    +0.142 C 
ATOM     24  N   UNL     1       2.396  -2.785  -0.036  0.00  0.00    -0.180 NA
BRANCH  23  29
ATOM     25  C   UNL     1      -0.017   1.375   0.010  0.00  0.00    +0.001 A 
ATOM     26  C   UNL     1       1.170   2.087   0.002  0.00  0.00    +0.001 A 
ATOM     27  C   UNL     1       2.384   1.423  -0.013  0.00  0.00    +0.020 A 
ATOM     28  C   UNL     1       2.420   0.044  -0.021  0.00  0.00    +0.050 A 
ATOM     29  C   UNL     1       1.224  -0.683  -0.013  0.00  0.00    +0.013 A 
ATOM     30  C   UNL     1       0.002  -0.004   0.002  0.00  0.00    +0.011 A 
ATOM     31 CL   UNL     1       3.944  -0.787  -0.041  0.00  0.00    -0.083 Cl
ENDBRANCH  23  29
ENDBRANCH  17  24
ENDBRANCH   1  18
TORSDOF 5
