REMARK  Name = ZINC09357215
REMARK  5 active torsions:
REMARK  status: ('A' for Active; 'I' for Inactive)
REMARK    1  A    between atoms: C_1  and  C_2
REMARK    2  A    between atoms: C_4  and  S_8
REMARK    3  A    between atoms: S_8  and  C_9
REMARK    4  A    between atoms: C_9  and  C_18
REMARK    5  A    between atoms: C_10  and  C_11
REMARK                            x       y       z     vdW  Elec       q    Type
REMARK                         _______ _______ _______ _____ _____    ______ ____
ROOT
ATOM      1  C   UNL     1       0.048   1.349   0.271  0.00  0.00    +0.104 C 
ATOM      2  C   UNL     1       0.006   0.021   0.007  0.00  0.00    +0.030 C 
ENDROOT
BRANCH   2   3
ATOM      3  C   UNL     1       1.253  -0.722  -0.226  0.00  0.00    -0.024 A 
ATOM      4  C   UNL     1       2.337  -0.096  -0.852  0.00  0.00    +0.009 A 
ATOM      5  C   UNL     1       3.505  -0.797  -1.062  0.00  0.00    +0.020 A 
ATOM      6  C   UNL     1       3.603  -2.121  -0.666  0.00  0.00    +0.041 A 
ATOM      7  C   UNL     1       2.532  -2.749  -0.051  0.00  0.00    +0.020 A 
ATOM      8  C   UNL     1       1.360  -2.059   0.171  0.00  0.00    +0.009 A 
ATOM      9 CL   UNL     1       5.076  -2.998  -0.942  0.00  0.00    -0.084 Cl
ENDBRANCH   2   3
BRANCH   1  10
ATOM     10  C   UNL     1      -1.199   2.123   0.345  0.00  0.00    +0.393 C 
ATOM     11  O   UNL     1      -2.268   1.571   0.168  0.00  0.00    -0.240 OA
ATOM     12  O   UNL     1      -1.157   3.445   0.608  0.00  0.00    -0.240 OA
ENDBRANCH   1  10
BRANCH   1  13
ATOM     13  S   UNL     1       1.597   2.150   0.520  0.00  0.00    -0.043 S 
BRANCH  13  17
ATOM     14  C   UNL     1      -0.366   2.864   5.344  0.00  0.00    +0.090 C 
ATOM     15  C   UNL     1       0.614   2.882   4.199  0.00  0.00    +0.149 A 
ATOM     16  N   UNL     1       0.372   2.433   2.967  0.00  0.00    -0.206 NA
ATOM     17  C   UNL     1       1.442   2.596   2.218  0.00  0.00    +0.189 A 
ATOM     18  N   UNL     1       2.397   3.172   2.980  0.00  0.00    -0.253 N 
ATOM     19  H   UNL     1       3.293   3.418   2.702  0.00  0.00    +0.191 HD
ATOM     20  N   UNL     1       1.834   3.345   4.255  0.00  0.00    -0.157 NA
ENDBRANCH  13  17
ENDBRANCH   1  13
TORSDOF 4
