REMARK  Name = ZINC67286105
REMARK  7 active torsions:
REMARK  status: ('A' for Active; 'I' for Inactive)
REMARK    1  A    between atoms: C_1  and  C_2
REMARK    2  A    between atoms: C_2  and  O_3
REMARK    3  A    between atoms: O_3  and  C_4
REMARK    4  A    between atoms: C_4  and  C_6
REMARK    5  A    between atoms: C_7  and  C_22
REMARK    6  A    between atoms: C_12  and  C_14
REMARK    7  A    between atoms: C_22  and  N_23
REMARK                            x       y       z     vdW  Elec       q    Type
REMARK                         _______ _______ _______ _____ _____    ______ ____
ROOT
ATOM      1  C   UNL     1       1.372  -2.351  -2.438  0.00  0.00    +0.079 C 
ATOM      2  C   UNL     1       1.642  -3.668  -2.568  0.00  0.00    +0.038 C 
ATOM      3  N   UNL     1       2.333  -4.142  -3.646  0.00  0.00    -0.271 N 
ATOM      4  C   UNL     1       2.791  -3.365  -4.636  0.00  0.00    +0.304 C 
ATOM      5  O   UNL     1       3.397  -3.879  -5.555  0.00  0.00    -0.252 OA
ATOM      6  N   UNL     1       2.600  -2.030  -4.646  0.00  0.00    -0.288 N 
ATOM      7  C   UNL     1       1.858  -1.420  -3.530  0.00  0.00    +0.144 C 
ATOM      8  H   UNL     1       2.504  -5.096  -3.698  0.00  0.00    +0.156 HD
ATOM      9  H   UNL     1       2.940  -1.486  -5.373  0.00  0.00    +0.151 HD
ENDROOT
BRANCH   7  10
ATOM     10  C   UNL     1       0.660  -0.705  -4.098  0.00  0.00    -0.020 A 
ATOM     11  C   UNL     1      -0.153  -1.342  -5.017  0.00  0.00    +0.009 A 
ATOM     12  C   UNL     1      -1.253  -0.688  -5.539  0.00  0.00    +0.041 A 
ATOM     13  C   UNL     1      -1.542   0.606  -5.142  0.00  0.00    +0.158 A 
ATOM     14  C   UNL     1      -0.727   1.245  -4.221  0.00  0.00    +0.159 A 
ATOM     15  C   UNL     1       0.371   0.586  -3.696  0.00  0.00    +0.047 A 
ATOM     16  F   UNL     1      -1.006   2.509  -3.832  0.00  0.00    -0.202 F 
ATOM     17  F   UNL     1      -2.616   1.246  -5.653  0.00  0.00    -0.202 F 
ENDBRANCH   7  10
BRANCH   1  18
ATOM     18  C   UNL     1       0.655  -1.859  -1.322  0.00  0.00    +0.339 C 
ATOM     19  O   UNL     1      -0.531  -1.608  -1.424  0.00  0.00    -0.245 OA
BRANCH  18  20
ATOM     20  O   UNL     1       1.287  -1.667  -0.145  0.00  0.00    -0.462 OA
BRANCH  20  22
ATOM     21  C   UNL     1       1.383  -1.017   2.180  0.00  0.00    +0.048 C 
ATOM     22  C   UNL     1       0.501  -1.168   0.939  0.00  0.00    +0.229 C 
ENDBRANCH  20  22
ENDBRANCH  18  20
ENDBRANCH   1  18
BRANCH   2  23
ATOM     23  C   UNL     1       1.172  -4.630  -1.508  0.00  0.00    +0.136 C 
BRANCH  23  24
ATOM     24  N   UNL     1       0.192  -5.558  -2.087  0.00  0.00    -0.294 NA
ATOM     25  C   UNL     1      -1.029  -4.848  -2.492  0.00  0.00    +0.103 C 
ATOM     26  C   UNL     1      -1.947  -5.812  -3.252  0.00  0.00    +0.122 C 
ATOM     27  N   UNL     1      -2.167  -7.003  -2.419  0.00  0.00    -0.314 N 
ATOM     28  C   UNL     1      -0.992  -7.690  -1.862  0.00  0.00    +0.122 C 
ATOM     29  C   UNL     1      -0.112  -6.653  -1.156  0.00  0.00    +0.103 C 
ATOM     30  C   UNL     1      -3.452  -7.469  -2.164  0.00  0.00    +0.099 A 
ATOM     31  C   UNL     1      -4.537  -6.889  -2.815  0.00  0.00    +0.042 A 
ATOM     32  C   UNL     1      -5.810  -7.362  -2.552  0.00  0.00    +0.005 A 
ATOM     33  C   UNL     1      -5.956  -8.403  -1.645  0.00  0.00    +0.018 A 
ATOM     34  C   UNL     1      -4.836  -8.931  -1.036  0.00  0.00    +0.084 A 
ATOM     35  N   UNL     1      -3.633  -8.463  -1.309  0.00  0.00    -0.350 N 
ATOM     36  H   UNL     1      -2.862  -8.855  -0.870  0.00  0.00    +0.166 HD
ENDBRANCH  23  24
ENDBRANCH   2  23
TORSDOF 6
