REMARK  Name = ZINC20637221
REMARK  8 active torsions:
REMARK  status: ('A' for Active; 'I' for Inactive)
REMARK    1  A    between atoms: C_1  and  C_2
REMARK    2  A    between atoms: C_2  and  C_4
REMARK    3  A    between atoms: C_2  and  N_12
REMARK    4  A    between atoms: C_4  and  C_5
REMARK    5  A    between atoms: N_12  and  C_13
REMARK    6  A    between atoms: C_13  and  C_15
REMARK    7  A    between atoms: C_13  and  C_16
REMARK    8  A    between atoms: C_25  and  O_28
REMARK                            x       y       z     vdW  Elec       q    Type
REMARK                         _______ _______ _______ _____ _____    ______ ____
ROOT
ATOM      1  C   UNL     1      -0.759   2.033  -1.229  0.00  0.00    -0.068 C 
ATOM      2  C   UNL     1      -0.043   1.539  -2.488  0.00  0.00    -0.013 C 
ENDROOT
BRANCH   1   3
ATOM      3  C   UNL     1      -0.019   1.526   0.010  0.00  0.00    -0.039 C 
ATOM      4  C   UNL     1      -0.735   2.019   1.269  0.00  0.00    +0.009 C 
ATOM      5  C   UNL     1       0.005   1.512   2.509  0.00  0.00    -0.008 C 
ATOM      6  C   UNL     1       1.441   2.042   2.498  0.00  0.00    +0.007 C 
ATOM      7  C   UNL     1       2.157   1.548   1.239  0.00  0.00    -0.008 C 
ATOM      8  C   UNL     1       1.417   2.055  -0.000  0.00  0.00    +0.009 C 
ATOM      9  C   UNL     1       2.178   0.019   1.231  0.00  0.00    +0.038 C 
ATOM     10  C   UNL     1       0.742  -0.511   1.242  0.00  0.00    +0.067 C 
ATOM     11  C   UNL     1       0.026  -0.018   2.500  0.00  0.00    +0.038 C 
ATOM     12  C   UNL     1       0.002  -0.004   0.002  0.00  0.00    +0.040 C 
BRANCH  10  13
ATOM     13  O   UNL     1       0.761  -1.940   1.234  0.00  0.00    -0.389 OA
ATOM     14  H   UNL     1      -0.184  -2.503   1.240  0.00  0.00    +0.210 HD
ENDBRANCH  10  13
ENDBRANCH   1   3
BRANCH   1  15
ATOM     15  N   UNL     1      -0.779   3.501  -1.221  0.00  0.00    +0.383 N 
ATOM     16  H   UNL     1       0.160   3.869  -1.661  0.00  0.00    -0.085 HD
ATOM     17  H   UNL     1      -0.856   3.847  -0.180  0.00  0.00    -0.085 HD
BRANCH  15  19
ATOM     18  C   UNL     1      -3.160   4.060  -1.104  0.00  0.00    -0.013 C 
ATOM     19  C   UNL     1      -1.917   4.017  -1.994  0.00  0.00    -0.070 C 
BRANCH  19  20
ATOM     20  C   UNL     1      -1.597   5.427  -2.493  0.00  0.00    +0.019 C 
BRANCH  20  21
ATOM     21  C   UNL     1      -0.448   5.367  -3.467  0.00  0.00    -0.049 A 
ATOM     22  C   UNL     1       0.851   5.490  -3.011  0.00  0.00    +0.005 A 
ATOM     23  C   UNL     1       1.905   5.430  -3.902  0.00  0.00    +0.020 A 
ATOM     24  C   UNL     1       1.660   5.257  -5.253  0.00  0.00    +0.041 A 
ATOM     25  C   UNL     1       0.359   5.140  -5.709  0.00  0.00    +0.020 A 
ATOM     26  C   UNL     1      -0.694   5.195  -4.816  0.00  0.00    +0.005 A 
ATOM     27 CL   UNL     1       2.983   5.188  -6.374  0.00  0.00    -0.084 Cl
ENDBRANCH  20  21
ENDBRANCH  19  20
ENDBRANCH  15  19
ENDBRANCH   1  15
TORSDOF 6
