REMARK  Name = ZINC43065288
REMARK  12 active torsions:
REMARK  status: ('A' for Active; 'I' for Inactive)
REMARK    1  A    between atoms: C_1  and  C_2
REMARK    2  A    between atoms: C_2  and  C_4
REMARK    3  A    between atoms: C_2  and  N_14
REMARK    4  A    between atoms: C_15  and  C_17
REMARK    5  A    between atoms: C_17  and  C_19
REMARK    6  A    between atoms: C_17  and  N_22
REMARK    7  A    between atoms: C_19  and  C_20
REMARK    8  A    between atoms: C_19  and  C_21
REMARK    9  A    between atoms: C_23  and  O_25
REMARK   10  A    between atoms: O_25  and  C_26
REMARK   11  A    between atoms: C_26  and  C_27
REMARK   12  A    between atoms: C_26  and  C_28
REMARK                            x       y       z     vdW  Elec       q    Type
REMARK                         _______ _______ _______ _____ _____    ______ ____
ROOT
ATOM      1  N   UNL     1       0.788  -1.214   0.986  0.00  0.00    -0.305 N 
ATOM      2  C   UNL     1       2.008  -0.684   1.202  0.00  0.00    +0.234 C 
ATOM      3  O   UNL     1       2.499   0.062   0.381  0.00  0.00    -0.274 OA
ATOM      4  H   UNL     1       0.424  -1.862   1.609  0.00  0.00    +0.149 HD
ENDROOT
BRANCH   1   6
ATOM      5  C   UNL     1      -0.762   0.471   0.126  0.00  0.00    +0.035 C 
ATOM      6  C   UNL     1       0.012  -0.810  -0.189  0.00  0.00    +0.126 C 
BRANCH   6   7
ATOM      7  C   UNL     1      -0.958  -1.906  -0.551  0.00  0.00    +0.099 A 
ATOM      8  N   UNL     1      -1.732  -2.581   0.247  0.00  0.00    -0.242 NA
ATOM      9  C   UNL     1      -2.562  -3.546  -0.203  0.00  0.00    +0.079 A 
ATOM     10  C   UNL     1      -3.461  -4.369   0.507  0.00  0.00    +0.032 A 
ATOM     11  C   UNL     1      -4.217  -5.293  -0.145  0.00  0.00    +0.040 A 
ATOM     12  C   UNL     1      -4.135  -5.459  -1.523  0.00  0.00    +0.125 A 
ATOM     13  C   UNL     1      -3.265  -4.669  -2.253  0.00  0.00    +0.055 A 
ATOM     14  C   UNL     1      -2.497  -3.734  -1.602  0.00  0.00    +0.042 A 
ATOM     15  S   UNL     1      -1.288  -2.527  -2.080  0.00  0.00    -0.070 S 
ATOM     16  F   UNL     1      -4.898  -6.385  -2.144  0.00  0.00    -0.205 F 
ENDBRANCH   6   7
ENDBRANCH   1   6
BRANCH   2  17
ATOM     17  C   UNL     1       2.763  -1.018   2.462  0.00  0.00    +0.165 C 
BRANCH  17  18
ATOM     18  N   UNL     1       4.203  -0.918   2.211  0.00  0.00    -0.270 N 
ATOM     19  C   UNL     1       5.069  -1.621   2.967  0.00  0.00    +0.401 C 
ATOM     20  O   UNL     1       4.656  -2.339   3.856  0.00  0.00    -0.226 OA
ATOM     21  H   UNL     1       4.532  -0.345   1.501  0.00  0.00    +0.153 HD
BRANCH  19  22
ATOM     22  O   UNL     1       6.392  -1.529   2.736  0.00  0.00    -0.448 OA
BRANCH  22  23
ATOM     23  C   UNL     1       7.253  -2.302   3.575  0.00  0.00    +0.172 C 
ATOM     24  C   UNL     1       8.512  -2.688   2.796  0.00  0.00    +0.052 C 
ATOM     25  C   UNL     1       7.645  -1.477   4.802  0.00  0.00    +0.052 C 
ENDBRANCH  22  23
ENDBRANCH  19  22
ENDBRANCH  17  18
BRANCH  17  26
ATOM     26  C   UNL     1       2.368  -0.037   3.568  0.00  0.00    +0.012 C 
ATOM     27  C   UNL     1       0.875  -0.181   3.869  0.00  0.00    +0.009 C 
ATOM     28  C   UNL     1       3.175  -0.341   4.832  0.00  0.00    +0.009 C 
ENDBRANCH  17  26
ENDBRANCH   2  17
TORSDOF 7
