REMARK  Name = ZINC15678981
REMARK  6 active torsions:
REMARK  status: ('A' for Active; 'I' for Inactive)
REMARK    1  A    between atoms: C_1  and  C_2
REMARK    2  A    between atoms: C_2  and  C_3
REMARK    3  A    between atoms: C_7  and  N_9
REMARK    4  A    between atoms: C_10  and  N_26
REMARK    5  A    between atoms: C_11  and  C_14
REMARK    6  A    between atoms: C_16  and  C_19
REMARK                            x       y       z     vdW  Elec       q    Type
REMARK                         _______ _______ _______ _____ _____    ______ ____
ROOT
ATOM      1  N   UNL     1       2.405   1.105  -0.014  0.00  0.00    -0.198 N 
ATOM      2  C   UNL     1       3.544   1.492  -0.654  0.00  0.00    +0.153 A 
ATOM      3  C   UNL     1       4.492   0.515  -0.386  0.00  0.00    +0.191 A 
ATOM      4  N   UNL     1       3.917  -0.425   0.385  0.00  0.00    -0.122 NA
ATOM      5  N   UNL     1       2.693  -0.111   0.622  0.00  0.00    -0.058 NA
ENDROOT
BRANCH   1  10
ATOM      6  C   UNL     1      -1.217   1.751   0.017  0.00  0.00    -0.046 A 
ATOM      7  C   UNL     1      -1.237   3.134   0.029  0.00  0.00    +0.004 A 
ATOM      8  C   UNL     1      -0.051   3.844   0.022  0.00  0.00    +0.002 A 
ATOM      9  C   UNL     1       1.157   3.175   0.008  0.00  0.00    +0.028 A 
ATOM     10  C   UNL     1       1.180   1.787   0.000  0.00  0.00    +0.069 A 
ATOM     11  C   UNL     1      -0.013   1.076   0.008  0.00  0.00    +0.031 A 
BRANCH   6  13
ATOM     12  C   UNL     1      -2.943   0.711   1.462  0.00  0.00    +0.009 C 
ATOM     13  C   UNL     1      -2.512   0.980   0.019  0.00  0.00    +0.032 C 
ENDBRANCH   6  13
ENDBRANCH   1  10
BRANCH   3  14
ATOM     14  C   UNL     1       5.883   0.505  -0.867  0.00  0.00    +0.282 A 
ATOM     15  N   UNL     1       6.795  -0.421  -0.623  0.00  0.00    -0.186 NA
ATOM     16  C   UNL     1       7.908  -0.007  -1.264  0.00  0.00    +0.202 A 
ATOM     17  N   UNL     1       7.622   1.127  -1.852  0.00  0.00    -0.056 NA
ATOM     18  O   UNL     1       6.468   1.433  -1.642  0.00  0.00    -0.331 OA
BRANCH  16  19
ATOM     19  C   UNL     1       9.216  -0.708  -1.295  0.00  0.00    +0.023 A 
ATOM     20  C   UNL     1       9.380  -1.912  -0.614  0.00  0.00    +0.013 A 
ATOM     21  C   UNL     1      10.597  -2.562  -0.649  0.00  0.00    +0.016 A 
ATOM     22  C   UNL     1      11.656  -2.015  -1.353  0.00  0.00    +0.018 A 
ATOM     23  C   UNL     1      11.499  -0.816  -2.027  0.00  0.00    +0.016 A 
ATOM     24  C   UNL     1      10.285  -0.161  -2.001  0.00  0.00    +0.013 A 
ATOM     25 BR   UNL     1      13.323  -2.907  -1.392  0.00  0.00    -0.050 Br
ENDBRANCH  16  19
ENDBRANCH   3  14
BRANCH   2  26
ATOM     26  N   UNL     1       3.721   2.631  -1.417  0.00  0.00    -0.341 N 
ATOM     27  H   UNL     1       2.986   3.253  -1.538  0.00  0.00    +0.144 HD
ATOM     28  H   UNL     1       4.580   2.810  -1.830  0.00  0.00    +0.144 HD
ENDBRANCH   2  26
TORSDOF 5
