REMARK  Name = ZINC59321402
REMARK  3 active torsions:
REMARK  status: ('A' for Active; 'I' for Inactive)
REMARK    1  A    between atoms: N_13  and  C_14
REMARK    2  A    between atoms: C_14  and  C_16
REMARK    3  A    between atoms: C_14  and  C_21
REMARK                            x       y       z     vdW  Elec       q    Type
REMARK                         _______ _______ _______ _____ _____    ______ ____
ROOT
ATOM      1  C   UNL     1      -0.025   1.367   0.013  0.00  0.00    +0.000 A 
ATOM      2  C   UNL     1       1.163   2.074   0.010  0.00  0.00    +0.000 A 
ATOM      3  C   UNL     1       2.363   1.394  -0.011  0.00  0.00    +0.005 A 
ATOM      4  C   UNL     1       2.387   0.005  -0.025  0.00  0.00    -0.027 A 
ATOM      5  C   UNL     1       1.204  -0.700  -0.011  0.00  0.00    -0.041 A 
ATOM      6  C   UNL     1      -0.003  -0.012   0.002  0.00  0.00    +0.004 A 
ATOM      7  C   UNL     1       1.151  -2.205   0.007  0.00  0.00    +0.054 C 
ATOM      8  C   UNL     1       2.468  -2.802  -0.488  0.00  0.00    +0.114 C 
ATOM      9  N   UNL     1       3.568  -2.108   0.203  0.00  0.00    -0.281 N 
ATOM     10  C   UNL     1       3.732  -0.675  -0.062  0.00  0.00    +0.144 C 
ATOM     11  C   UNL     1       4.391  -2.765   1.044  0.00  0.00    +0.303 C 
ATOM     12  O   UNL     1       4.176  -3.929   1.319  0.00  0.00    -0.253 OA
ATOM     13  N   UNL     1       5.452  -2.130   1.581  0.00  0.00    -0.292 N 
ATOM     14  H   UNL     1       5.582  -1.183   1.419  0.00  0.00    +0.151 HD
ENDROOT
BRANCH  13  15
ATOM     15  C   UNL     1       6.407  -2.871   2.408  0.00  0.00    +0.114 C 
BRANCH  15  16
ATOM     16  C   UNL     1       7.433  -3.530   1.523  0.00  0.00    +0.010 A 
ATOM     17  C   UNL     1       7.982  -4.765   1.626  0.00  0.00    +0.013 A 
ATOM     18  C   UNL     1       8.915  -5.164   0.688  0.00  0.00    +0.008 A 
ATOM     19  C   UNL     1       9.253  -4.310  -0.309  0.00  0.00    +0.045 A 
ATOM     20  S   UNL     1       8.233  -2.892   0.060  0.00  0.00    -0.100 S 
ENDBRANCH  15  16
BRANCH  15  21
ATOM     21  C   UNL     1       7.107  -1.906   3.368  0.00  0.00    +0.014 C 
ATOM     22  C   UNL     1       8.064  -2.684   4.294  0.00  0.00    +0.006 C 
ATOM     23  C   UNL     1       7.942  -1.962   5.659  0.00  0.00    +0.000 C 
ATOM     24  C   UNL     1       6.435  -1.612   5.727  0.00  0.00    +0.000 C 
ATOM     25  C   UNL     1       6.071  -1.225   4.279  0.00  0.00    +0.006 C 
ENDBRANCH  15  21
ENDBRANCH  13  15
TORSDOF 3
