REMARK  Name = ZINC12635131
REMARK  10 active torsions:
REMARK  status: ('A' for Active; 'I' for Inactive)
REMARK    1  A    between atoms: C_1  and  C_2
REMARK    2  A    between atoms: C_2  and  C_4
REMARK    3  A    between atoms: C_2  and  N_31
REMARK    4  A    between atoms: N_6  and  C_7
REMARK    5  A    between atoms: N_6  and  C_13
REMARK    6  A    between atoms: C_7  and  C_8
REMARK    7  A    between atoms: C_13  and  C_15
REMARK    8  A    between atoms: C_13  and  C_22
REMARK    9  A    between atoms: C_18  and  O_21
REMARK   10  A    between atoms: N_24  and  C_25
REMARK                            x       y       z     vdW  Elec       q    Type
REMARK                         _______ _______ _______ _____ _____    ______ ____
ROOT
ATOM      1  C   UNL     1      -1.823   1.104  -4.130  0.00  0.00    +0.241 C 
ATOM      2  O   UNL     1      -2.164   1.486  -5.229  0.00  0.00    -0.273 OA
ATOM      3  N   UNL     1      -2.682   0.406  -3.362  0.00  0.00    -0.277 N 
ENDROOT
BRANCH   1   5
ATOM      4  C   UNL     1      -0.484   2.650  -2.727  0.00  0.00    +0.042 C 
ATOM      5  C   UNL     1      -0.437   1.411  -3.623  0.00  0.00    +0.192 C 
BRANCH   5   6
ATOM      6  N   UNL     1       0.454   1.663  -4.759  0.00  0.00    -0.232 N 
ATOM      7  C   UNL     1       1.591   0.962  -5.085  0.00  0.00    +0.090 A 
ATOM      8  C   UNL     1       2.248  -0.127  -4.523  0.00  0.00    +0.029 A 
ATOM      9  C   UNL     1       3.392  -0.603  -5.102  0.00  0.00    +0.002 A 
ATOM     10  C   UNL     1       3.903  -0.008  -6.248  0.00  0.00    +0.002 A 
ATOM     11  C   UNL     1       3.277   1.061  -6.819  0.00  0.00    +0.032 A 
ATOM     12  C   UNL     1       2.103   1.568  -6.245  0.00  0.00    +0.113 A 
ATOM     13  N   UNL     1       1.282   2.586  -6.571  0.00  0.00    -0.129 NA
ATOM     14  N   UNL     1       0.311   2.664  -5.731  0.00  0.00    -0.064 NA
ENDBRANCH   5   6
ENDBRANCH   1   5
BRANCH   3  15
ATOM     15  C   UNL     1      -2.299   0.017  -2.002  0.00  0.00    +0.183 C 
BRANCH  15  16
ATOM     16  C   UNL     1      -1.474  -1.242  -2.054  0.00  0.00    +0.122 A 
ATOM     17  C   UNL     1      -0.230  -1.389  -1.562  0.00  0.00    +0.046 A 
ATOM     18  C   UNL     1       0.161  -2.722  -1.826  0.00  0.00    +0.041 A 
ATOM     19  C   UNL     1      -0.868  -3.310  -2.463  0.00  0.00    +0.195 A 
ATOM     20  O   UNL     1      -1.857  -2.411  -2.593  0.00  0.00    -0.466 OA
ENDBRANCH  15  16
ENDBRANCH   3  15
BRANCH   3  21
ATOM     21  C   UNL     1      -3.999   0.036  -3.886  0.00  0.00    +0.193 C 
BRANCH  21  22
ATOM     22  C   UNL     1      -4.162  -1.461  -3.823  0.00  0.00    -0.018 A 
ATOM     23  C   UNL     1      -4.380  -2.081  -2.607  0.00  0.00    +0.009 A 
ATOM     24  C   UNL     1      -4.535  -3.452  -2.547  0.00  0.00    +0.046 A 
ATOM     25  C   UNL     1      -4.462  -4.209  -3.708  0.00  0.00    +0.117 A 
ATOM     26  C   UNL     1      -4.238  -3.584  -4.927  0.00  0.00    +0.046 A 
ATOM     27  C   UNL     1      -4.089  -2.212  -4.982  0.00  0.00    +0.009 A 
BRANCH  25  28
ATOM     28  O   UNL     1      -4.608  -5.559  -3.651  0.00  0.00    -0.507 OA
ATOM     29  H   UNL     1      -3.779  -6.039  -3.521  0.00  0.00    +0.292 HD
ENDBRANCH  25  28
ENDBRANCH  21  22
BRANCH  21  30
ATOM     30  C   UNL     1      -5.072   0.694  -3.058  0.00  0.00    +0.238 C 
ATOM     31  O   UNL     1      -4.768   1.380  -2.105  0.00  0.00    -0.273 OA
ATOM     32  N   UNL     1      -6.371   0.519  -3.375  0.00  0.00    -0.311 N 
ATOM     33  H   UNL     1      -6.614  -0.030  -4.137  0.00  0.00    +0.149 HD
BRANCH  32  34
ATOM     34  C   UNL     1      -7.414   1.158  -2.570  0.00  0.00    +0.073 C 
ATOM     35  C   UNL     1      -7.742   0.274  -1.365  0.00  0.00    +0.022 C 
ATOM     36  C   UNL     1      -8.832   0.942  -0.524  0.00  0.00    +0.002 C 
ATOM     37  C   UNL     1     -10.089   1.130  -1.375  0.00  0.00    +0.000 C 
ATOM     38  C   UNL     1      -9.761   2.014  -2.580  0.00  0.00    +0.002 C 
ATOM     39  C   UNL     1      -8.671   1.347  -3.421  0.00  0.00    +0.022 C 
ENDBRANCH  32  34
ENDBRANCH  21  30
ENDBRANCH   3  21
TORSDOF 9
