REMARK  Name = ZINC16438074
REMARK  17 active torsions:
REMARK  status: ('A' for Active; 'I' for Inactive)
REMARK    1  A    between atoms: C_1  and  C_2
REMARK    2  A    between atoms: C_7  and  N_8
REMARK    3  A    between atoms: C_9  and  N_17
REMARK    4  A    between atoms: C_11  and  C_13
REMARK    5  A    between atoms: C_13  and  C_14
REMARK    6  A    between atoms: C_13  and  C_15
REMARK    7  A    between atoms: C_13  and  C_16
REMARK    8  A    between atoms: C_18  and  C_20
REMARK    9  A    between atoms: C_20  and  N_21
REMARK   10  A    between atoms: N_21  and  C_22
REMARK   11  A    between atoms: C_22  and  C_23
REMARK   12  A    between atoms: C_23  and  C_24
REMARK   13  A    between atoms: C_24  and  C_25
REMARK   14  A    between atoms: C_24  and  C_26
REMARK   15  A    between atoms: N_29  and  C_30
REMARK   16  A    between atoms: C_33  and  C_37
REMARK   17  A    between atoms: C_34  and  C_36
REMARK                            x       y       z     vdW  Elec       q    Type
REMARK                         _______ _______ _______ _____ _____    ______ ____
ROOT
ATOM      1  N   UNL     1       3.774   2.089   0.195  0.00  0.00    -0.269 N 
ATOM      2  C   UNL     1       5.060   1.725   0.371  0.00  0.00    +0.236 C 
ATOM      3  O   UNL     1       5.925   2.571   0.450  0.00  0.00    -0.274 OA
ATOM      4  H   UNL     1       3.083   1.412   0.131  0.00  0.00    +0.156 HD
ENDROOT
BRANCH   1   6
ATOM      5  N   UNL     1       2.180   3.953   0.031  0.00  0.00    -0.218 N 
ATOM      6  C   UNL     1       3.438   3.439   0.103  0.00  0.00    +0.129 A 
ATOM      7  C   UNL     1       4.309   4.485   0.070  0.00  0.00    +0.069 A 
ATOM      8  C   UNL     1       3.561   5.662  -0.025  0.00  0.00    +0.071 A 
ATOM      9  N   UNL     1       2.291   5.347  -0.053  0.00  0.00    -0.169 NA
BRANCH   5  16
ATOM     10  C   UNL     1       0.119   4.740   1.829  0.00  0.00    +0.046 C 
ATOM     11  C   UNL     1      -0.044   3.569   0.895  0.00  0.00    -0.025 A 
ATOM     12  C   UNL     1      -1.220   2.843   0.896  0.00  0.00    +0.005 A 
ATOM     13  C   UNL     1      -1.372   1.772   0.035  0.00  0.00    +0.000 A 
ATOM     14  C   UNL     1      -0.345   1.416  -0.820  0.00  0.00    +0.002 A 
ATOM     15  C   UNL     1       0.832   2.138  -0.825  0.00  0.00    +0.028 A 
ATOM     16  C   UNL     1       0.987   3.218   0.034  0.00  0.00    +0.070 A 
ENDBRANCH   5  16
BRANCH   8  17
ATOM     17  C   UNL     1       4.123   7.059  -0.089  0.00  0.00    +0.006 C 
ATOM     18  C   UNL     1       4.705   7.311  -1.481  0.00  0.00    +0.017 C 
ATOM     19  C   UNL     1       3.008   8.070   0.188  0.00  0.00    +0.017 C 
ATOM     20  C   UNL     1       5.225   7.215   0.961  0.00  0.00    +0.017 C 
ENDBRANCH   8  17
ENDBRANCH   1   6
BRANCH   2  21
ATOM     21  C   UNL     1       5.423   0.265   0.469  0.00  0.00    +0.205 C 
BRANCH  21  22
ATOM     22  N   UNL     1       6.870   0.134   0.658  0.00  0.00    -0.277 N 
ATOM     23  C   UNL     1       7.388   0.115   1.902  0.00  0.00    +0.307 C 
ATOM     24  O   UNL     1       6.656   0.207   2.867  0.00  0.00    -0.252 OA
ATOM     25  N   UNL     1       8.720  -0.006   2.075  0.00  0.00    -0.269 N 
ATOM     26  H   UNL     1       9.310  -0.015   1.306  0.00  0.00    +0.156 HD
BRANCH  25  27
ATOM     27  C   UNL     1       9.250  -0.118   3.365  0.00  0.00    +0.035 A 
ATOM     28  C   UNL     1       8.669   0.575   4.419  0.00  0.00    +0.023 A 
ATOM     29  C   UNL     1       9.192   0.458   5.692  0.00  0.00    +0.005 A 
ATOM     30  C   UNL     1      10.299  -0.340   5.916  0.00  0.00    -0.047 A 
ATOM     31  C   UNL     1      10.883  -1.027   4.868  0.00  0.00    -0.046 A 
ATOM     32  C   UNL     1      10.361  -0.919   3.593  0.00  0.00    +0.027 A 
ATOM     33  C   UNL     1      12.089  -1.896   5.116  0.00  0.00    +0.044 C 
ATOM     34  C   UNL     1      10.870  -0.461   7.305  0.00  0.00    +0.044 C 
ENDBRANCH  25  27
BRANCH  22  35
ATOM     35  C   UNL     1       7.753   0.023  -0.506  0.00  0.00    +0.110 C 
BRANCH  35  36
ATOM     36  C   UNL     1       8.195   1.420  -0.945  0.00  0.00    +0.022 C 
BRANCH  36  37
ATOM     37  C   UNL     1       9.118   1.304  -2.161  0.00  0.00    -0.016 C 
ATOM     38  C   UNL     1       9.460   2.703  -2.677  0.00  0.00    +0.007 C 
ATOM     39  C   UNL     1      10.404   0.580  -1.758  0.00  0.00    +0.007 C 
ENDBRANCH  36  37
ENDBRANCH  35  36
ENDBRANCH  22  35
ENDBRANCH  21  22
ENDBRANCH   2  21
TORSDOF 9
