REMARK  Name = ZINC66637407
REMARK  13 active torsions:
REMARK  status: ('A' for Active; 'I' for Inactive)
REMARK    1  A    between atoms: C_1  and  C_2
REMARK    2  A    between atoms: C_2  and  C_3
REMARK    3  A    between atoms: C_3  and  C_5
REMARK    4  A    between atoms: C_3  and  N_15
REMARK    5  A    between atoms: C_9  and  S_11
REMARK    6  A    between atoms: S_11  and  N_14
REMARK    7  A    between atoms: C_16  and  C_18
REMARK    8  A    between atoms: C_18  and  C_19
REMARK    9  A    between atoms: C_19  and  C_21
REMARK   10  A    between atoms: C_19  and  C_22
REMARK   11  A    between atoms: C_22  and  C_23
REMARK   12  A    between atoms: C_22  and  C_24
REMARK   13  A    between atoms: C_22  and  C_25
REMARK                            x       y       z     vdW  Elec       q    Type
REMARK                         _______ _______ _______ _____ _____    ______ ____
ROOT
ATOM      1  C   UNL     1      -1.433  -0.534   0.013  0.00  0.00    +0.103 C 
ENDROOT
BRANCH   1   2
ATOM      2  C   UNL     1      -1.416  -2.035  -0.119  0.00  0.00    -0.025 A 
ATOM      3  C   UNL     1      -1.159  -2.823   0.987  0.00  0.00    +0.005 A 
ATOM      4  C   UNL     1      -1.143  -4.200   0.866  0.00  0.00    +0.002 A 
ATOM      5  C   UNL     1      -1.385  -4.789  -0.361  0.00  0.00    +0.028 A 
ATOM      6  C   UNL     1      -1.642  -4.001  -1.467  0.00  0.00    +0.105 A 
ATOM      7  C   UNL     1      -1.662  -2.623  -1.345  0.00  0.00    +0.034 A 
BRANCH   6   8
ATOM      8  S   UNL     1      -1.949  -4.751  -3.031  0.00  0.00    +0.056 S 
ATOM      9  O   UNL     1      -1.624  -3.781  -4.018  0.00  0.00    -0.153 OA
ATOM     10  O   UNL     1      -1.339  -6.034  -2.994  0.00  0.00    -0.153 OA
BRANCH   8  11
ATOM     11  N   UNL     1      -3.582  -5.007  -3.140  0.00  0.00    -0.204 NA
ATOM     12  H   UNL     1      -4.163  -4.748  -2.408  0.00  0.00    +0.144 HD
ATOM     13  H   UNL     1      -3.957  -5.417  -3.935  0.00  0.00    +0.144 HD
ENDBRANCH   8  11
ENDBRANCH   6   8
ENDBRANCH   1   2
BRANCH   1  14
ATOM     14  N   UNL     1      -2.082  -0.162   1.273  0.00  0.00    -0.308 N 
ATOM     15  C   UNL     1      -2.664   1.047   1.400  0.00  0.00    +0.214 C 
ATOM     16  O   UNL     1      -2.651   1.827   0.471  0.00  0.00    -0.276 OA
ATOM     17  H   UNL     1      -2.092  -0.785   2.016  0.00  0.00    +0.149 HD
BRANCH  15  18
ATOM     18  C   UNL     1      -3.330   1.430   2.696  0.00  0.00    +0.099 C 
BRANCH  18  19
ATOM     19  C   UNL     1      -3.907   2.842   2.576  0.00  0.00    +0.000 C 
ATOM     20  C   UNL     1      -5.023   2.849   1.529  0.00  0.00    +0.008 C 
BRANCH  19  21
ATOM     21  C   UNL     1      -4.474   3.278   3.928  0.00  0.00    -0.035 C 
ATOM     22  C   UNL     1      -3.358   3.271   4.975  0.00  0.00    +0.011 C 
ATOM     23  C   UNL     1      -5.051   4.690   3.808  0.00  0.00    +0.011 C 
ATOM     24  C   UNL     1      -5.580   2.310   4.354  0.00  0.00    +0.011 C 
ENDBRANCH  19  21
ENDBRANCH  18  19
ENDBRANCH  15  18
ENDBRANCH   1  14
BRANCH   1  26
ATOM     25  C   UNL     1      -0.019   1.526   0.010  0.00  0.00    +0.006 C 
ATOM     26  C   UNL     1       0.002  -0.004   0.002  0.00  0.00    +0.024 C 
ENDBRANCH   1  26
TORSDOF 8
