REMARK  Name = ZINC01374892
REMARK  11 active torsions:
REMARK  status: ('A' for Active; 'I' for Inactive)
REMARK    1  A    between atoms: C_1  and  C_2
REMARK    2  A    between atoms: C_2  and  C_3
REMARK    3  A    between atoms: C_3  and  C_5
REMARK    4  A    between atoms: C_3  and  N_18
REMARK    5  A    between atoms: N_9  and  C_10
REMARK    6  A    between atoms: C_10  and  C_11
REMARK    7  A    between atoms: C_11  and  C_12
REMARK    8  A    between atoms: N_18  and  C_19
REMARK    9  A    between atoms: N_18  and  C_25
REMARK   10  A    between atoms: C_19  and  C_20
REMARK   11  A    between atoms: C_25  and  C_26
REMARK                            x       y       z     vdW  Elec       q    Type
REMARK                         _______ _______ _______ _____ _____    ______ ____
ROOT
ATOM      1  N   UNL     1      -2.141  -0.241   1.634  0.00  0.00    -0.284 NA
ENDROOT
BRANCH   1   2
ATOM      2  C   UNL     1      -1.768  -0.924   0.389  0.00  0.00    +0.127 C 
BRANCH   2   3
ATOM      3  C   UNL     1      -2.212  -2.363   0.453  0.00  0.00    +0.168 A 
ATOM      4  N   UNL     1      -2.072  -3.181   1.467  0.00  0.00    -0.112 NA
ATOM      5  N   UNL     1      -2.578  -4.318   1.134  0.00  0.00    -0.023 NA
ATOM      6  N   UNL     1      -3.037  -4.247  -0.066  0.00  0.00    -0.044 NA
ATOM      7  N   UNL     1      -2.836  -3.056  -0.519  0.00  0.00    -0.227 N 
BRANCH   7   8
ATOM      8  C   UNL     1      -3.211  -2.553  -1.842  0.00  0.00    +0.152 C 
BRANCH   8   9
ATOM      9  C   UNL     1      -2.064  -2.796  -2.825  0.00  0.00    +0.058 C 
BRANCH   9  10
ATOM     10  C   UNL     1      -2.450  -2.278  -4.186  0.00  0.00    -0.046 A 
ATOM     11  C   UNL     1      -3.095  -3.108  -5.084  0.00  0.00    +0.004 A 
ATOM     12  C   UNL     1      -3.449  -2.634  -6.333  0.00  0.00    +0.000 A 
ATOM     13  C   UNL     1      -3.160  -1.329  -6.684  0.00  0.00    +0.000 A 
ATOM     14  C   UNL     1      -2.516  -0.498  -5.786  0.00  0.00    +0.000 A 
ATOM     15  C   UNL     1      -2.165  -0.971  -4.535  0.00  0.00    +0.004 A 
ENDBRANCH   9  10
ENDBRANCH   8   9
ENDBRANCH   7   8
ENDBRANCH   2   3
BRANCH   2  17
ATOM     16  C   UNL     1       0.194   0.592   0.086  0.00  0.00    +0.006 C 
ATOM     17  C   UNL     1      -0.250  -0.867   0.210  0.00  0.00    +0.023 C 
ENDBRANCH   2  17
ENDBRANCH   1   2
BRANCH   1  18
ATOM     18  C   UNL     1      -1.191  -0.552   2.710  0.00  0.00    +0.127 C 
BRANCH  18  19
ATOM     19  C   UNL     1      -1.801  -0.189   4.040  0.00  0.00    +0.004 A 
ATOM     20  C   UNL     1      -2.549  -0.953   4.872  0.00  0.00    +0.012 A 
ATOM     21  C   UNL     1      -3.008  -0.405   6.055  0.00  0.00    +0.008 A 
ATOM     22  C   UNL     1      -2.695   0.881   6.348  0.00  0.00    +0.045 A 
ATOM     23  S   UNL     1      -1.719   1.356   4.930  0.00  0.00    -0.100 S 
ENDBRANCH  18  19
ENDBRANCH   1  18
BRANCH   1  24
ATOM     24  C   UNL     1      -2.247   1.210   1.427  0.00  0.00    +0.126 C 
BRANCH  24  25
ATOM     25  C   UNL     1      -3.551   1.526   0.742  0.00  0.00    +0.031 A 
ATOM     26  C   UNL     1      -4.645   1.839   1.483  0.00  0.00    +0.020 A 
ATOM     27  C   UNL     1      -5.896   2.142   0.788  0.00  0.00    +0.003 A 
ATOM     28  C   UNL     1      -7.056   2.470   1.500  0.00  0.00    +0.059 A 
ATOM     29  C   UNL     1      -8.221   2.752   0.818  0.00  0.00    +0.163 A 
ATOM     30  C   UNL     1      -8.247   2.712  -0.579  0.00  0.00    +0.164 A 
ATOM     31  C   UNL     1      -7.105   2.386  -1.291  0.00  0.00    +0.075 A 
ATOM     32  C   UNL     1      -5.924   2.099  -0.619  0.00  0.00    +0.053 A 
ATOM     33  N   UNL     1      -4.776   1.772  -1.313  0.00  0.00    -0.322 N 
ATOM     34  H   UNL     1      -4.795   1.743  -2.282  0.00  0.00    +0.169 HD
ATOM     35  C   UNL     1      -3.630   1.501  -0.665  0.00  0.00    +0.254 A 
ATOM     36  O   UNL     1      -2.634   1.221  -1.310  0.00  0.00    -0.268 OA
ATOM     37  O   UNL     1      -9.390   2.996  -1.259  0.00  0.00    -0.485 OA
ATOM     38  C   UNL     1     -10.611   2.954  -0.514  0.00  0.00    +0.270 C 
ATOM     39  C   UNL     1     -10.398   3.711   0.804  0.00  0.00    +0.270 C 
ATOM     40  O   UNL     1      -9.342   3.067   1.525  0.00  0.00    -0.485 OA
ENDBRANCH  24  25
ENDBRANCH   1  24
TORSDOF 10
