REMARK  Name = ZINC20289252
REMARK  16 active torsions:
REMARK  status: ('A' for Active; 'I' for Inactive)
REMARK    1  A    between atoms: C_1  and  C_2
REMARK    2  A    between atoms: C_2  and  N_3
REMARK    3  A    between atoms: N_3  and  C_4
REMARK    4  A    between atoms: N_3  and  C_6
REMARK    5  A    between atoms: C_4  and  C_5
REMARK    6  A    between atoms: C_6  and  C_7
REMARK    7  A    between atoms: C_7  and  N_8
REMARK    8  A    between atoms: C_9  and  C_11
REMARK    9  A    between atoms: N_13  and  C_14
REMARK   10  A    between atoms: C_14  and  C_16
REMARK   11  A    between atoms: C_14  and  C_17
REMARK   12  A    between atoms: C_17  and  C_19
REMARK   13  A    between atoms: C_17  and  N_24
REMARK   14  A    between atoms: N_27  and  C_30
REMARK   15  A    between atoms: C_33  and  O_36
REMARK   16  A    between atoms: O_36  and  C_37
REMARK                            x       y       z     vdW  Elec       q    Type
REMARK                         _______ _______ _______ _____ _____    ______ ____
ROOT
ATOM      1  C   UNL     1       2.207  -8.651   4.238  0.00  0.00    +0.114 C 
ENDROOT
BRANCH   1   2
ATOM      2  N   UNL     1       2.096 -10.111   4.353  0.00  0.00    -0.290 NA
ATOM      3  C   UNL     1       0.720 -10.510   4.681  0.00  0.00    +0.104 C 
ATOM      4  C   UNL     1       0.605 -12.036   4.613  0.00  0.00    +0.120 C 
ATOM      5  N   UNL     1       1.644 -12.622   5.474  0.00  0.00    -0.327 N 
ATOM      6  C   UNL     1       3.032 -12.168   5.296  0.00  0.00    +0.120 C 
ATOM      7  C   UNL     1       3.052 -10.636   5.337  0.00  0.00    +0.104 C 
BRANCH   5   8
ATOM      8  C   UNL     1       1.321 -13.585   6.436  0.00  0.00    +0.030 A 
ATOM      9  C   UNL     1       0.032 -14.099   6.499  0.00  0.00    +0.027 A 
ATOM     10  C   UNL     1      -0.286 -15.050   7.449  0.00  0.00    +0.047 A 
ATOM     11  C   UNL     1       0.681 -15.492   8.339  0.00  0.00    +0.120 A 
ATOM     12  C   UNL     1       1.969 -14.980   8.277  0.00  0.00    +0.047 A 
ATOM     13  C   UNL     1       2.290 -14.033   7.324  0.00  0.00    +0.027 A 
BRANCH  11  14
ATOM     14  O   UNL     1       0.367 -16.429   9.274  0.00  0.00    -0.495 OA
ATOM     15  C   UNL     1       1.412 -16.839  10.158  0.00  0.00    +0.277 C 
ENDBRANCH  11  14
ENDBRANCH   5   8
ENDBRANCH   1   2
BRANCH   1  16
ATOM     16  C   UNL     1       3.575  -8.291   3.716  0.00  0.00    +0.009 A 
ATOM     17  C   UNL     1       4.391  -7.276   4.091  0.00  0.00    +0.013 A 
ATOM     18  C   UNL     1       5.617  -7.137   3.467  0.00  0.00    +0.008 A 
ATOM     19  C   UNL     1       5.966  -8.019   2.499  0.00  0.00    +0.045 A 
ATOM     20  S   UNL     1       4.542  -9.095   2.450  0.00  0.00    -0.100 S 
ENDBRANCH   1  16
BRANCH   1  21
ATOM     21  C   UNL     1       1.140  -8.132   3.272  0.00  0.00    +0.092 C 
ATOM     22  C   UNL     1       1.292  -6.618   3.110  0.00  0.00    +0.030 C 
BRANCH  21  25
ATOM     23  C   UNL     1       0.250  -8.896   1.137  0.00  0.00    +0.299 C 
ATOM     24  O   UNL     1      -0.834  -8.460   1.466  0.00  0.00    -0.265 OA
ATOM     25  N   UNL     1       1.303  -8.782   1.970  0.00  0.00    -0.303 N 
ATOM     26  H   UNL     1       2.169  -9.130   1.706  0.00  0.00    +0.149 HD
BRANCH  23  28
ATOM     27  N   UNL     1      -0.637  -9.673  -1.025  0.00  0.00    -0.309 N 
ATOM     28  C   UNL     1       0.416  -9.559  -0.192  0.00  0.00    +0.299 C 
ATOM     29  O   UNL     1       1.500  -9.994  -0.522  0.00  0.00    -0.265 OA
ATOM     30  H   UNL     1      -1.504  -9.325  -0.762  0.00  0.00    +0.149 HD
BRANCH  27  31
ATOM     31  C   UNL     1      -0.474 -10.323  -2.328  0.00  0.00    +0.086 C 
BRANCH  31  32
ATOM     32  C   UNL     1      -1.812 -10.320  -3.070  0.00  0.00    -0.060 C 
BRANCH  32  33
ATOM     33  N   UNL     1      -1.649 -10.972  -4.377  0.00  0.00    +0.380 N 
ATOM     34  H   UNL     1      -0.905 -10.520  -4.887  0.00  0.00    -0.082 HD
BRANCH  33  36
ATOM     35  C   UNL     1      -1.008 -13.034  -5.531  0.00  0.00    -0.017 C 
ATOM     36  C   UNL     1      -1.317 -12.389  -4.179  0.00  0.00    -0.082 C 
ENDBRANCH  33  36
BRANCH  33  37
ATOM     37  C   UNL     1      -2.901 -10.864  -5.138  0.00  0.00    -0.082 C 
ATOM     38  C   UNL     1      -3.172  -9.395  -5.468  0.00  0.00    -0.017 C 
ENDBRANCH  33  37
ENDBRANCH  32  33
ENDBRANCH  31  32
ENDBRANCH  27  31
ENDBRANCH  23  28
ENDBRANCH  21  25
ENDBRANCH   1  21
TORSDOF 12
