REMARK  Name = ZINC00658900
REMARK  7 active torsions:
REMARK  status: ('A' for Active; 'I' for Inactive)
REMARK    1  A    between atoms: C_1  and  C_2
REMARK    2  A    between atoms: C_2  and  C_3
REMARK    3  A    between atoms: C_2  and  N_4
REMARK    4  A    between atoms: C_5  and  C_7
REMARK    5  A    between atoms: C_8  and  N_28
REMARK    6  A    between atoms: C_10  and  C_21
REMARK    7  A    between atoms: C_12  and  C_16
REMARK                            x       y       z     vdW  Elec       q    Type
REMARK                         _______ _______ _______ _____ _____    ______ ____
ROOT
ATOM      1  C   UNL     1       1.735   2.113   0.223  0.00  0.00    +0.097 A 
ATOM      2  C   UNL     1       2.285   0.855   0.082  0.00  0.00    +0.054 A 
ATOM      3  C   UNL     1       1.388  -0.277  -0.060  0.00  0.00    +0.037 A 
ATOM      4  C   UNL     1       1.719  -1.659  -0.218  0.00  0.00    -0.004 A 
ATOM      5  C   UNL     1       0.696  -2.583  -0.337  0.00  0.00    +0.038 A 
ATOM      6  C   UNL     1      -0.637  -2.161  -0.302  0.00  0.00    +0.079 A 
ATOM      7  N   UNL     1      -0.929  -0.872  -0.155  0.00  0.00    -0.239 NA
ATOM      8  C   UNL     1       0.011   0.040  -0.039  0.00  0.00    +0.112 A 
ATOM      9  S   UNL     1      -0.019   1.804   0.167  0.00  0.00    -0.062 S 
ENDROOT
BRANCH   4  10
ATOM     10  C   UNL     1       3.134  -2.095  -0.254  0.00  0.00    -0.017 A 
ATOM     11  C   UNL     1       4.004  -1.572  -1.210  0.00  0.00    +0.011 A 
ATOM     12  C   UNL     1       5.322  -1.977  -1.236  0.00  0.00    +0.039 A 
ATOM     13  C   UNL     1       5.780  -2.910  -0.320  0.00  0.00    +0.123 A 
ATOM     14  C   UNL     1       4.919  -3.438   0.629  0.00  0.00    +0.039 A 
ATOM     15  C   UNL     1       3.600  -3.035   0.666  0.00  0.00    +0.011 A 
ATOM     16  F   UNL     1       7.071  -3.308  -0.352  0.00  0.00    -0.205 F 
ENDBRANCH   4  10
BRANCH   6  17
ATOM     17  C   UNL     1      -1.724  -3.150  -0.430  0.00  0.00    +0.038 A 
ATOM     18  C   UNL     1      -3.080  -2.950  -0.422  0.00  0.00    +0.017 A 
ATOM     19  C   UNL     1      -3.910  -4.038  -0.558  0.00  0.00    +0.008 A 
ATOM     20  C   UNL     1      -3.364  -5.275  -0.696  0.00  0.00    +0.046 A 
ATOM     21  S   UNL     1      -1.615  -4.920  -0.643  0.00  0.00    -0.095 S 
ENDBRANCH   6  17
BRANCH   1  23
ATOM     22  N   UNL     1       1.694   4.490   0.500  0.00  0.00    -0.309 N 
ATOM     23  C   UNL     1       2.404   3.352   0.375  0.00  0.00    +0.253 C 
ATOM     24  O   UNL     1       3.621   3.388   0.393  0.00  0.00    -0.270 OA
ATOM     25  H   UNL     1       0.724   4.461   0.486  0.00  0.00    +0.149 HD
BRANCH  22  27
ATOM     26  C   UNL     1       1.481   6.904   0.166  0.00  0.00    +0.027 C 
ATOM     27  C   UNL     1       2.386   5.772   0.657  0.00  0.00    +0.067 C 
ATOM     28  C   UNL     1       2.722   5.992   2.134  0.00  0.00    +0.027 C 
ENDBRANCH  22  27
ENDBRANCH   1  23
BRANCH   2  29
ATOM     29  N   UNL     1       3.662   0.677   0.077  0.00  0.00    -0.356 N 
ATOM     30  H   UNL     1       4.242   1.385  -0.244  0.00  0.00    +0.142 HD
ATOM     31  H   UNL     1       4.044  -0.156   0.395  0.00  0.00    +0.142 HD
ENDBRANCH   2  29
TORSDOF 5
