REMARK  Name = ZINC23353924
REMARK  6 active torsions:
REMARK  status: ('A' for Active; 'I' for Inactive)
REMARK    1  A    between atoms: C_1  and  N_2
REMARK    2  A    between atoms: C_5  and  C_7
REMARK    3  A    between atoms: C_17  and  N_21
REMARK    4  A    between atoms: N_21  and  C_22
REMARK    5  A    between atoms: C_22  and  C_23
REMARK    6  A    between atoms: C_23  and  N_29
REMARK                            x       y       z     vdW  Elec       q    Type
REMARK                         _______ _______ _______ _____ _____    ______ ____
ROOT
ATOM      1  C   UNL     1      -0.172   1.257   0.214  0.00  0.00    +0.172 C 
ATOM      2  N   UNL     1      -0.181  -0.206   0.143  0.00  0.00    -0.270 N 
ATOM      3  C   UNL     1      -0.151  -0.922  -0.993  0.00  0.00    +0.043 A 
ATOM      4  C   UNL     1      -0.175  -2.232  -0.642  0.00  0.00    +0.004 A 
ATOM      5  C   UNL     1      -0.217  -2.255   0.762  0.00  0.00    +0.151 A 
ATOM      6  N   UNL     1      -0.213  -0.995   1.162  0.00  0.00    -0.166 NA
ATOM      7  C   UNL     1      -0.159  -3.377  -1.617  0.00  0.00    +0.023 C 
ATOM      8  C   UNL     1      -0.521  -2.833  -3.005  0.00  0.00    -0.067 C 
ATOM      9  C   UNL     1       0.337  -1.603  -3.312  0.00  0.00    -0.009 C 
ATOM     10  C   UNL     1      -0.100  -0.435  -2.418  0.00  0.00    +0.054 C 
ENDROOT
BRANCH   5  11
ATOM     11  C   UNL     1      -0.253  -3.454   1.624  0.00  0.00    +0.267 C 
ATOM     12  O   UNL     1      -0.334  -4.560   1.124  0.00  0.00    -0.268 OA
ATOM     13  N   UNL     1      -0.195  -3.323   2.964  0.00  0.00    -0.296 N 
ATOM     14  C   UNL     1      -0.235  -1.994   3.532  0.00  0.00    +0.108 C 
ATOM     15  C   UNL     1       1.205  -1.435   3.650  0.00  0.00    +0.019 C 
ATOM     16  C   UNL     1       1.939  -2.136   4.714  0.00  0.00    +0.002 C 
ATOM     17  C   UNL     1       2.133  -3.629   4.466  0.00  0.00    +0.002 C 
ATOM     18  C   UNL     1       0.913  -4.378   4.944  0.00  0.00    +0.019 C 
ATOM     19  C   UNL     1      -0.099  -4.542   3.791  0.00  0.00    +0.108 C 
ENDBRANCH   5  11
BRANCH   8  20
ATOM     20  N   UNL     1      -0.270  -3.869  -4.017  0.00  0.00    +0.382 N 
ATOM     21  H   UNL     1       0.719  -4.067  -4.057  0.00  0.00    -0.085 HD
ATOM     22  H   UNL     1      -0.772  -4.708  -3.771  0.00  0.00    -0.085 HD
BRANCH  20  23
ATOM     23  C   UNL     1      -0.727  -3.392  -5.329  0.00  0.00    -0.060 C 
BRANCH  23  24
ATOM     24  C   UNL     1      -0.582  -4.515  -6.359  0.00  0.00    +0.007 C 
ATOM     25  C   UNL     1      -1.052  -4.016  -7.727  0.00  0.00    +0.020 C 
ATOM     26  C   UNL     1      -2.519  -3.592  -7.638  0.00  0.00    +0.002 C 
ATOM     27  C   UNL     1      -3.372  -4.789  -7.211  0.00  0.00    +0.000 C 
ATOM     28  C   UNL     1      -2.901  -5.287  -5.843  0.00  0.00    +0.002 C 
ATOM     29  C   UNL     1      -1.434  -5.712  -5.932  0.00  0.00    +0.020 C 
BRANCH  24  30
ATOM     30  N   UNL     1       0.827  -4.922  -6.443  0.00  0.00    -0.294 NA
ATOM     31  C   UNL     1       1.700  -3.758  -6.655  0.00  0.00    +0.113 C 
ATOM     32  C   UNL     1       3.159  -4.220  -6.678  0.00  0.00    +0.175 C 
ATOM     33  O   UNL     1       3.325  -5.213  -7.694  0.00  0.00    -0.377 OA
ATOM     34  C   UNL     1       2.490  -6.360  -7.518  0.00  0.00    +0.175 C 
ATOM     35  C   UNL     1       1.024  -5.921  -7.504  0.00  0.00    +0.113 C 
ENDBRANCH  24  30
ENDBRANCH  23  24
ENDBRANCH  20  23
ENDBRANCH   8  20
TORSDOF 5
