REMARK  Name = ZINC04878197
REMARK  7 active torsions:
REMARK  status: ('A' for Active; 'I' for Inactive)
REMARK    1  A    between atoms: C_1  and  S_2
REMARK    2  A    between atoms: S_2  and  C_3
REMARK    3  A    between atoms: N_16  and  C_17
REMARK    4  A    between atoms: C_17  and  C_18
REMARK    5  A    between atoms: C_18  and  C_19
REMARK    6  A    between atoms: C_19  and  C_20
REMARK    7  A    between atoms: N_22  and  C_23
REMARK                            x       y       z     vdW  Elec       q    Type
REMARK                         _______ _______ _______ _____ _____    ______ ____
ROOT
ATOM      1  C   UNL     1      -2.791  -2.474   0.016  0.00  0.00    +0.172 A 
ATOM      2  N   UNL     1      -1.572  -2.001   0.007  0.00  0.00    -0.222 NA
ATOM      3  C   UNL     1      -1.317  -0.663   0.012  0.00  0.00    +0.094 A 
ATOM      4  C   UNL     1       0.002  -0.004   0.002  0.00  0.00    +0.015 A 
ATOM      5  C   UNL     1       1.272  -0.624  -0.015  0.00  0.00    +0.011 A 
ATOM      6  C   UNL     1       2.410   0.121  -0.023  0.00  0.00    +0.001 A 
ATOM      7  C   UNL     1       2.366   1.509  -0.016  0.00  0.00    +0.001 A 
ATOM      8  C   UNL     1       1.144   2.150   0.003  0.00  0.00    +0.016 A 
ATOM      9  C   UNL     1      -0.017   1.402   0.010  0.00  0.00    +0.022 A 
ATOM     10  S   UNL     1      -1.742   1.819   0.036  0.00  0.00    -0.081 S 
ATOM     11  C   UNL     1      -2.424   0.183   0.028  0.00  0.00    +0.103 A 
ATOM     12  C   UNL     1      -3.728  -0.324   0.038  0.00  0.00    +0.269 A 
ATOM     13  O   UNL     1      -4.691   0.424   0.052  0.00  0.00    -0.266 OA
ATOM     14  N   UNL     1      -3.892  -1.668   0.032  0.00  0.00    -0.287 N 
ENDROOT
BRANCH   1  16
ATOM     15  C   UNL     1      -1.295  -4.765  -0.013  0.00  0.00    +0.093 C 
ATOM     16  S   UNL     1      -3.021  -4.221   0.008  0.00  0.00    -0.091 S 
ENDBRANCH   1  16
BRANCH  14  17
ATOM     17  C   UNL     1      -5.237  -2.251   0.041  0.00  0.00    +0.128 C 
BRANCH  17  18
ATOM     18  C   UNL     1      -5.691  -2.462   1.487  0.00  0.00    +0.031 C 
BRANCH  18  19
ATOM     19  C   UNL     1      -7.094  -3.070   1.497  0.00  0.00    +0.097 C 
BRANCH  19  20
ATOM     20  C   UNL     1      -7.542  -3.278   2.921  0.00  0.00    +0.213 C 
ATOM     21  O   UNL     1      -6.809  -2.971   3.838  0.00  0.00    -0.276 OA
ATOM     22  N   UNL     1      -8.755  -3.807   3.176  0.00  0.00    -0.312 N 
ATOM     23  H   UNL     1      -9.340  -4.053   2.443  0.00  0.00    +0.149 HD
BRANCH  22  24
ATOM     24  C   UNL     1      -9.190  -4.009   4.560  0.00  0.00    +0.073 C 
ATOM     25  C   UNL     1      -8.661  -5.351   5.070  0.00  0.00    +0.022 C 
ATOM     26  C   UNL     1      -9.114  -5.562   6.516  0.00  0.00    +0.002 C 
ATOM     27  C   UNL     1     -10.643  -5.561   6.575  0.00  0.00    +0.000 C 
ATOM     28  C   UNL     1     -11.172  -4.219   6.066  0.00  0.00    +0.002 C 
ATOM     29  C   UNL     1     -10.718  -4.007   4.620  0.00  0.00    +0.022 C 
ENDBRANCH  22  24
ENDBRANCH  19  20
ENDBRANCH  18  19
ENDBRANCH  17  18
ENDBRANCH  14  17
TORSDOF 6
