REMARK  Name = ZINC35710358
REMARK  13 active torsions:
REMARK  status: ('A' for Active; 'I' for Inactive)
REMARK    1  A    between atoms: C_1  and  C_2
REMARK    2  A    between atoms: C_2  and  C_3
REMARK    3  A    between atoms: C_3  and  N_4
REMARK    4  A    between atoms: C_5  and  C_38
REMARK    5  A    between atoms: C_6  and  C_31
REMARK    6  A    between atoms: C_7  and  C_12
REMARK    7  A    between atoms: C_15  and  N_18
REMARK    8  A    between atoms: C_19  and  C_21
REMARK    9  A    between atoms: C_31  and  O_33
REMARK   10  A    between atoms: O_33  and  C_34
REMARK   11  A    between atoms: C_34  and  C_35
REMARK   12  A    between atoms: C_35  and  O_36
REMARK   13  A    between atoms: O_36  and  C_37
REMARK                            x       y       z     vdW  Elec       q    Type
REMARK                         _______ _______ _______ _____ _____    ______ ____
ROOT
ATOM      1  C   UNL     1       0.347  -5.775  -0.028  0.00  0.00    -0.022 A 
ATOM      2  C   UNL     1      -0.391  -5.225   1.004  0.00  0.00    +0.007 A 
ATOM      3  C   UNL     1      -0.835  -6.024   2.039  0.00  0.00    +0.023 A 
ATOM      4  C   UNL     1      -0.541  -7.381   2.042  0.00  0.00    +0.033 A 
ATOM      5  C   UNL     1       0.200  -7.930   1.004  0.00  0.00    +0.023 A 
ATOM      6  C   UNL     1       0.638  -7.127  -0.030  0.00  0.00    +0.007 A 
ENDROOT
BRANCH   1  10
ATOM      7  N   UNL     1       0.961  -2.137  -1.135  0.00  0.00    -0.259 N 
ATOM      8  C   UNL     1       2.059  -2.824  -0.703  0.00  0.00    +0.024 C 
ATOM      9  C   UNL     1       2.075  -4.174  -0.683  0.00  0.00    +0.078 C 
ATOM     10  C   UNL     1       0.831  -4.900  -1.155  0.00  0.00    +0.143 C 
ATOM     11  N   UNL     1      -0.299  -4.068  -1.600  0.00  0.00    -0.288 N 
ATOM     12  C   UNL     1      -0.165  -2.727  -1.557  0.00  0.00    +0.307 C 
ATOM     13  O   UNL     1      -1.093  -2.031  -1.919  0.00  0.00    -0.252 OA
ATOM     14  C   UNL     1       3.275  -2.062  -0.241  0.00  0.00    +0.061 C 
ATOM     15  H   UNL     1      -1.122  -4.474  -1.914  0.00  0.00    +0.151 HD
BRANCH   9  16
ATOM     16  C   UNL     1       3.212  -4.886  -0.237  0.00  0.00    +0.339 C 
ATOM     17  O   UNL     1       4.200  -4.282   0.138  0.00  0.00    -0.245 OA
BRANCH  16  18
ATOM     18  O   UNL     1       3.203  -6.235  -0.227  0.00  0.00    -0.459 OA
BRANCH  18  19
ATOM     19  C   UNL     1       4.386  -6.889   0.236  0.00  0.00    +0.260 C 
BRANCH  19  20
ATOM     20  C   UNL     1       4.188  -8.405   0.176  0.00  0.00    +0.200 C 
BRANCH  20  21
ATOM     21  O   UNL     1       4.040  -8.812  -1.186  0.00  0.00    -0.380 OA
ATOM     22  C   UNL     1       3.848 -10.218  -1.355  0.00  0.00    +0.194 C 
ENDBRANCH  20  21
ENDBRANCH  19  20
ENDBRANCH  18  19
ENDBRANCH  16  18
ENDBRANCH   9  16
BRANCH   7  23
ATOM     23  C   UNL     1       1.014  -0.673  -1.129  0.00  0.00    +0.114 C 
BRANCH  23  25
ATOM     24  C   UNL     1       1.739   1.347  -2.408  0.00  0.00    +0.005 C 
ATOM     25  C   UNL     1       1.683  -0.182  -2.414  0.00  0.00    +0.016 C 
ENDBRANCH  23  25
ENDBRANCH   7  23
ENDBRANCH   1  10
BRANCH   4  26
ATOM     26  N   UNL     1      -0.990  -8.193   3.090  0.00  0.00    -0.285 N 
ATOM     27  C   UNL     1      -2.184  -7.951   3.666  0.00  0.00    +0.223 C 
ATOM     28  O   UNL     1      -2.834  -6.983   3.332  0.00  0.00    -0.275 OA
ATOM     29  H   UNL     1      -0.442  -8.930   3.401  0.00  0.00    +0.155 HD
BRANCH  27  30
ATOM     30  C   UNL     1      -2.712  -8.883   4.727  0.00  0.00    +0.048 C 
ATOM     31  C   UNL     1      -2.862 -10.288   4.142  0.00  0.00    +0.019 C 
ATOM     32  C   UNL     1      -3.397 -11.234   5.218  0.00  0.00    -0.009 C 
ATOM     33  C   UNL     1      -4.760 -10.736   5.704  0.00  0.00    +0.007 C 
ATOM     34  C   UNL     1      -4.610  -9.330   6.289  0.00  0.00    -0.009 C 
ATOM     35  C   UNL     1      -4.074  -8.384   5.212  0.00  0.00    +0.019 C 
ATOM     36  C   UNL     1      -3.632  -9.369   7.465  0.00  0.00    +0.007 C 
ATOM     37  C   UNL     1      -2.270  -9.868   6.980  0.00  0.00    -0.009 C 
ATOM     38  C   UNL     1      -2.420 -11.273   6.395  0.00  0.00    +0.007 C 
ATOM     39  C   UNL     1      -1.734  -8.922   5.903  0.00  0.00    +0.019 C 
ENDBRANCH  27  30
ENDBRANCH   4  26
TORSDOF 10
