REMARK  Name = ZINC35834625
REMARK  10 active torsions:
REMARK  status: ('A' for Active; 'I' for Inactive)
REMARK    1  A    between atoms: C_1  and  O_2
REMARK    2  A    between atoms: O_2  and  C_3
REMARK    3  A    between atoms: C_6  and  O_37
REMARK    4  A    between atoms: C_7  and  C_9
REMARK    5  A    between atoms: N_14  and  C_17
REMARK    6  A    between atoms: N_20  and  C_23
REMARK    7  A    between atoms: C_23  and  C_24
REMARK    8  A    between atoms: N_30  and  C_34
REMARK    9  A    between atoms: C_34  and  C_35
REMARK   10  A    between atoms: O_37  and  C_38
REMARK                            x       y       z     vdW  Elec       q    Type
REMARK                         _______ _______ _______ _____ _____    ______ ____
ROOT
ATOM      1  C   UNL     1       1.323  -4.108  -2.285  0.00  0.00    +0.145 C 
ATOM      2  C   UNL     1       0.288  -4.560  -3.296  0.00  0.00    +0.058 C 
ATOM      3  C   UNL     1      -0.669  -5.411  -2.875  0.00  0.00    +0.043 C 
ATOM      4  C   UNL     1      -1.550  -5.687  -4.073  0.00  0.00    +0.159 C 
ATOM      5  N   UNL     1      -0.962  -4.896  -5.164  0.00  0.00    -0.289 N 
ATOM      6  C   UNL     1       0.109  -4.256  -4.661  0.00  0.00    +0.247 C 
ATOM      7  O   UNL     1       0.829  -3.512  -5.301  0.00  0.00    -0.270 OA
ATOM      8  N   UNL     1      -0.706  -5.853  -1.583  0.00  0.00    -0.253 N 
ATOM      9  C   UNL     1       0.183  -5.487  -0.650  0.00  0.00    +0.307 C 
ATOM     10  O   UNL     1       0.071  -5.933   0.476  0.00  0.00    -0.252 OA
ATOM     11  N   UNL     1       1.196  -4.641  -0.918  0.00  0.00    -0.288 N 
ATOM     12  H   UNL     1       1.828  -4.389  -0.227  0.00  0.00    +0.151 HD
ENDROOT
BRANCH   5  13
ATOM     13  C   UNL     1      -1.451  -4.821  -6.543  0.00  0.00    +0.073 C 
ATOM     14  C   UNL     1      -1.802  -3.369  -6.883  0.00  0.00    +0.004 C 
ATOM     15  C   UNL     1      -2.236  -3.284  -8.348  0.00  0.00    -0.077 C 
ATOM     16  N   UNL     1      -1.142  -3.740  -9.213  0.00  0.00    +0.382 N 
ATOM     17  C   UNL     1      -0.848  -5.153  -8.943  0.00  0.00    -0.077 C 
ATOM     18  C   UNL     1      -0.360  -5.309  -7.501  0.00  0.00    +0.004 C 
ATOM     19  H   UNL     1      -0.318  -3.186  -9.033  0.00  0.00    -0.081 HD
BRANCH  16  20
ATOM     20  C   UNL     1      -1.534  -3.584 -10.620  0.00  0.00    -0.043 C 
BRANCH  20  21
ATOM     21  C   UNL     1      -0.369  -3.935 -11.509  0.00  0.00    -0.064 A 
ATOM     22  C   UNL     1       0.531  -2.957 -11.887  0.00  0.00    +0.002 A 
ATOM     23  C   UNL     1       1.600  -3.279 -12.702  0.00  0.00    +0.000 A 
ATOM     24  C   UNL     1       1.769  -4.579 -13.139  0.00  0.00    +0.000 A 
ATOM     25  C   UNL     1       0.869  -5.558 -12.761  0.00  0.00    +0.000 A 
ATOM     26  C   UNL     1      -0.198  -5.236 -11.942  0.00  0.00    +0.002 A 
ENDBRANCH  20  21
ENDBRANCH  16  20
ENDBRANCH   5  13
BRANCH   1  31
ATOM     27  C   UNL     1       0.606  -0.608  -1.056  0.00  0.00    +0.121 A 
ATOM     28  C   UNL     1       1.173   0.161  -2.062  0.00  0.00    +0.049 A 
ATOM     29  C   UNL     1       1.786  -0.452  -3.138  0.00  0.00    +0.049 A 
ATOM     30  C   UNL     1       1.835  -1.836  -3.211  0.00  0.00    +0.126 A 
ATOM     31  C   UNL     1       1.269  -2.604  -2.205  0.00  0.00    +0.023 A 
ATOM     32  C   UNL     1       0.661  -1.991  -1.127  0.00  0.00    +0.055 A 
BRANCH  27  34
ATOM     33  C   UNL     1      -0.017   1.425   0.010  0.00  0.00    +0.277 C 
ATOM     34  O   UNL     1       0.002  -0.004   0.002  0.00  0.00    -0.495 OA
ENDBRANCH  27  34
BRANCH  30  35
ATOM     35  O   UNL     1       2.439  -2.439  -4.270  0.00  0.00    -0.495 OA
ATOM     36  C   UNL     1       3.000  -1.586  -5.269  0.00  0.00    +0.277 C 
ENDBRANCH  30  35
ENDBRANCH   1  31
BRANCH   8  37
ATOM     37  C   UNL     1      -1.775  -6.777  -1.197  0.00  0.00    +0.141 C 
BRANCH  37  38
ATOM     38  C   UNL     1      -1.317  -8.195  -1.417  0.00  0.00    -0.015 C 
ATOM     39  C   UNL     1      -1.356  -9.057  -0.432  0.00  0.00    +0.005 C 
ENDBRANCH  37  38
ENDBRANCH   8  37
TORSDOF 8
