REMARK  Name = ZINC35971620
REMARK  11 active torsions:
REMARK  status: ('A' for Active; 'I' for Inactive)
REMARK    1  A    between atoms: C_1  and  C_2
REMARK    2  A    between atoms: C_2  and  C_3
REMARK    3  A    between atoms: C_2  and  C_4
REMARK    4  A    between atoms: C_4  and  C_6
REMARK    5  A    between atoms: C_4  and  N_16
REMARK    6  A    between atoms: N_8  and  C_9
REMARK    7  A    between atoms: C_9  and  C_10
REMARK    8  A    between atoms: C_22  and  C_31
REMARK    9  A    between atoms: N_27  and  C_28
REMARK   10  A    between atoms: C_28  and  C_29
REMARK   11  A    between atoms: C_36  and  C_37
REMARK                            x       y       z     vdW  Elec       q    Type
REMARK                         _______ _______ _______ _____ _____    ______ ____
ROOT
ATOM      1  N   UNL     1       1.571  -2.138   1.459  0.00  0.00    -0.280 N 
ATOM      2  C   UNL     1       0.699  -2.608   2.546  0.00  0.00    +0.160 C 
ATOM      3  C   UNL     1       0.895  -4.107   2.580  0.00  0.00    +0.043 C 
ATOM      4  C   UNL     1       1.782  -4.397   1.607  0.00  0.00    +0.058 C 
ATOM      5  C   UNL     1       2.178  -3.220   0.938  0.00  0.00    +0.247 C 
ATOM      6  O   UNL     1       2.968  -3.187   0.013  0.00  0.00    -0.270 OA
ATOM      7  C   UNL     1       2.168  -5.849   1.414  0.00  0.00    +0.142 C 
ATOM      8  N   UNL     1       1.538  -6.831   2.313  0.00  0.00    -0.288 N 
ATOM      9  C   UNL     1       0.667  -6.387   3.240  0.00  0.00    +0.307 C 
ATOM     10  O   UNL     1       0.142  -7.190   3.986  0.00  0.00    -0.252 OA
ATOM     11  N   UNL     1       0.361  -5.089   3.366  0.00  0.00    -0.253 N 
ATOM     12  H   UNL     1       1.745  -7.776   2.239  0.00  0.00    +0.151 HD
ENDROOT
BRANCH   7  13
ATOM     13  C   UNL     1       1.833  -6.235  -0.003  0.00  0.00    -0.011 A 
ATOM     14  C   UNL     1       0.512  -6.354  -0.394  0.00  0.00    +0.006 A 
ATOM     15  C   UNL     1       0.205  -6.708  -1.694  0.00  0.00    +0.000 A 
ATOM     16  C   UNL     1       1.219  -6.943  -2.604  0.00  0.00    +0.001 A 
ATOM     17  C   UNL     1       2.539  -6.824  -2.214  0.00  0.00    +0.013 A 
ATOM     18  C   UNL     1       2.847  -6.465  -0.915  0.00  0.00    +0.060 A 
BRANCH  18  19
ATOM     19  C   UNL     1       4.287  -6.330  -0.491  0.00  0.00    +0.418 C 
ATOM     20  F   UNL     1       5.120  -6.572  -1.588  0.00  0.00    -0.166 F 
ATOM     21  F   UNL     1       4.511  -5.035  -0.011  0.00  0.00    -0.166 F 
ATOM     22  F   UNL     1       4.564  -7.256   0.520  0.00  0.00    -0.166 F 
ENDBRANCH  18  19
ENDBRANCH   7  13
BRANCH   1  23
ATOM     23  C   UNL     1       1.741  -0.751   1.020  0.00  0.00    +0.165 C 
BRANCH  23  24
ATOM     24  C   UNL     1       3.154  -0.306   1.298  0.00  0.00    +0.234 C 
ATOM     25  O   UNL     1       4.006  -1.126   1.566  0.00  0.00    -0.274 OA
ATOM     26  N   UNL     1       3.470   1.003   1.250  0.00  0.00    -0.311 N 
ATOM     27  H   UNL     1       2.779   1.663   1.082  0.00  0.00    +0.149 HD
BRANCH  26  28
ATOM     28  C   UNL     1       4.857   1.430   1.451  0.00  0.00    +0.135 C 
BRANCH  28  29
ATOM     29  C   UNL     1       4.942   2.954   1.347  0.00  0.00    +0.135 C 
ATOM     30  C   UNL     1       6.416   3.404   1.436  0.00  0.00    +0.035 C 
ATOM     31  C   UNL     1       6.316   4.692   2.297  0.00  0.00    +0.031 C 
ATOM     32  C   UNL     1       5.148   4.322   3.246  0.00  0.00    +0.160 C 
ATOM     33  O   UNL     1       4.237   3.556   2.439  0.00  0.00    -0.375 OA
ENDBRANCH  28  29
ENDBRANCH  26  28
ENDBRANCH  23  24
BRANCH  23  35
ATOM     34  C   UNL     1       0.077  -1.230  -0.781  0.00  0.00    +0.009 C 
ATOM     35  C   UNL     1       1.462  -0.653  -0.481  0.00  0.00    +0.012 C 
ATOM     36  C   UNL     1       1.508   0.814  -0.914  0.00  0.00    +0.009 C 
ENDBRANCH  23  35
ENDBRANCH   1  23
BRANCH  11  37
ATOM     37  C   UNL     1      -0.596  -4.700   4.404  0.00  0.00    +0.141 C 
BRANCH  37  38
ATOM     38  C   UNL     1      -1.992  -4.728   3.836  0.00  0.00    -0.015 C 
ATOM     39  C   UNL     1      -2.922  -5.442   4.418  0.00  0.00    +0.005 C 
ENDBRANCH  37  38
ENDBRANCH  11  37
TORSDOF 9
