REMARK  Name = ZINC41001659
REMARK  15 active torsions:
REMARK  status: ('A' for Active; 'I' for Inactive)
REMARK    1  A    between atoms: C_1  and  C_2
REMARK    2  A    between atoms: C_2  and  C_3
REMARK    3  A    between atoms: C_3  and  C_4
REMARK    4  A    between atoms: C_4  and  S_5
REMARK    5  A    between atoms: S_5  and  C_6
REMARK    6  A    between atoms: C_11  and  C_23
REMARK    7  A    between atoms: C_13  and  C_17
REMARK    8  A    between atoms: C_14  and  C_16
REMARK    9  A    between atoms: C_17  and  O_19
REMARK   10  A    between atoms: O_19  and  C_20
REMARK   11  A    between atoms: C_20  and  C_21
REMARK   12  A    between atoms: C_20  and  C_22
REMARK   13  A    between atoms: C_27  and  O_29
REMARK   14  A    between atoms: O_29  and  C_30
REMARK   15  A    between atoms: C_30  and  C_31
REMARK                            x       y       z     vdW  Elec       q    Type
REMARK                         _______ _______ _______ _____ _____    ______ ____
ROOT
ATOM      1  C   UNL     1       1.841  -4.399   2.151  0.00  0.00    +0.210 A 
ATOM      2  N   UNL     1       1.227  -5.144   1.221  0.00  0.00    -0.187 NA
ATOM      3  C   UNL     1       1.252  -6.399   1.582  0.00  0.00    +0.219 A 
ATOM      4  N   UNL     1       1.900  -6.482   2.770  0.00  0.00    -0.220 N 
ATOM      5  N   UNL     1       2.271  -5.184   3.115  0.00  0.00    -0.141 NA
ATOM      6  C   UNL     1       2.129  -7.739   3.479  0.00  0.00    +0.179 C 
ATOM      7  C   UNL     1       1.297  -8.826   2.853  0.00  0.00    +0.082 C 
ATOM      8  C   UNL     1       0.674  -8.684   1.673  0.00  0.00    +0.020 C 
ATOM      9  N   UNL     1       0.741  -7.522   0.946  0.00  0.00    -0.287 N 
ATOM     10  C   UNL     1      -0.125  -9.839   1.127  0.00  0.00    +0.061 C 
ATOM     11  H   UNL     1       0.442  -7.486   0.024  0.00  0.00    +0.155 HD
ENDROOT
BRANCH   6  12
ATOM     12  C   UNL     1       3.588  -8.107   3.389  0.00  0.00    -0.015 A 
ATOM     13  C   UNL     1       4.176  -8.303   2.153  0.00  0.00    +0.006 A 
ATOM     14  C   UNL     1       5.514  -8.642   2.068  0.00  0.00    +0.004 A 
ATOM     15  C   UNL     1       6.266  -8.785   3.218  0.00  0.00    +0.045 A 
ATOM     16  C   UNL     1       5.678  -8.589   4.459  0.00  0.00    +0.121 A 
ATOM     17  C   UNL     1       4.337  -8.244   4.542  0.00  0.00    +0.051 A 
BRANCH  16  18
ATOM     18  O   UNL     1       6.416  -8.730   5.591  0.00  0.00    -0.487 OA
BRANCH  18  19
ATOM     19  C   UNL     1       7.792  -9.081   5.430  0.00  0.00    +0.266 C 
BRANCH  19  20
ATOM     20  C   UNL     1       8.444  -9.192   6.784  0.00  0.00    +0.008 A 
ATOM     21  C   UNL     1       7.703  -8.967   7.929  0.00  0.00    +0.008 A 
ATOM     22  C   UNL     1       8.301  -9.069   9.171  0.00  0.00    +0.000 A 
ATOM     23  C   UNL     1       9.641  -9.395   9.268  0.00  0.00    +0.001 A 
ATOM     24  C   UNL     1      10.383  -9.620   8.124  0.00  0.00    +0.020 A 
ATOM     25  C   UNL     1       9.784  -9.524   6.881  0.00  0.00    +0.047 A 
ATOM     26 CL   UNL     1      10.714  -9.812   5.444  0.00  0.00    -0.083 Cl
ENDBRANCH  19  20
ENDBRANCH  18  19
ENDBRANCH  16  18
ENDBRANCH   6  12
BRANCH   7  27
ATOM     27  C   UNL     1       1.166 -10.054   3.540  0.00  0.00    +0.339 C 
ATOM     28  O   UNL     1       0.362 -10.161   4.447  0.00  0.00    -0.245 OA
BRANCH  27  29
ATOM     29  O   UNL     1       1.933 -11.108   3.190  0.00  0.00    -0.459 OA
BRANCH  29  30
ATOM     30  C   UNL     1       1.748 -12.318   3.927  0.00  0.00    +0.171 C 
ATOM     31  C   UNL     1       2.056 -13.516   3.027  0.00  0.00    +0.052 C 
ATOM     32  C   UNL     1       2.690 -12.330   5.132  0.00  0.00    +0.052 C 
ENDBRANCH  29  30
ENDBRANCH  27  29
ENDBRANCH   7  27
BRANCH   1  33
ATOM     33  S   UNL     1       2.047  -2.650   2.088  0.00  0.00    -0.084 S 
BRANCH  33  34
ATOM     34  C   UNL     1       1.246  -2.170   0.533  0.00  0.00    +0.077 C 
BRANCH  34  35
ATOM     35  C   UNL     1       1.353  -0.654   0.350  0.00  0.00    +0.011 C 
BRANCH  35  37
ATOM     36  C   UNL     1       0.784   1.266  -1.143  0.00  0.00    +0.004 C 
ATOM     37  C   UNL     1       0.678  -0.249  -0.961  0.00  0.00    -0.003 C 
ENDBRANCH  35  37
ENDBRANCH  34  35
ENDBRANCH  33  34
ENDBRANCH   1  33
TORSDOF 11
