REMARK  Name = ZINC67292988
REMARK  5 active torsions:
REMARK  status: ('A' for Active; 'I' for Inactive)
REMARK    1  A    between atoms: C_4  and  N_11
REMARK    2  A    between atoms: C_5  and  C_7
REMARK    3  A    between atoms: C_13  and  C_23
REMARK    4  A    between atoms: N_25  and  C_26
REMARK    5  A    between atoms: C_26  and  C_27
REMARK                            x       y       z     vdW  Elec       q    Type
REMARK                         _______ _______ _______ _____ _____    ______ ____
ROOT
ATOM      1  N   UNL     1       3.591  -0.660  -0.098  0.00  0.00    -0.325 N 
ATOM      2  C   UNL     1       4.711   0.024  -0.189  0.00  0.00    +0.212 A 
ATOM      3  C   UNL     1       6.015  -0.662  -0.294  0.00  0.00    +0.097 A 
ATOM      4  C   UNL     1       7.039   0.022  -0.934  0.00  0.00    +0.030 A 
ATOM      5  C   UNL     1       6.736   1.360  -1.449  0.00  0.00    +0.020 A 
ATOM      6  C   UNL     1       7.613   2.004  -2.330  0.00  0.00    +0.031 A 
ATOM      7  C   UNL     1       7.303   3.260  -2.802  0.00  0.00    +0.042 A 
ATOM      8  C   UNL     1       6.128   3.888  -2.408  0.00  0.00    +0.023 A 
ATOM      9  C   UNL     1       5.255   3.265  -1.539  0.00  0.00    +0.048 A 
ATOM     10  C   UNL     1       5.548   2.001  -1.050  0.00  0.00    +0.138 A 
ATOM     11  O   UNL     1       4.703   1.381  -0.196  0.00  0.00    -0.439 OA
ATOM     12 CL   UNL     1       8.386   4.064  -3.895  0.00  0.00    -0.084 Cl
ATOM     13  H   UNL     1       3.615  -1.630  -0.085  0.00  0.00    +0.169 HD
ENDROOT
BRANCH   1  17
ATOM     14  C   UNL     1      -0.031   1.325   0.134  0.00  0.00    +0.001 A 
ATOM     15  C   UNL     1       1.000   1.670   0.990  0.00  0.00    +0.002 A 
ATOM     16  C   UNL     1       2.210   1.013   0.919  0.00  0.00    +0.026 A 
ATOM     17  C   UNL     1       2.394  -0.004  -0.021  0.00  0.00    +0.054 A 
ATOM     18  C   UNL     1       1.349  -0.348  -0.882  0.00  0.00    +0.078 A 
ATOM     19  C   UNL     1       0.144   0.318  -0.799  0.00  0.00    +0.014 A 
BRANCH  18  20
ATOM     20  C   UNL     1       1.538  -1.443  -1.900  0.00  0.00    +0.419 C 
ATOM     21  F   UNL     1       0.361  -1.602  -2.639  0.00  0.00    -0.166 F 
ATOM     22  F   UNL     1       2.587  -1.104  -2.761  0.00  0.00    -0.166 F 
ATOM     23  F   UNL     1       1.842  -2.641  -1.244  0.00  0.00    -0.166 F 
ENDBRANCH  18  20
ENDBRANCH   1  17
BRANCH   3  24
ATOM     24  C   UNL     1       6.220  -2.012   0.258  0.00  0.00    +0.249 C 
ATOM     25  O   UNL     1       5.288  -2.612   0.758  0.00  0.00    -0.270 OA
ATOM     26  N   UNL     1       7.440  -2.582   0.209  0.00  0.00    -0.309 N 
ATOM     27  H   UNL     1       8.168  -2.130  -0.244  0.00  0.00    +0.149 HD
BRANCH  26  28
ATOM     28  C   UNL     1       7.666  -3.885   0.839  0.00  0.00    +0.136 C 
BRANCH  28  29
ATOM     29  C   UNL     1       9.124  -4.302   0.639  0.00  0.00    +0.135 C 
ATOM     30  C   UNL     1       9.342  -5.726   1.194  0.00  0.00    +0.035 C 
ATOM     31  C   UNL     1      10.744  -5.613   1.853  0.00  0.00    +0.031 C 
ATOM     32  C   UNL     1      10.710  -4.151   2.366  0.00  0.00    +0.160 C 
ATOM     33  O   UNL     1       9.986  -3.417   1.363  0.00  0.00    -0.375 OA
ENDBRANCH  28  29
ENDBRANCH  26  28
ENDBRANCH   3  24
TORSDOF 5
