REMARK  Name = ZINC16740129
REMARK  7 active torsions:
REMARK  status: ('A' for Active; 'I' for Inactive)
REMARK    1  A    between atoms: C_3  and  C_8
REMARK    2  A    between atoms: C_11  and  S_13
REMARK    3  A    between atoms: S_13  and  C_14
REMARK    4  A    between atoms: C_14  and  C_15
REMARK    5  A    between atoms: C_15  and  C_17
REMARK    6  A    between atoms: C_15  and  O_26
REMARK    7  A    between atoms: C_20  and  N_23
REMARK                            x       y       z     vdW  Elec       q    Type
REMARK                         _______ _______ _______ _____ _____    ______ ____
ROOT
ATOM      1  S   UNL     1       2.341   0.898   1.383  0.00  0.00    -0.063 S 
ENDROOT
BRANCH   1   5
ATOM      2  C   UNL     1       5.978   2.249   1.342  0.00  0.00    +0.249 A 
ATOM      3  N   UNL     1       5.457   2.849   0.300  0.00  0.00    -0.106 NA
ATOM      4  N   UNL     1       4.227   2.494   0.172  0.00  0.00    -0.101 NA
ATOM      5  C   UNL     1       3.912   1.657   1.134  0.00  0.00    +0.278 A 
ATOM      6  O   UNL     1       5.010   1.482   1.892  0.00  0.00    -0.411 OA
BRANCH   2   9
ATOM      7  C   UNL     1       9.086   1.814   3.405  0.00  0.00    +0.002 A 
ATOM      8  C   UNL     1       7.786   1.686   2.960  0.00  0.00    +0.013 A 
ATOM      9  C   UNL     1       7.367   2.385   1.827  0.00  0.00    +0.040 A 
ATOM     10  C   UNL     1       8.264   3.218   1.156  0.00  0.00    +0.028 A 
ATOM     11  C   UNL     1       9.561   3.341   1.615  0.00  0.00    +0.019 A 
ATOM     12  C   UNL     1       9.971   2.641   2.736  0.00  0.00    +0.015 A 
ATOM     13 BR   UNL     1      10.778   4.470   0.709  0.00  0.00    -0.050 Br
ENDBRANCH   2   9
ENDBRANCH   1   5
BRANCH   1  14
ATOM     14  C   UNL     1       1.423   1.615  -0.003  0.00  0.00    +0.115 C 
BRANCH  14  15
ATOM     15  C   UNL     1      -0.013   1.086   0.008  0.00  0.00    +0.155 C 
BRANCH  15  16
ATOM     16  C   UNL     1      -0.742   1.585  -1.213  0.00  0.00    -0.018 A 
ATOM     17  C   UNL     1      -1.257   2.867  -1.234  0.00  0.00    +0.008 A 
ATOM     18  C   UNL     1      -1.922   3.327  -2.356  0.00  0.00    +0.033 A 
ATOM     19  C   UNL     1      -2.079   2.501  -3.453  0.00  0.00    +0.126 A 
ATOM     20  C   UNL     1      -1.568   1.216  -3.429  0.00  0.00    +0.033 A 
ATOM     21  C   UNL     1      -0.899   0.759  -2.310  0.00  0.00    +0.008 A 
BRANCH  19  22
ATOM     22  N   UNL     1      -2.795   2.991  -4.652  0.00  0.00    +0.056 N 
ATOM     23  O   UNL     1      -2.934   2.263  -5.618  0.00  0.00    -0.126 OA
ATOM     24  O   UNL     1      -3.245   4.123  -4.672  0.00  0.00    -0.126 OA
ENDBRANCH  19  22
ENDBRANCH  15  16
BRANCH  15  25
ATOM     25  O   UNL     1      -0.682   1.547   1.184  0.00  0.00    -0.386 OA
ATOM     26  H   UNL     1      -0.732   2.510   1.256  0.00  0.00    +0.210 HD
ENDBRANCH  15  25
ENDBRANCH  14  15
ENDBRANCH   1  14
TORSDOF 7
