REMARK  Name = ZINC35747300
REMARK  14 active torsions:
REMARK  status: ('A' for Active; 'I' for Inactive)
REMARK    1  A    between atoms: C_1  and  C_2
REMARK    2  A    between atoms: C_2  and  C_4
REMARK    3  A    between atoms: C_2  and  O_31
REMARK    4  A    between atoms: C_4  and  N_5
REMARK    5  A    between atoms: N_5  and  C_6
REMARK    6  A    between atoms: N_5  and  C_28
REMARK    7  A    between atoms: C_6  and  C_7
REMARK    8  A    between atoms: C_13  and  C_18
REMARK    9  A    between atoms: C_21  and  O_26
REMARK   10  A    between atoms: C_22  and  O_24
REMARK   11  A    between atoms: O_24  and  C_25
REMARK   12  A    between atoms: O_26  and  C_27
REMARK   13  A    between atoms: C_28  and  C_29
REMARK   14  A    between atoms: C_28  and  C_30
REMARK                            x       y       z     vdW  Elec       q    Type
REMARK                         _______ _______ _______ _____ _____    ______ ____
ROOT
ATOM      1  C   UNL     1       1.122  -4.316   1.982  0.00  0.00    +0.094 A 
ATOM      2  N   UNL     1       1.377  -5.220   2.962  0.00  0.00    -0.312 N 
ATOM      3  H   UNL     1       1.656  -4.907   3.837  0.00  0.00    +0.170 HD
ATOM      4  C   UNL     1       1.248  -6.542   2.745  0.00  0.00    +0.260 A 
ATOM      5  O   UNL     1       1.480  -7.341   3.636  0.00  0.00    -0.267 OA
ATOM      6  C   UNL     1       0.835  -6.995   1.451  0.00  0.00    +0.080 A 
ATOM      7  C   UNL     1       0.626  -8.357   0.974  0.00  0.00    +0.004 A 
ATOM      8  C   UNL     1       0.229  -8.545  -0.307  0.00  0.00    +0.056 A 
ATOM      9  S   UNL     1       0.112  -6.886  -0.950  0.00  0.00    -0.076 S 
ATOM     10  C   UNL     1       0.595  -5.989   0.502  0.00  0.00    +0.116 A 
ATOM     11  N   UNL     1       0.739  -4.698   0.793  0.00  0.00    -0.229 NA
ENDROOT
BRANCH   7  12
ATOM     12  C   UNL     1       0.845  -9.515   1.874  0.00  0.00    -0.013 A 
ATOM     13  C   UNL     1       2.026  -9.615   2.608  0.00  0.00    +0.012 A 
ATOM     14  C   UNL     1       2.229 -10.693   3.446  0.00  0.00    +0.050 A 
ATOM     15  C   UNL     1       1.259 -11.678   3.560  0.00  0.00    +0.162 A 
ATOM     16  C   UNL     1       0.078 -11.583   2.830  0.00  0.00    +0.162 A 
ATOM     17  C   UNL     1      -0.133 -10.501   1.993  0.00  0.00    +0.058 A 
BRANCH  16  18
ATOM     18  O   UNL     1      -0.872 -12.550   2.943  0.00  0.00    -0.491 OA
ATOM     19  C   UNL     1      -2.059 -12.387   2.165  0.00  0.00    +0.277 C 
ENDBRANCH  16  18
BRANCH  15  20
ATOM     20  O   UNL     1       1.463 -12.739   4.386  0.00  0.00    -0.491 OA
ATOM     21  C   UNL     1       2.698 -12.774   5.104  0.00  0.00    +0.277 C 
ENDBRANCH  15  20
ENDBRANCH   7  12
BRANCH   1  22
ATOM     22  C   UNL     1       1.279  -2.845   2.272  0.00  0.00    -0.003 C 
BRANCH  22  23
ATOM     23  N   UNL     1       1.121  -2.081   1.027  0.00  0.00    +0.388 N 
ATOM     24  H   UNL     1       0.456  -2.547   0.429  0.00  0.00    -0.081 HD
BRANCH  23  25
ATOM     25  C   UNL     1       2.417  -1.990   0.341  0.00  0.00    -0.074 C 
ATOM     26  C   UNL     1       3.405  -1.218   1.218  0.00  0.00    -0.014 C 
ATOM     27  C   UNL     1       2.957  -3.398   0.082  0.00  0.00    -0.014 C 
ENDBRANCH  23  25
BRANCH  23  28
ATOM     28  C   UNL     1       0.636  -0.730   1.340  0.00  0.00    -0.046 C 
BRANCH  28  30
ATOM     29  C   UNL     1      -0.119   1.443   0.365  0.00  0.00    +0.035 C 
ATOM     30  C   UNL     1       0.372   0.031   0.040  0.00  0.00    +0.095 C 
BRANCH  30  31
ATOM     31  O   UNL     1      -0.624  -0.656  -0.721  0.00  0.00    -0.394 OA
ATOM     32  H   UNL     1      -0.842  -0.229  -1.560  0.00  0.00    +0.210 HD
ENDBRANCH  30  31
ENDBRANCH  28  30
ENDBRANCH  23  28
ENDBRANCH  22  23
ENDBRANCH   1  22
TORSDOF 9
