REMARK  Name = ZINC19331726
REMARK  5 active torsions:
REMARK  status: ('A' for Active; 'I' for Inactive)
REMARK    1  A    between atoms: C_1  and  C_2
REMARK    2  A    between atoms: C_4  and  C_21
REMARK    3  A    between atoms: C_7  and  C_14
REMARK    4  A    between atoms: C_9  and  C_11
REMARK    5  A    between atoms: C_11  and  C_13
REMARK                            x       y       z     vdW  Elec       q    Type
REMARK                         _______ _______ _______ _____ _____    ______ ____
ROOT
ATOM      1  C   UNL     1       4.813   0.331   2.823  0.00  0.00    +0.061 C 
ATOM      2  C   UNL     1       4.349   0.974   1.541  0.00  0.00    +0.010 C 
ATOM      3  N   UNL     1       5.301   1.802   1.452  0.00  0.00    -0.328 N 
ATOM      4  C   UNL     1       5.130   3.229   1.213  0.00  0.00    +0.172 C 
ATOM      5  N   UNL     1       3.752   3.643   1.505  0.00  0.00    -0.284 NA
ATOM      6  C   UNL     1       2.799   2.763   0.806  0.00  0.00    +0.122 C 
ATOM      7  C   UNL     1       2.902   1.364   1.421  0.00  0.00    +0.032 C 
ATOM      8  H   UNL     1       6.310   1.381   1.568  0.00  0.00    +0.148 HD
ATOM      9  H   UNL     1       3.572   3.581   2.588  0.00  0.00    +0.125 HD
ENDROOT
BRANCH   6  10
ATOM     10  C   UNL     1       1.399   3.293   0.976  0.00  0.00    -0.008 A 
ATOM     11  C   UNL     1       0.533   2.683   1.864  0.00  0.00    +0.007 A 
ATOM     12  C   UNL     1      -0.752   3.168   2.021  0.00  0.00    +0.000 A 
ATOM     13  C   UNL     1      -1.172   4.264   1.289  0.00  0.00    +0.001 A 
ATOM     14  C   UNL     1      -0.305   4.878   0.405  0.00  0.00    +0.020 A 
ATOM     15  C   UNL     1       0.980   4.389   0.244  0.00  0.00    +0.046 A 
ATOM     16 CL   UNL     1       2.067   5.155  -0.872  0.00  0.00    -0.083 Cl
ENDBRANCH   6  10
BRANCH   4  17
ATOM     17  C   UNL     1       6.077   3.997   2.099  0.00  0.00    +0.005 A 
ATOM     18  C   UNL     1       5.707   5.231   2.600  0.00  0.00    +0.008 A 
ATOM     19  C   UNL     1       6.574   5.934   3.416  0.00  0.00    +0.000 A 
ATOM     20  C   UNL     1       7.815   5.407   3.723  0.00  0.00    +0.001 A 
ATOM     21  C   UNL     1       8.188   4.176   3.219  0.00  0.00    +0.020 A 
ATOM     22  C   UNL     1       7.319   3.470   2.405  0.00  0.00    +0.047 A 
ATOM     23 CL   UNL     1       7.786   1.923   1.770  0.00  0.00    -0.083 Cl
ENDBRANCH   4  17
BRANCH   7  24
ATOM     24  C   UNL     1       2.035   0.249   1.947  0.00  0.00    +0.159 C 
ATOM     25  O   UNL     1       1.657  -0.623   1.202  0.00  0.00    -0.293 OA
ATOM     26  C   UNL     1       1.642   0.222   3.401  0.00  0.00    +0.091 C 
ENDBRANCH   7  24
TORSDOF 3
