REMARK  Name = ZINC05207097
REMARK  6 active torsions:
REMARK  status: ('A' for Active; 'I' for Inactive)
REMARK    1  A    between atoms: C_1  and  C_2
REMARK    2  A    between atoms: C_2  and  C_3
REMARK    3  A    between atoms: C_2  and  C_4
REMARK    4  A    between atoms: C_4  and  N_5
REMARK    5  A    between atoms: C_6  and  N_28
REMARK    6  A    between atoms: C_7  and  C_18
REMARK                            x       y       z     vdW  Elec       q    Type
REMARK                         _______ _______ _______ _____ _____    ______ ____
ROOT
ATOM      1  N   UNL     1      -5.688   1.513   0.067  0.00  0.00    -0.312 N 
ATOM      2  C   UNL     1      -4.371   1.873   0.056  0.00  0.00    +0.111 A 
ATOM      3  C   UNL     1      -3.562   0.748   0.042  0.00  0.00    +0.084 A 
ATOM      4  C   UNL     1      -4.460  -0.415   0.038  0.00  0.00    +0.121 A 
ATOM      5  C   UNL     1      -5.817   0.140   0.061  0.00  0.00    +0.162 A 
ATOM      6  N   UNL     1      -6.850  -0.675   0.067  0.00  0.00    -0.226 NA
ATOM      7  C   UNL     1      -6.654  -2.000   0.043  0.00  0.00    +0.092 A 
ATOM      8  C   UNL     1      -7.754  -2.878   0.044  0.00  0.00    +0.030 A 
ATOM      9  C   UNL     1      -7.546  -4.222   0.027  0.00  0.00    +0.002 A 
ATOM     10  C   UNL     1      -6.256  -4.749   0.009  0.00  0.00    +0.002 A 
ATOM     11  C   UNL     1      -5.168  -3.932   0.008  0.00  0.00    +0.030 A 
ATOM     12  C   UNL     1      -5.342  -2.535   0.025  0.00  0.00    +0.090 A 
ATOM     13  N   UNL     1      -4.279  -1.722   0.023  0.00  0.00    -0.241 NA
ENDROOT
BRANCH   3  14
ATOM     14  C   UNL     1      -2.093   0.724   0.027  0.00  0.00    +0.145 A 
ATOM     15  N   UNL     1      -1.322  -0.410   0.013  0.00  0.00    -0.338 N 
ATOM     16  H   UNL     1      -1.654  -1.353   0.012  0.00  0.00    +0.167 HD
ATOM     17  C   UNL     1       0.002  -0.004   0.002  0.00  0.00    +0.066 A 
ATOM     18  C   UNL     1       1.213  -0.680  -0.013  0.00  0.00    +0.028 A 
ATOM     19  C   UNL     1       2.396   0.030  -0.021  0.00  0.00    +0.002 A 
ATOM     20  C   UNL     1       2.383   1.417  -0.014  0.00  0.00    +0.002 A 
ATOM     21  C   UNL     1       1.191   2.105   0.002  0.00  0.00    +0.030 A 
ATOM     22  C   UNL     1      -0.017   1.401   0.010  0.00  0.00    +0.089 A 
ATOM     23  N   UNL     1      -1.318   1.786   0.030  0.00  0.00    -0.228 NA
ENDBRANCH   3  14
BRANCH   2  24
ATOM     24  N   UNL     1      -3.913   3.168   0.059  0.00  0.00    -0.344 N 
ATOM     25  H   UNL     1      -2.959   3.345   0.050  0.00  0.00    +0.144 HD
ATOM     26  H   UNL     1      -4.543   3.906   0.070  0.00  0.00    +0.144 HD
ENDBRANCH   2  24
BRANCH   1  27
ATOM     27  C   UNL     1      -6.809   2.456   0.084  0.00  0.00    +0.128 C 
BRANCH  27  29
ATOM     28  C   UNL     1      -8.462   3.677  -1.337  0.00  0.00    +0.009 C 
ATOM     29  C   UNL     1      -7.214   2.792  -1.353  0.00  0.00    +0.003 C 
ATOM     30  C   UNL     1      -6.070   3.536  -2.044  0.00  0.00    +0.009 C 
ENDBRANCH  27  29
ENDBRANCH   1  27
TORSDOF 4
