REMARK  Name = ZINC01048826
REMARK  3 active torsions:
REMARK  status: ('A' for Active; 'I' for Inactive)
REMARK    1  A    between atoms: C_3  and  C_6
REMARK    2  A    between atoms: C_16  and  C_19
REMARK    3  A    between atoms: C_24  and  O_25
REMARK                            x       y       z     vdW  Elec       q    Type
REMARK                         _______ _______ _______ _____ _____    ______ ____
ROOT
ATOM      1  C   UNL     1       3.740   1.825  -0.024  0.00  0.00    +0.102 A 
ATOM      2  C   UNL     1       4.905   1.024  -0.045  0.00  0.00    +0.074 A 
ATOM      3  C   UNL     1       5.972   1.846  -0.054  0.00  0.00    +0.127 A 
ATOM      4  N   UNL     1       5.493   3.138  -0.025  0.00  0.00    -0.189 N 
ATOM      5  N   UNL     1       4.110   3.095  -0.022  0.00  0.00    -0.162 NA
ATOM      6  C   UNL     1       6.388   4.203   0.003  0.00  0.00    +0.196 C 
ATOM      7  N   UNL     1       6.127   5.462   0.058  0.00  0.00    -0.356 N 
ATOM      8  C   UNL     1       7.378   6.239   0.067  0.00  0.00    +0.134 C 
ATOM      9  C   UNL     1       8.461   5.179  -0.238  0.00  0.00    +0.131 C 
ATOM     10  N   UNL     1       7.746   3.921   0.008  0.00  0.00    -0.277 N 
ATOM     11  C   UNL     1       8.314   2.593   0.234  0.00  0.00    +0.197 C 
ATOM     12  N   UNL     1       7.330   1.551  -0.091  0.00  0.00    -0.307 N 
ATOM     13  H   UNL     1       7.627   0.659  -0.330  0.00  0.00    +0.150 HD
ATOM     14  H   UNL     1       5.236   5.843   0.088  0.00  0.00    +0.162 HD
ENDROOT
BRANCH  11  15
ATOM     15  C   UNL     1       8.713   2.462   1.681  0.00  0.00    +0.035 A 
ATOM     16  C   UNL     1       9.005   3.591   2.423  0.00  0.00    +0.030 A 
ATOM     17  C   UNL     1       9.373   3.471   3.752  0.00  0.00    +0.043 A 
ATOM     18  C   UNL     1       9.448   2.222   4.341  0.00  0.00    +0.043 A 
ATOM     19  C   UNL     1       9.156   1.090   3.603  0.00  0.00    +0.084 A 
ATOM     20  C   UNL     1       8.782   1.209   2.271  0.00  0.00    +0.142 A 
ATOM     21 CL   UNL     1       9.252  -0.478   4.342  0.00  0.00    -0.080 Cl
ATOM     22 CL   UNL     1       9.739   4.891   4.680  0.00  0.00    -0.083 Cl
BRANCH  20  23
ATOM     23  O   UNL     1       8.489   0.098   1.545  0.00  0.00    -0.505 OA
ATOM     24  H   UNL     1       9.253  -0.290   1.095  0.00  0.00    +0.292 HD
ENDBRANCH  20  23
ENDBRANCH  11  15
BRANCH   1  27
ATOM     25  C   UNL     1      -0.016   1.353   0.009  0.00  0.00    +0.008 A 
ATOM     26  C   UNL     1       1.178   2.041   0.002  0.00  0.00    +0.018 A 
ATOM     27  C   UNL     1       2.347   1.329  -0.013  0.00  0.00    +0.039 A 
ATOM     28  S   UNL     1       1.752  -0.354  -0.017  0.00  0.00    -0.095 S 
ATOM     29  C   UNL     1       0.002  -0.004   0.002  0.00  0.00    +0.046 A 
ENDBRANCH   1  27
TORSDOF 3
