REMARK  Name = ZINC42697760
REMARK  4 active torsions:
REMARK  status: ('A' for Active; 'I' for Inactive)
REMARK    1  A    between atoms: C_1  and  C_2
REMARK    2  A    between atoms: C_4  and  C_7
REMARK    3  A    between atoms: C_7  and  N_12
REMARK    4  A    between atoms: C_13  and  C_15
REMARK                            x       y       z     vdW  Elec       q    Type
REMARK                         _______ _______ _______ _____ _____    ______ ____
ROOT
ATOM      1  N   UNL     1      -2.467  -3.204  -1.178  0.00  0.00    -0.299 N 
ATOM      2  C   UNL     1      -3.287  -2.149  -1.361  0.00  0.00    +0.245 C 
ATOM      3  O   UNL     1      -3.296  -1.240  -0.554  0.00  0.00    -0.270 OA
ATOM      4  H   UNL     1      -2.460  -3.929  -1.822  0.00  0.00    +0.150 HD
ENDROOT
BRANCH   2   5
ATOM      5  C   UNL     1      -4.174  -2.098  -2.541  0.00  0.00    +0.038 A 
ATOM      6  C   UNL     1      -4.170  -3.144  -3.467  0.00  0.00    +0.014 A 
ATOM      7  C   UNL     1      -5.000  -3.091  -4.566  0.00  0.00    +0.022 A 
ATOM      8  C   UNL     1      -5.837  -2.004  -4.755  0.00  0.00    +0.059 A 
ATOM      9  C   UNL     1      -5.846  -0.963  -3.841  0.00  0.00    +0.060 A 
ATOM     10  C   UNL     1      -5.024  -1.007  -2.732  0.00  0.00    +0.034 A 
ATOM     11 CL   UNL     1      -6.897   0.397  -4.085  0.00  0.00    -0.082 Cl
ATOM     12 CL   UNL     1      -6.878  -1.944  -6.143  0.00  0.00    -0.082 Cl
ENDBRANCH   2   5
BRANCH   1  13
ATOM     13  C   UNL     1      -1.588  -3.254  -0.008  0.00  0.00    +0.098 C 
ATOM     14  C   UNL     1      -2.428  -3.272   1.286  0.00  0.00    +0.034 C 
ATOM     15  C   UNL     1      -2.542  -4.775   1.644  0.00  0.00    +0.003 C 
ATOM     16  C   UNL     1      -1.142  -5.322   1.268  0.00  0.00    +0.003 C 
ATOM     17  C   UNL     1      -0.770  -4.558  -0.019  0.00  0.00    +0.034 C 
BRANCH  13  21
ATOM     18  C   UNL     1      -0.018   1.503   0.010  0.00  0.00    +0.112 C 
ATOM     19  C   UNL     1       0.002  -0.004   0.002  0.00  0.00    +0.224 A 
ATOM     20  N   UNL     1      -1.044  -0.783   0.003  0.00  0.00    -0.194 NA
ATOM     21  C   UNL     1      -0.663  -2.065  -0.006  0.00  0.00    +0.195 A 
ATOM     22  N   UNL     1       0.638  -2.118  -0.012  0.00  0.00    -0.059 NA
ATOM     23  O   UNL     1       1.097  -0.774  -0.013  0.00  0.00    -0.338 OA
ENDBRANCH  13  21
ENDBRANCH   1  13
TORSDOF 3
