REMARK  Name = ZINC06491125
REMARK  4 active torsions:
REMARK  status: ('A' for Active; 'I' for Inactive)
REMARK    1  A    between atoms: C_1  and  C_2
REMARK    2  A    between atoms: C_6  and  N_8
REMARK    3  A    between atoms: N_17  and  C_21
REMARK    4  A    between atoms: C_26  and  C_27
REMARK                            x       y       z     vdW  Elec       q    Type
REMARK                         _______ _______ _______ _____ _____    ______ ____
ROOT
ATOM      1  N   UNL     1       1.148   2.373   0.004  0.00  0.00    -0.256 N 
ATOM      2  C   UNL     1       1.095   3.629   0.503  0.00  0.00    +0.275 A 
ATOM      3  O   UNL     1       2.098   4.163   0.944  0.00  0.00    -0.266 OA
ATOM      4  C   UNL     1      -0.126   4.305   0.505  0.00  0.00    +0.123 A 
ATOM      5  C   UNL     1      -1.277   3.733   0.016  0.00  0.00    +0.140 A 
ATOM      6  N   UNL     1      -1.151   2.441  -0.487  0.00  0.00    -0.320 N 
ATOM      7  H   UNL     1      -2.029   1.924  -0.903  0.00  0.00    +0.169 HD
ATOM      8  C   UNL     1       0.028   1.804  -0.477  0.00  0.00    +0.167 A 
ATOM      9  S   UNL     1       0.114   0.213  -1.105  0.00  0.00    -0.012 S 
ATOM     10  N   UNL     1      -2.397   4.511   0.082  0.00  0.00    -0.256 N 
ATOM     11  C   UNL     1      -2.340   5.753   0.600  0.00  0.00    +0.297 A 
ATOM     12  O   UNL     1      -3.238   6.565   0.730  0.00  0.00    -0.259 OA
ATOM     13  S   UNL     1      -0.667   5.909   1.036  0.00  0.00    -0.019 S 
ENDROOT
BRANCH   1  19
ATOM     14  C   UNL     1       4.303  -0.676   2.225  0.00  0.00    +0.044 C 
ATOM     15  C   UNL     1       3.913   0.185   1.051  0.00  0.00    -0.048 A 
ATOM     16  C   UNL     1       4.754   0.283  -0.043  0.00  0.00    +0.003 A 
ATOM     17  C   UNL     1       4.400   1.073  -1.121  0.00  0.00    +0.002 A 
ATOM     18  C   UNL     1       3.206   1.767  -1.109  0.00  0.00    +0.026 A 
ATOM     19  C   UNL     1       2.360   1.670  -0.012  0.00  0.00    +0.052 A 
ATOM     20  C   UNL     1       2.720   0.880   1.072  0.00  0.00    +0.029 A 
ENDBRANCH   1  19
BRANCH  10  21
ATOM     21  C   UNL     1      -3.617   4.012  -0.392  0.00  0.00    +0.055 A 
ATOM     22  C   UNL     1      -4.466   3.321   0.463  0.00  0.00    +0.026 A 
ATOM     23  C   UNL     1      -5.669   2.831  -0.008  0.00  0.00    +0.002 A 
ATOM     24  C   UNL     1      -6.028   3.027  -1.329  0.00  0.00    +0.000 A 
ATOM     25  C   UNL     1      -5.185   3.715  -2.183  0.00  0.00    +0.005 A 
ATOM     26  C   UNL     1      -3.983   4.212  -1.716  0.00  0.00    -0.026 A 
ATOM     27  C   UNL     1      -3.067   4.965  -2.646  0.00  0.00    +0.046 C 
ENDBRANCH  10  21
TORSDOF 2
