REMARK  Name = ZINC21226175
REMARK  13 active torsions:
REMARK  status: ('A' for Active; 'I' for Inactive)
REMARK    1  A    between atoms: C_1  and  C_2
REMARK    2  A    between atoms: C_2  and  C_3
REMARK    3  A    between atoms: C_3  and  O_4
REMARK    4  A    between atoms: O_4  and  C_5
REMARK    5  A    between atoms: C_6  and  C_13
REMARK    6  A    between atoms: C_10  and  O_11
REMARK    7  A    between atoms: O_11  and  C_12
REMARK    8  A    between atoms: C_24  and  C_27
REMARK    9  A    between atoms: C_30  and  O_35
REMARK   10  A    between atoms: C_31  and  O_33
REMARK   11  A    between atoms: O_33  and  C_34
REMARK   12  A    between atoms: O_35  and  C_36
REMARK   13  A    between atoms: C_36  and  C_37
REMARK                            x       y       z     vdW  Elec       q    Type
REMARK                         _______ _______ _______ _____ _____    ______ ____
ROOT
ATOM      1  C   UNL     1       2.334   0.087   0.834  0.00  0.00    +0.066 C 
ATOM      2  C   UNL     1       2.456   1.373   0.014  0.00  0.00    +0.109 C 
ATOM      3  C   UNL     1       1.124   2.078   0.003  0.00  0.00    +0.218 C 
ATOM      4  O   UNL     1       1.082   3.290  -0.014  0.00  0.00    -0.275 OA
ATOM      5  N   UNL     1      -0.017   1.367   0.010  0.00  0.00    -0.289 N 
ATOM      6  C   UNL     1       0.002  -0.004   0.002  0.00  0.00    +0.018 C 
ATOM      7  C   UNL     1       1.106  -0.675   0.392  0.00  0.00    +0.020 C 
ATOM      8  C   UNL     1       1.144  -2.079   0.400  0.00  0.00    +0.162 C 
ATOM      9  O   UNL     1       2.160  -2.648   0.746  0.00  0.00    -0.292 OA
ATOM     10  C   UNL     1      -0.055  -2.890  -0.013  0.00  0.00    +0.088 C 
ATOM     11  C   UNL     1      -1.325  -2.084   0.280  0.00  0.00    +0.032 C 
ATOM     12  C   UNL     1      -1.232  -0.743  -0.452  0.00  0.00    +0.059 C 
ATOM     13  H   UNL     1      -0.987   1.885   0.022  0.00  0.00    +0.155 HD
ENDROOT
BRANCH   1  15
ATOM     14  C   UNL     1       3.155  -0.032   3.198  0.00  0.00    +0.166 A 
ATOM     15  C   UNL     1       2.211   0.432   2.296  0.00  0.00    +0.006 A 
ATOM     16  C   UNL     1       1.161   1.216   2.735  0.00  0.00    +0.008 A 
ATOM     17  C   UNL     1       1.043   1.529   4.077  0.00  0.00    +0.004 A 
ATOM     18  C   UNL     1       1.981   1.070   4.982  0.00  0.00    +0.049 A 
ATOM     19  C   UNL     1       3.039   0.288   4.547  0.00  0.00    +0.162 A 
BRANCH  19  20
ATOM     20  O   UNL     1       3.962  -0.165   5.437  0.00  0.00    -0.491 OA
ATOM     21  C   UNL     1       3.780   0.203   6.806  0.00  0.00    +0.277 C 
ENDBRANCH  19  20
BRANCH  14  22
ATOM     22  O   UNL     1       4.192  -0.799   2.766  0.00  0.00    -0.488 OA
BRANCH  22  23
ATOM     23  C   UNL     1       5.383  -0.115   2.371  0.00  0.00    +0.229 C 
BRANCH  23  25
ATOM     24  C   UNL     1       7.706  -0.404   1.497  0.00  0.00    +0.007 C 
ATOM     25  C   UNL     1       6.430  -1.135   1.919  0.00  0.00    +0.038 C 
ENDBRANCH  23  25
ENDBRANCH  22  23
ENDBRANCH  14  22
ENDBRANCH   1  15
BRANCH  11  26
ATOM     26  C   UNL     1      -2.531  -2.845  -0.210  0.00  0.00    -0.040 A 
ATOM     27  C   UNL     1      -2.644  -3.170  -1.549  0.00  0.00    +0.008 A 
ATOM     28  C   UNL     1      -3.748  -3.869  -2.002  0.00  0.00    +0.050 A 
ATOM     29  C   UNL     1      -4.744  -4.243  -1.115  0.00  0.00    +0.162 A 
ATOM     30  C   UNL     1      -4.630  -3.915   0.233  0.00  0.00    +0.162 A 
ATOM     31  C   UNL     1      -3.518  -3.220   0.682  0.00  0.00    +0.053 A 
BRANCH  30  32
ATOM     32  O   UNL     1      -5.605  -4.280   1.108  0.00  0.00    -0.491 OA
ATOM     33  C   UNL     1      -5.421  -3.909   2.475  0.00  0.00    +0.277 C 
ENDBRANCH  30  32
BRANCH  29  34
ATOM     34  O   UNL     1      -5.830  -4.931  -1.560  0.00  0.00    -0.489 OA
BRANCH  34  35
ATOM     35  C   UNL     1      -5.879  -5.233  -2.955  0.00  0.00    +0.226 C 
ATOM     36  C   UNL     1      -7.164  -6.004  -3.265  0.00  0.00    +0.048 C 
ENDBRANCH  34  35
ENDBRANCH  29  34
ENDBRANCH  11  26
TORSDOF 9
