REMARK  Name = ZINC39201372
REMARK  7 active torsions:
REMARK  status: ('A' for Active; 'I' for Inactive)
REMARK    1  A    between atoms: C_1  and  C_2
REMARK    2  A    between atoms: C_5  and  C_8
REMARK    3  A    between atoms: C_10  and  N_31
REMARK    4  A    between atoms: N_11  and  C_13
REMARK    5  A    between atoms: C_16  and  C_19
REMARK    6  A    between atoms: N_21  and  C_22
REMARK    7  A    between atoms: C_27  and  C_30
REMARK                            x       y       z     vdW  Elec       q    Type
REMARK                         _______ _______ _______ _____ _____    ______ ____
ROOT
ATOM      1  C   UNL     1       0.101  -7.478  -1.513  0.00  0.00    +0.067 A 
ATOM      2  C   UNL     1       0.802  -8.618  -1.135  0.00  0.00    +0.028 A 
ATOM      3  C   UNL     1       0.818  -9.723  -1.956  0.00  0.00    +0.015 A 
ATOM      4  C   UNL     1       0.128  -9.699  -3.171  0.00  0.00    +0.037 A 
ATOM      5  C   UNL     1      -0.576  -8.552  -3.547  0.00  0.00    +0.015 A 
ATOM      6  C   UNL     1      -0.592  -7.452  -2.719  0.00  0.00    +0.028 A 
ENDROOT
BRANCH   1  10
ATOM      7  C   UNL     1       0.060  -4.256  -0.021  0.00  0.00    +0.095 A 
ATOM      8  C   UNL     1       0.071  -5.088   1.115  0.00  0.00    +0.073 A 
ATOM      9  C   UNL     1       0.087  -6.377   0.686  0.00  0.00    +0.120 A 
ATOM     10  N   UNL     1       0.087  -6.359  -0.677  0.00  0.00    -0.218 N 
ATOM     11  N   UNL     1       0.064  -5.022  -1.092  0.00  0.00    -0.165 NA
BRANCH   7  16
ATOM     12  C   UNL     1      -0.018   1.503   0.010  0.00  0.00    +0.044 C 
ATOM     13  C   UNL     1       0.002  -0.004   0.002  0.00  0.00    -0.050 A 
ATOM     14  C   UNL     1       0.006  -0.686  -1.201  0.00  0.00    +0.004 A 
ATOM     15  C   UNL     1       0.024  -2.067  -1.215  0.00  0.00    +0.010 A 
ATOM     16  C   UNL     1       0.040  -2.772  -0.013  0.00  0.00    +0.002 A 
ATOM     17  C   UNL     1       0.037  -2.080   1.196  0.00  0.00    +0.010 A 
ATOM     18  C   UNL     1       0.023  -0.700   1.198  0.00  0.00    +0.004 A 
ENDBRANCH   7  16
BRANCH   9  19
ATOM     19  N   UNL     1       0.103  -7.511   1.492  0.00  0.00    -0.343 N 
ATOM     20  H   UNL     1       0.102  -7.419   2.458  0.00  0.00    +0.144 HD
ATOM     21  H   UNL     1       0.115  -8.393   1.089  0.00  0.00    +0.144 HD
ENDBRANCH   9  19
ENDBRANCH   1  10
BRANCH   4  22
ATOM     22  C   UNL     1       0.143 -10.882  -4.054  0.00  0.00    +0.244 C 
ATOM     23  O   UNL     1       0.756 -11.878  -3.725  0.00  0.00    -0.270 OA
ATOM     24  N   UNL     1      -0.524 -10.856  -5.225  0.00  0.00    -0.308 N 
ATOM     25  H   UNL     1      -1.013 -10.061  -5.488  0.00  0.00    +0.149 HD
BRANCH  24  26
ATOM     26  C   UNL     1      -0.509 -12.030  -6.102  0.00  0.00    +0.073 C 
ATOM     27  C   UNL     1       0.743 -11.994  -6.981  0.00  0.00    +0.022 C 
ATOM     28  C   UNL     1       0.732 -10.722  -7.832  0.00  0.00    +0.002 C 
ATOM     29  C   UNL     1      -0.514 -10.712  -8.719  0.00  0.00    +0.003 C 
ATOM     30  C   UNL     1      -1.766 -10.748  -7.840  0.00  0.00    -0.012 C 
ATOM     31  C   UNL     1      -1.756 -12.020  -6.989  0.00  0.00    +0.025 C 
ATOM     32  C   UNL     1      -3.013 -10.738  -8.726  0.00  0.00    +0.007 C 
ENDBRANCH  24  26
ENDBRANCH   4  22
TORSDOF 5
