REMARK  Name = ZINC58163832
REMARK  6 active torsions:
REMARK  status: ('A' for Active; 'I' for Inactive)
REMARK    1  A    between atoms: C_1  and  C_2
REMARK    2  A    between atoms: C_6  and  N_9
REMARK    3  A    between atoms: C_7  and  C_8
REMARK    4  A    between atoms: C_10  and  C_12
REMARK    5  A    between atoms: C_12  and  N_13
REMARK    6  A    between atoms: C_14  and  C_16
REMARK                            x       y       z     vdW  Elec       q    Type
REMARK                         _______ _______ _______ _____ _____    ______ ____
ROOT
ATOM      1  N   UNL     1       1.471  -2.526   2.420  0.00  0.00    -0.311 N 
ATOM      2  C   UNL     1       1.207  -3.754   2.907  0.00  0.00    +0.230 C 
ATOM      3  O   UNL     1       0.382  -4.458   2.364  0.00  0.00    -0.274 OA
ATOM      4  H   UNL     1       2.131  -1.963   2.855  0.00  0.00    +0.149 HD
ENDROOT
BRANCH   1  10
ATOM      5  C   UNL     1      -0.019   1.526   0.010  0.00  0.00    +0.008 C 
ATOM      6  C   UNL     1       0.002  -0.004   0.002  0.00  0.00    -0.009 C 
ATOM      7  C   UNL     1       0.718  -0.497  -1.257  0.00  0.00    +0.003 C 
ATOM      8  C   UNL     1       0.739  -2.027  -1.265  0.00  0.00    +0.002 C 
ATOM      9  C   UNL     1       1.479  -2.534  -0.026  0.00  0.00    +0.022 C 
ATOM     10  C   UNL     1       0.763  -2.041   1.233  0.00  0.00    +0.076 C 
ATOM     11  C   UNL     1       0.742  -0.511   1.242  0.00  0.00    +0.009 C 
ATOM     12  C   UNL     1       0.026  -0.018   2.500  0.00  0.00    +0.009 C 
ENDBRANCH   1  10
BRANCH   2  13
ATOM     13  C   UNL     1       1.936  -4.254   4.128  0.00  0.00    +0.200 C 
BRANCH  13  14
ATOM     14  N   UNL     1       1.473  -5.605   4.455  0.00  0.00    -0.303 N 
ATOM     15  C   UNL     1       1.990  -6.256   5.516  0.00  0.00    +0.245 C 
ATOM     16  O   UNL     1       2.839  -5.722   6.202  0.00  0.00    -0.270 OA
ATOM     17  H   UNL     1       0.795  -6.031   3.907  0.00  0.00    +0.150 HD
BRANCH  15  18
ATOM     18  C   UNL     1       1.523  -7.620   5.845  0.00  0.00    +0.038 A 
ATOM     19  C   UNL     1       0.551  -8.238   5.056  0.00  0.00    +0.013 A 
ATOM     20  C   UNL     1       0.120  -9.510   5.368  0.00  0.00    +0.002 A 
ATOM     21  C   UNL     1       0.648 -10.175   6.461  0.00  0.00    +0.020 A 
ATOM     22  C   UNL     1       1.611  -9.568   7.248  0.00  0.00    +0.042 A 
ATOM     23  C   UNL     1       2.055  -8.296   6.943  0.00  0.00    +0.033 A 
ATOM     24 CL   UNL     1       2.267 -10.410   8.617  0.00  0.00    -0.084 Cl
ENDBRANCH  15  18
ENDBRANCH  13  14
ENDBRANCH   2  13
TORSDOF 4
