REMARK  Name = ZINC09243219
REMARK  3 active torsions:
REMARK  status: ('A' for Active; 'I' for Inactive)
REMARK    1  A    between atoms: C_1  and  C_2
REMARK    2  A    between atoms: C_13  and  C_14
REMARK    3  A    between atoms: C_19  and  C_20
REMARK                            x       y       z     vdW  Elec       q    Type
REMARK                         _______ _______ _______ _____ _____    ______ ____
ROOT
ATOM      1  C   UNL     1      -0.019   1.526   0.010  0.00  0.00    +0.007 C 
ATOM      2  C   UNL     1       0.002  -0.004   0.002  0.00  0.00    -0.011 C 
ATOM      3  C   UNL     1      -1.434  -0.533   0.011  0.00  0.00    +0.022 C 
ATOM      4  C   UNL     1      -1.409  -2.065  -0.032  0.00  0.00    +0.107 C 
ATOM      5  N   UNL     1      -0.578  -2.556   1.075  0.00  0.00    -0.311 N 
ATOM      6  C   UNL     1       0.791  -2.042   1.212  0.00  0.00    +0.107 C 
ATOM      7  C   UNL     1       0.742  -0.511   1.242  0.00  0.00    +0.022 C 
ATOM      8  C   UNL     1      -1.071  -3.476   1.963  0.00  0.00    +0.154 C 
ATOM      9  N   UNL     1      -2.267  -4.042   1.982  0.00  0.00    -0.154 NA
ATOM     10  C   UNL     1      -2.619  -4.918   2.897  0.00  0.00    +0.276 C 
ATOM     11  O   UNL     1      -3.726  -5.433   2.903  0.00  0.00    -0.267 OA
ATOM     12  C   UNL     1      -1.600  -5.247   3.918  0.00  0.00    +0.080 C 
ATOM     13  C   UNL     1      -1.668  -6.101   4.972  0.00  0.00    +0.032 C 
ATOM     14  S   UNL     1      -0.251  -4.208   3.371  0.00  0.00    -0.052 S 
ENDROOT
BRANCH  13  15
ATOM     15  C   UNL     1      -0.513  -6.263   5.860  0.00  0.00    +0.021 A 
ATOM     16  C   UNL     1       0.706  -5.617   5.762  0.00  0.00    +0.113 A 
ATOM     17  N   UNL     1       1.483  -6.050   6.769  0.00  0.00    -0.284 N 
ATOM     18  H   UNL     1       2.392  -5.758   6.938  0.00  0.00    +0.188 HD
ATOM     19  N   UNL     1       0.782  -6.983   7.537  0.00  0.00    -0.173 NA
ATOM     20  C   UNL     1      -0.422  -7.139   7.035  0.00  0.00    +0.100 A 
BRANCH  20  21
ATOM     21  C   UNL     1      -1.485  -8.033   7.552  0.00  0.00    +0.003 A 
ATOM     22  C   UNL     1      -2.824  -7.653   7.464  0.00  0.00    +0.010 A 
ATOM     23  C   UNL     1      -3.809  -8.489   7.948  0.00  0.00    +0.001 A 
ATOM     24  C   UNL     1      -3.471  -9.703   8.520  0.00  0.00    +0.000 A 
ATOM     25  C   UNL     1      -2.144 -10.085   8.610  0.00  0.00    +0.001 A 
ATOM     26  C   UNL     1      -1.151  -9.260   8.124  0.00  0.00    +0.010 A 
ENDBRANCH  20  21
ENDBRANCH  13  15
TORSDOF 2
