REMARK  Name = ZINC36207823
REMARK  15 active torsions:
REMARK  status: ('A' for Active; 'I' for Inactive)
REMARK    1  A    between atoms: C_1  and  C_2
REMARK    2  A    between atoms: C_2  and  C_3
REMARK    3  A    between atoms: C_2  and  C_4
REMARK    4  A    between atoms: C_4  and  N_5
REMARK    5  A    between atoms: N_5  and  C_6
REMARK    6  A    between atoms: N_5  and  C_26
REMARK    7  A    between atoms: C_6  and  C_7
REMARK    8  A    between atoms: C_13  and  C_18
REMARK    9  A    between atoms: C_21  and  O_24
REMARK   10  A    between atoms: O_24  and  C_25
REMARK   11  A    between atoms: C_26  and  C_27
REMARK   12  A    between atoms: C_27  and  C_29
REMARK   13  A    between atoms: C_27  and  O_37
REMARK   14  A    between atoms: C_29  and  O_30
REMARK   15  A    between atoms: O_30  and  C_31
REMARK                            x       y       z     vdW  Elec       q    Type
REMARK                         _______ _______ _______ _____ _____    ______ ____
ROOT
ATOM      1  C   UNL     1       3.032  -1.004  -0.448  0.00  0.00    -0.003 C 
ENDROOT
BRANCH   1   2
ATOM      2  C   UNL     1       4.512  -1.031  -0.730  0.00  0.00    +0.094 A 
ATOM      3  N   UNL     1       5.304  -1.903  -0.054  0.00  0.00    -0.312 N 
ATOM      4  H   UNL     1       4.906  -2.497   0.602  0.00  0.00    +0.170 HD
ATOM      5  C   UNL     1       6.630  -1.960  -0.276  0.00  0.00    +0.260 A 
ATOM      6  O   UNL     1       7.327  -2.749   0.339  0.00  0.00    -0.267 OA
ATOM      7  C   UNL     1       7.209  -1.081  -1.246  0.00  0.00    +0.080 A 
ATOM      8  C   UNL     1       8.601  -0.953  -1.660  0.00  0.00    +0.004 A 
ATOM      9  C   UNL     1       8.917  -0.039  -2.609  0.00  0.00    +0.056 A 
ATOM     10  S   UNL     1       7.347   0.708  -3.001  0.00  0.00    -0.076 S 
ATOM     11  C   UNL     1       6.313  -0.215  -1.894  0.00  0.00    +0.116 A 
ATOM     12  N   UNL     1       5.011  -0.220  -1.624  0.00  0.00    -0.229 NA
BRANCH   8  13
ATOM     13  C   UNL     1       9.651  -1.808  -1.055  0.00  0.00    -0.016 A 
ATOM     14  C   UNL     1       9.744  -1.923   0.331  0.00  0.00    +0.012 A 
ATOM     15  C   UNL     1      10.722  -2.719   0.891  0.00  0.00    +0.046 A 
ATOM     16  C   UNL     1      11.612  -3.405   0.076  0.00  0.00    +0.120 A 
ATOM     17  C   UNL     1      11.522  -3.292  -1.305  0.00  0.00    +0.046 A 
ATOM     18  C   UNL     1      10.543  -2.502  -1.871  0.00  0.00    +0.012 A 
BRANCH  16  19
ATOM     19  O   UNL     1      12.574  -4.188   0.631  0.00  0.00    -0.495 OA
ATOM     20  C   UNL     1      13.456  -4.865  -0.267  0.00  0.00    +0.277 C 
ENDBRANCH  16  19
ENDBRANCH   8  13
ENDBRANCH   1   2
BRANCH   1  21
ATOM     21  N   UNL     1       2.369  -0.100  -1.398  0.00  0.00    +0.386 N 
ATOM     22  H   UNL     1       2.840   0.793  -1.397  0.00  0.00    -0.081 HD
BRANCH  21  23
ATOM     23  C   UNL     1       0.967   0.085  -1.001  0.00  0.00    -0.075 C 
BRANCH  23  25
ATOM     24  C   UNL     1       1.565   2.118   0.323  0.00  0.00    +0.005 C 
ATOM     25  C   UNL     1       0.910   0.736   0.382  0.00  0.00    -0.034 C 
ATOM     26  C   UNL     1      -0.550   0.881   0.817  0.00  0.00    +0.005 C 
ENDBRANCH  23  25
ENDBRANCH  21  23
BRANCH  21  27
ATOM     27  C   UNL     1       2.425  -0.681  -2.746  0.00  0.00    -0.043 C 
BRANCH  27  28
ATOM     28  C   UNL     1       1.912   0.341  -3.763  0.00  0.00    +0.135 C 
BRANCH  28  29
ATOM     29  O   UNL     1       0.505   0.522  -3.589  0.00  0.00    -0.390 OA
ATOM     30  H   UNL     1      -0.013  -0.286  -3.710  0.00  0.00    +0.210 HD
ENDBRANCH  28  29
BRANCH  28  31
ATOM     31  C   UNL     1       2.190  -0.165  -5.180  0.00  0.00    +0.258 C 
BRANCH  31  32
ATOM     32  O   UNL     1       1.818   0.839  -6.126  0.00  0.00    -0.489 OA
BRANCH  32  33
ATOM     33  C   UNL     1       2.002   0.546  -7.440  0.00  0.00    +0.121 A 
ATOM     34  C   UNL     1       2.525  -0.684  -7.812  0.00  0.00    +0.045 A 
ATOM     35  C   UNL     1       2.711  -0.979  -9.148  0.00  0.00    +0.004 A 
ATOM     36  C   UNL     1       2.377  -0.049 -10.116  0.00  0.00    +0.000 A 
ATOM     37  C   UNL     1       1.856   1.177  -9.748  0.00  0.00    +0.004 A 
ATOM     38  C   UNL     1       1.663   1.475  -8.413  0.00  0.00    +0.045 A 
ENDBRANCH  32  33
ENDBRANCH  31  32
ENDBRANCH  28  31
ENDBRANCH  27  28
ENDBRANCH  21  27
ENDBRANCH   1  21
TORSDOF 12
