REMARK  Name = ZINC13090076
REMARK  9 active torsions:
REMARK  status: ('A' for Active; 'I' for Inactive)
REMARK    1  A    between atoms: C_1  and  C_2
REMARK    2  A    between atoms: C_5  and  N_9
REMARK    3  A    between atoms: C_7  and  C_8
REMARK    4  A    between atoms: C_12  and  C_15
REMARK    5  A    between atoms: C_15  and  S_16
REMARK    6  A    between atoms: S_16  and  C_17
REMARK    7  A    between atoms: C_20  and  C_28
REMARK    8  A    between atoms: N_21  and  C_22
REMARK    9  A    between atoms: C_30  and  C_32
REMARK                            x       y       z     vdW  Elec       q    Type
REMARK                         _______ _______ _______ _____ _____    ______ ____
ROOT
ATOM      1  N   UNL     1       2.356   3.889   0.001  0.00  0.00    -0.219 N 
ATOM      2  C   UNL     1       3.571   3.216   0.090  0.00  0.00    +0.172 A 
ATOM      3  N   UNL     1       4.788   3.713   0.187  0.00  0.00    -0.228 NA
ATOM      4  C   UNL     1       5.844   2.926   0.264  0.00  0.00    +0.061 A 
ATOM      5  C   UNL     1       5.652   1.585   0.242  0.00  0.00    +0.072 A 
ATOM      6  S   UNL     1       3.872   1.506   0.111  0.00  0.00    -0.060 S 
ATOM      7  C   UNL     1       2.336   5.233  -0.096  0.00  0.00    +0.223 C 
ATOM      8  O   UNL     1       3.376   5.850  -0.196  0.00  0.00    -0.275 OA
ATOM      9  C   UNL     1       1.022   5.970  -0.079  0.00  0.00    +0.110 C 
ENDROOT
BRANCH   1  14
ATOM     10  C   UNL     1      -2.506   0.964   0.049  0.00  0.00    +0.044 C 
ATOM     11  C   UNL     1      -1.216   1.743   0.035  0.00  0.00    -0.047 A 
ATOM     12  C   UNL     1      -0.878   2.538   1.115  0.00  0.00    +0.005 A 
ATOM     13  C   UNL     1       0.306   3.249   1.108  0.00  0.00    +0.024 A 
ATOM     14  C   UNL     1       1.155   3.170   0.011  0.00  0.00    +0.043 A 
ATOM     15  C   UNL     1       0.810   2.376  -1.074  0.00  0.00    +0.027 A 
ATOM     16  C   UNL     1      -0.376   1.667  -1.061  0.00  0.00    -0.046 A 
ATOM     17  C   UNL     1      -0.751   0.806  -2.239  0.00  0.00    +0.044 C 
ENDBRANCH   1  14
BRANCH   4  18
ATOM     18  C   UNL     1       7.231   3.506   0.375  0.00  0.00    +0.133 C 
BRANCH  18  19
ATOM     19  S   UNL     1       7.654   3.728   2.121  0.00  0.00    -0.081 S 
BRANCH  19  20
ATOM     20  C   UNL     1       9.276   4.397   1.959  0.00  0.00    +0.174 A 
ATOM     21  N   UNL     1       9.899   4.626   0.821  0.00  0.00    -0.229 NA
ATOM     22  C   UNL     1      11.106   5.134   1.058  0.00  0.00    +0.147 A 
ATOM     23  C   UNL     1      11.266   5.236   2.424  0.00  0.00    +0.156 A 
ATOM     24  N   UNL     1      10.084   4.766   2.990  0.00  0.00    -0.282 N 
BRANCH  24  25
ATOM     25  C   UNL     1       9.785   4.686   4.356  0.00  0.00    +0.049 A 
ATOM     26  C   UNL     1       9.681   5.844   5.114  0.00  0.00    +0.026 A 
ATOM     27  C   UNL     1       9.382   5.762   6.460  0.00  0.00    +0.002 A 
ATOM     28  C   UNL     1       9.197   4.527   7.055  0.00  0.00    +0.000 A 
ATOM     29  C   UNL     1       9.305   3.371   6.303  0.00  0.00    +0.002 A 
ATOM     30  C   UNL     1       9.599   3.447   4.956  0.00  0.00    +0.026 A 
ENDBRANCH  24  25
BRANCH  23  31
ATOM     31  C   UNL     1      12.402   5.726   3.113  0.00  0.00    +0.405 C 
ATOM     32  O   UNL     1      13.373   6.113   2.489  0.00  0.00    -0.239 OA
ATOM     33  O   UNL     1      12.409   5.765   4.462  0.00  0.00    -0.239 OA
ENDBRANCH  23  31
ENDBRANCH  19  20
ENDBRANCH  18  19
ENDBRANCH   4  18
TORSDOF 6
