REMARK  Name = ZINC02647951
REMARK  5 active torsions:
REMARK  status: ('A' for Active; 'I' for Inactive)
REMARK    1  A    between atoms: C_4  and  S_22
REMARK    2  A    between atoms: C_5  and  N_7
REMARK    3  A    between atoms: C_8  and  C_10
REMARK    4  A    between atoms: C_10  and  N_11
REMARK    5  A    between atoms: S_22  and  C_23
REMARK                            x       y       z     vdW  Elec       q    Type
REMARK                         _______ _______ _______ _____ _____    ______ ____
ROOT
ATOM      1  N   UNL     1      -2.852  -1.678  -1.599  0.00  0.00    -0.283 N 
ATOM      2  C   UNL     1      -2.199  -0.538  -1.297  0.00  0.00    +0.235 C 
ATOM      3  O   UNL     1      -1.855   0.216  -2.182  0.00  0.00    -0.274 OA
ATOM      4  H   UNL     1      -3.062  -2.317  -0.899  0.00  0.00    +0.155 HD
ENDROOT
BRANCH   1   9
ATOM      5  C   UNL     1      -2.866  -1.671  -5.278  0.00  0.00    +0.002 A 
ATOM      6  C   UNL     1      -3.969  -2.462  -5.542  0.00  0.00    +0.001 A 
ATOM      7  C   UNL     1      -4.706  -2.996  -4.503  0.00  0.00    +0.017 A 
ATOM      8  C   UNL     1      -4.337  -2.744  -3.189  0.00  0.00    +0.034 A 
ATOM      9  C   UNL     1      -3.227  -1.941  -2.923  0.00  0.00    +0.047 A 
ATOM     10  C   UNL     1      -2.494  -1.409  -3.972  0.00  0.00    +0.024 A 
BRANCH   8  11
ATOM     11  S   UNL     1      -5.271  -3.430  -1.861  0.00  0.00    -0.088 S 
BRANCH  11  12
ATOM     12  C   UNL     1      -4.266  -4.753  -1.273  0.00  0.00    +0.013 A 
ATOM     13  C   UNL     1      -3.104  -5.100  -1.952  0.00  0.00    +0.016 A 
ATOM     14  C   UNL     1      -2.317  -6.134  -1.485  0.00  0.00    +0.021 A 
ATOM     15  C   UNL     1      -2.689  -6.831  -0.349  0.00  0.00    +0.041 A 
ATOM     16  C   UNL     1      -3.849  -6.491   0.326  0.00  0.00    +0.021 A 
ATOM     17  C   UNL     1      -4.638  -5.455  -0.133  0.00  0.00    +0.016 A 
ATOM     18 CL   UNL     1      -1.700  -8.134   0.231  0.00  0.00    -0.084 Cl
ENDBRANCH  11  12
ENDBRANCH   8  11
ENDBRANCH   1   9
BRANCH   2  19
ATOM     19  C   UNL     1      -1.896  -0.201   0.140  0.00  0.00    +0.214 C 
BRANCH  19  20
ATOM     20  N   UNL     1      -1.186   1.079   0.202  0.00  0.00    -0.215 N 
ATOM     21  C   UNL     1      -1.793   2.280   0.314  0.00  0.00    +0.247 C 
ATOM     22  O   UNL     1      -2.984   2.499   0.375  0.00  0.00    -0.273 OA
ATOM     23  C   UNL     1      -0.675   3.290   0.340  0.00  0.00    +0.113 C 
ATOM     24  C   UNL     1      -0.692   4.099   1.643  0.00  0.00    +0.035 C 
ATOM     25  C   UNL     1      -0.229   5.515   1.212  0.00  0.00    +0.003 C 
ATOM     26  C   UNL     1      -0.890   5.686  -0.179  0.00  0.00    +0.003 C 
ATOM     27  C   UNL     1      -0.796   4.283  -0.819  0.00  0.00    +0.035 C 
ATOM     28  N   UNL     1       0.546   2.489   0.231  0.00  0.00    -0.285 N 
ATOM     29  C   UNL     1       0.147   1.203   0.155  0.00  0.00    +0.310 C 
ATOM     30  O   UNL     1       0.911   0.263   0.056  0.00  0.00    -0.252 OA
ATOM     31  H   UNL     1       1.458   2.817   0.216  0.00  0.00    +0.151 HD
ENDBRANCH  19  20
ENDBRANCH   2  19
TORSDOF 5
