REMARK  Name = ZINC23081340
REMARK  8 active torsions:
REMARK  status: ('A' for Active; 'I' for Inactive)
REMARK    1  A    between atoms: C_1  and  C_2
REMARK    2  A    between atoms: C_2  and  C_4
REMARK    3  A    between atoms: C_2  and  O_19
REMARK    4  A    between atoms: N_6  and  C_7
REMARK    5  A    between atoms: C_12  and  C_13
REMARK    6  A    between atoms: O_19  and  C_20
REMARK    7  A    between atoms: C_20  and  C_22
REMARK    8  A    between atoms: C_26  and  N_31
REMARK                            x       y       z     vdW  Elec       q    Type
REMARK                         _______ _______ _______ _____ _____    ______ ____
ROOT
ATOM      1  C   UNL     1      -2.826   0.786   1.474  0.00  0.00    +0.062 C 
ATOM      2  C   UNL     1      -2.402   1.068   0.032  0.00  0.00    +0.259 C 
ENDROOT
BRANCH   2   3
ATOM      3  C   UNL     1      -3.504   1.811  -0.679  0.00  0.00    +0.258 C 
ATOM      4  O   UNL     1      -3.292   2.912  -1.141  0.00  0.00    -0.271 OA
ATOM      5  N   UNL     1      -4.724   1.251  -0.802  0.00  0.00    -0.282 N 
ATOM      6  H   UNL     1      -4.891   0.218  -0.465  0.00  0.00    +0.155 HD
BRANCH   5   7
ATOM      7  C   UNL     1      -5.776   1.984  -1.359  0.00  0.00    +0.041 A 
ATOM      8  C   UNL     1      -5.760   3.370  -1.313  0.00  0.00    +0.024 A 
ATOM      9  C   UNL     1      -6.798   4.093  -1.868  0.00  0.00    +0.002 A 
ATOM     10  C   UNL     1      -7.864   3.440  -2.462  0.00  0.00    +0.001 A 
ATOM     11  C   UNL     1      -7.896   2.061  -2.510  0.00  0.00    +0.010 A 
ATOM     12  C   UNL     1      -6.852   1.321  -1.959  0.00  0.00    +0.003 A 
BRANCH  12  13
ATOM     13  C   UNL     1      -6.882  -0.160  -2.008  0.00  0.00    -0.016 A 
ATOM     14  C   UNL     1      -5.777  -0.867  -2.478  0.00  0.00    +0.008 A 
ATOM     15  C   UNL     1      -5.808  -2.246  -2.517  0.00  0.00    +0.001 A 
ATOM     16  C   UNL     1      -6.938  -2.927  -2.101  0.00  0.00    +0.000 A 
ATOM     17  C   UNL     1      -8.040  -2.231  -1.638  0.00  0.00    +0.001 A 
ATOM     18  C   UNL     1      -8.018  -0.852  -1.590  0.00  0.00    +0.008 A 
ENDBRANCH  12  13
ENDBRANCH   5   7
ENDBRANCH   2   3
BRANCH   2  19
ATOM     19  O   UNL     1      -1.195   1.875   0.031  0.00  0.00    -0.448 OA
BRANCH  19  20
ATOM     20  C   UNL     1      -0.018   1.217   0.032  0.00  0.00    +0.347 C 
ATOM     21  O   UNL     1      -0.002   0.002   0.033  0.00  0.00    -0.244 OA
BRANCH  20  22
ATOM     22  C   UNL     1       1.243   1.969   0.025  0.00  0.00    +0.097 A 
ATOM     23  C   UNL     1       2.516   1.489   0.026  0.00  0.00    +0.031 A 
ATOM     24  C   UNL     1       3.602   2.381   0.015  0.00  0.00    -0.008 A 
ATOM     25  C   UNL     1       4.988   2.078   0.009  0.00  0.00    +0.041 A 
ATOM     26  C   UNL     1       5.916   3.069   0.004  0.00  0.00    +0.127 A 
ATOM     27  C   UNL     1       5.551   4.410   0.005  0.00  0.00    +0.034 A 
ATOM     28  C   UNL     1       4.213   4.750   0.010  0.00  0.00    +0.018 A 
ATOM     29  C   UNL     1       3.259   3.754   0.015  0.00  0.00    +0.020 A 
ATOM     30  S   UNL     1       1.484   3.737   0.023  0.00  0.00    -0.082 S 
BRANCH  26  31
ATOM     31  N   UNL     1       7.353   2.712  -0.002  0.00  0.00    +0.056 N 
ATOM     32  O   UNL     1       7.690   1.542  -0.003  0.00  0.00    -0.126 OA
ATOM     33  O   UNL     1       8.198   3.589  -0.007  0.00  0.00    -0.126 OA
ENDBRANCH  26  31
ENDBRANCH  20  22
ENDBRANCH  19  20
ENDBRANCH   2  19
TORSDOF 7
