REMARK  Name = ZINC32128005
REMARK  4 active torsions:
REMARK  status: ('A' for Active; 'I' for Inactive)
REMARK    1  A    between atoms: C_1  and  C_2
REMARK    2  A    between atoms: C_5  and  C_9
REMARK    3  A    between atoms: N_11  and  C_12
REMARK    4  A    between atoms: C_12  and  N_14
REMARK                            x       y       z     vdW  Elec       q    Type
REMARK                         _______ _______ _______ _____ _____    ______ ____
ROOT
ATOM      1  C   UNL     1      -0.021   1.708   0.011  0.00  0.00    +0.163 C 
ATOM      2  S   UNL     1       0.002  -0.004   0.002  0.00  0.00    -0.016 S 
ENDROOT
BRANCH   1   3
ATOM      3  N   UNL     1      -1.197   2.366   0.021  0.00  0.00    -0.169 NA
ATOM      4  C   UNL     1      -2.387   1.657   0.022  0.00  0.00    +0.163 A 
ATOM      5  N   UNL     1      -3.617   2.114   0.031  0.00  0.00    -0.334 N 
ATOM      6  C   UNL     1      -4.695   1.299   0.031  0.00  0.00    +0.075 A 
ATOM      7  C   UNL     1      -4.414  -0.086   0.022  0.00  0.00    +0.040 A 
ATOM      8  S   UNL     1      -2.638  -0.112   0.006  0.00  0.00    -0.052 S 
ATOM      9  C   UNL     1      -5.399  -1.042   0.022  0.00  0.00    +0.019 A 
ATOM     10  C   UNL     1      -6.727  -0.655   0.030  0.00  0.00    +0.022 A 
ATOM     11  C   UNL     1      -7.041   0.697   0.038  0.00  0.00    +0.061 A 
ATOM     12  C   UNL     1      -6.063   1.659   0.039  0.00  0.00    +0.084 A 
ATOM     13 CL   UNL     1      -6.509   3.337   0.051  0.00  0.00    -0.080 Cl
ATOM     14 CL   UNL     1      -8.708   1.181   0.048  0.00  0.00    -0.082 Cl
ATOM     15  H   UNL     1      -3.801   3.199   0.037  0.00  0.00    +0.168 HD
ENDBRANCH   1   3
BRANCH   1  18
ATOM     16  C   UNL     1       2.313   1.740  -0.011  0.00  0.00    +0.251 C 
ATOM     17  O   UNL     1       2.329   0.524  -0.017  0.00  0.00    -0.270 OA
ATOM     18  N   UNL     1       1.137   2.397   0.004  0.00  0.00    -0.262 N 
ATOM     19  H   UNL     1       1.122   3.497   0.010  0.00  0.00    +0.157 HD
BRANCH  16  24
ATOM     20  C   UNL     1       7.256   4.686  -0.039  0.00  0.00    +0.044 C 
ATOM     21  C   UNL     1       5.962   3.913  -0.032  0.00  0.00    -0.049 A 
ATOM     22  C   UNL     1       4.755   4.591  -0.018  0.00  0.00    +0.004 A 
ATOM     23  C   UNL     1       3.567   3.892  -0.011  0.00  0.00    +0.015 A 
ATOM     24  C   UNL     1       3.582   2.495  -0.019  0.00  0.00    +0.055 A 
ATOM     25  C   UNL     1       4.803   1.817  -0.028  0.00  0.00    +0.053 A 
ATOM     26  C   UNL     1       5.986   2.531  -0.040  0.00  0.00    +0.024 A 
ATOM     27 CL   UNL     1       4.834   0.081  -0.031  0.00  0.00    -0.083 Cl
ENDBRANCH  16  24
ENDBRANCH   1  18
TORSDOF 3
