REMARK  Name = ZINC09229530
REMARK  9 active torsions:
REMARK  status: ('A' for Active; 'I' for Inactive)
REMARK    1  A    between atoms: C_3  and  N_31
REMARK    2  A    between atoms: C_6  and  C_7
REMARK    3  A    between atoms: C_8  and  C_9
REMARK    4  A    between atoms: N_11  and  C_12
REMARK    5  A    between atoms: C_12  and  N_14
REMARK    6  A    between atoms: N_14  and  C_15
REMARK    7  A    between atoms: C_18  and  S_21
REMARK    8  A    between atoms: S_21  and  N_24
REMARK    9  A    between atoms: N_24  and  C_25
REMARK                            x       y       z     vdW  Elec       q    Type
REMARK                         _______ _______ _______ _____ _____    ______ ____
ROOT
ATOM      1  N   UNL     1       0.060  -4.169  -0.021  0.00  0.00    -0.297 N 
ATOM      2  H   UNL     1       0.746  -4.642  -0.519  0.00  0.00    +0.154 HD
ENDROOT
BRANCH   1   3
ATOM      3  C   UNL     1       0.047  -2.771  -0.004  0.00  0.00    +0.033 A 
ATOM      4  C   UNL     1      -0.215  -2.091   1.179  0.00  0.00    +0.025 A 
ATOM      5  C   UNL     1      -0.227  -0.711   1.192  0.00  0.00    +0.030 A 
ATOM      6  C   UNL     1       0.022  -0.004   0.030  0.00  0.00    +0.105 A 
ATOM      7  C   UNL     1       0.277  -0.677  -1.151  0.00  0.00    +0.030 A 
ATOM      8  C   UNL     1       0.296  -2.058  -1.170  0.00  0.00    +0.025 A 
BRANCH   6   9
ATOM      9  S   UNL     1       0.006   1.758   0.051  0.00  0.00    +0.059 S 
ATOM     10  O   UNL     1      -0.270   2.178  -1.278  0.00  0.00    -0.153 OA
ATOM     11  O   UNL     1      -0.801   2.143   1.156  0.00  0.00    -0.153 OA
BRANCH   9  12
ATOM     12  N   UNL     1       1.548   2.257   0.394  0.00  0.00    -0.187 NA
ATOM     13  H   UNL     1       1.731   2.731   1.220  0.00  0.00    +0.148 HD
BRANCH  12  14
ATOM     14  C   UNL     1       2.634   1.982  -0.550  0.00  0.00    +0.077 C 
ATOM     15  C   UNL     1       3.351   0.694  -0.142  0.00  0.00    +0.020 C 
ATOM     16  C   UNL     1       4.485   0.407  -1.128  0.00  0.00    +0.002 C 
ATOM     17  C   UNL     1       5.479   1.571  -1.114  0.00  0.00    +0.000 C 
ATOM     18  C   UNL     1       4.761   2.859  -1.522  0.00  0.00    +0.002 C 
ATOM     19  C   UNL     1       3.627   3.146  -0.536  0.00  0.00    +0.020 C 
ENDBRANCH  12  14
ENDBRANCH   9  12
ENDBRANCH   6   9
ENDBRANCH   1   3
BRANCH   1  20
ATOM     20  C   UNL     1      -0.880  -4.860   0.654  0.00  0.00    +0.141 C 
ATOM     21  S   UNL     1      -2.171  -4.032   1.415  0.00  0.00    -0.018 S 
BRANCH  20  24
ATOM     22  C   UNL     1      -1.743  -6.895   1.406  0.00  0.00    +0.242 C 
ATOM     23  O   UNL     1      -2.660  -6.306   1.946  0.00  0.00    -0.270 OA
ATOM     24  N   UNL     1      -0.803  -6.204   0.731  0.00  0.00    -0.264 N 
ATOM     25  H   UNL     1      -0.072  -6.673   0.300  0.00  0.00    +0.157 HD
BRANCH  22  27
ATOM     26  C   UNL     1      -2.600  -9.045   2.165  0.00  0.00    +0.013 C 
ATOM     27  C   UNL     1      -1.660  -8.353   1.489  0.00  0.00    +0.068 C 
BRANCH  26  33
ATOM     28  C   UNL     1      -1.467 -11.193   1.624  0.00  0.00    +0.010 A 
ATOM     29  C   UNL     1      -1.393 -12.567   1.711  0.00  0.00    +0.033 A 
ATOM     30  C   UNL     1      -2.360 -13.273   2.406  0.00  0.00    +0.126 A 
ATOM     31  C   UNL     1      -3.405 -12.607   3.022  0.00  0.00    +0.033 A 
ATOM     32  C   UNL     1      -3.490 -11.232   2.948  0.00  0.00    +0.010 A 
ATOM     33  C   UNL     1      -2.517 -10.512   2.249  0.00  0.00    -0.025 A 
BRANCH  30  34
ATOM     34  N   UNL     1      -2.276 -14.748   2.490  0.00  0.00    +0.056 N 
ATOM     35  O   UNL     1      -3.125 -15.373   3.100  0.00  0.00    -0.126 OA
ATOM     36  O   UNL     1      -1.358 -15.338   1.949  0.00  0.00    -0.126 OA
ENDBRANCH  30  34
ENDBRANCH  26  33
ENDBRANCH  22  27
ENDBRANCH  20  24
ENDBRANCH   1  20
TORSDOF 9
