REMARK  Name = ZINC41189465
REMARK  4 active torsions:
REMARK  status: ('A' for Active; 'I' for Inactive)
REMARK    1  A    between atoms: C_1  and  N_2
REMARK    2  A    between atoms: N_2  and  C_3
REMARK    3  A    between atoms: C_9  and  C_11
REMARK    4  A    between atoms: C_13  and  C_18
REMARK                            x       y       z     vdW  Elec       q    Type
REMARK                         _______ _______ _______ _____ _____    ______ ____
ROOT
ATOM      1  C   UNL     1      -0.189   0.225  -2.423  0.00  0.00    +0.133 A 
ATOM      2  C   UNL     1      -0.260  -0.408  -3.669  0.00  0.00    +0.059 A 
ATOM      3  C   UNL     1      -0.282   0.375  -4.815  0.00  0.00    +0.053 A 
ATOM      4  N   UNL     1      -0.232   1.735  -4.685  0.00  0.00    -0.306 N 
ATOM      5  C   UNL     1      -0.163   2.295  -3.463  0.00  0.00    +0.347 A 
ATOM      6  N   UNL     1      -0.148   1.549  -2.358  0.00  0.00    -0.188 NA
ATOM      7  O   UNL     1      -0.119   3.510  -3.364  0.00  0.00    -0.245 OA
ATOM      8  H   UNL     1      -0.246   2.298  -5.475  0.00  0.00    +0.170 HD
ENDROOT
BRANCH   3   9
ATOM      9  C   UNL     1      -0.356  -0.250  -6.150  0.00  0.00    -0.002 A 
ATOM     10  C   UNL     1      -0.412  -1.640  -6.272  0.00  0.00    +0.010 A 
ATOM     11  C   UNL     1      -0.482  -2.217  -7.523  0.00  0.00    +0.001 A 
ATOM     12  C   UNL     1      -0.497  -1.422  -8.656  0.00  0.00    +0.000 A 
ATOM     13  C   UNL     1      -0.442  -0.043  -8.542  0.00  0.00    +0.001 A 
ATOM     14  C   UNL     1      -0.378   0.547  -7.298  0.00  0.00    +0.010 A 
ENDBRANCH   3   9
BRANCH   1  17
ATOM     15  C   UNL     1      -0.481   1.468   0.100  0.00  0.00    +0.138 C 
ATOM     16  N   UNL     1      -0.238   0.026   0.025  0.00  0.00    -0.269 N 
ATOM     17  C   UNL     1      -0.164  -0.584  -1.175  0.00  0.00    +0.269 C 
ATOM     18  O   UNL     1      -0.078  -1.794  -1.237  0.00  0.00    -0.268 OA
BRANCH  16  19
ATOM     19  C   UNL     1      -0.082  -0.719   1.198  0.00  0.00    +0.036 A 
ATOM     20  C   UNL     1       0.319  -2.047   1.131  0.00  0.00    +0.023 A 
ATOM     21  C   UNL     1       0.472  -2.780   2.291  0.00  0.00    +0.002 A 
ATOM     22  C   UNL     1       0.226  -2.192   3.519  0.00  0.00    +0.000 A 
ATOM     23  C   UNL     1      -0.173  -0.870   3.589  0.00  0.00    +0.002 A 
ATOM     24  C   UNL     1      -0.322  -0.130   2.433  0.00  0.00    +0.023 A 
ENDBRANCH  16  19
ENDBRANCH   1  17
TORSDOF 3
