REMARK  Name = ZINC08686565
REMARK  8 active torsions:
REMARK  status: ('A' for Active; 'I' for Inactive)
REMARK    1  A    between atoms: C_1  and  C_2
REMARK    2  A    between atoms: C_2  and  C_31
REMARK    3  A    between atoms: C_3  and  N_28
REMARK    4  A    between atoms: C_5  and  C_21
REMARK    5  A    between atoms: C_7  and  C_14
REMARK    6  A    between atoms: C_9  and  N_11
REMARK    7  A    between atoms: C_17  and  O_20
REMARK    8  A    between atoms: C_24  and  O_27
REMARK                            x       y       z     vdW  Elec       q    Type
REMARK                         _______ _______ _______ _____ _____    ______ ____
ROOT
ATOM      1  C   UNL     1      -0.523   3.299  -1.873  0.00  0.00    +0.015 C 
ATOM      2  C   UNL     1       0.619   2.280  -1.899  0.00  0.00    +0.017 C 
ATOM      3  C   UNL     1       0.906   1.797  -0.474  0.00  0.00    +0.168 C 
ATOM      4  C   UNL     1       2.006   0.734  -0.514  0.00  0.00    -0.010 C 
ATOM      5  C   UNL     1       1.336   0.040  -2.737  0.00  0.00    -0.010 C 
ATOM      6  C   UNL     1       0.215   1.083  -2.764  0.00  0.00    +0.168 C 
ATOM      7  C   UNL     1       1.874   2.932  -2.481  0.00  0.00    +0.015 C 
ATOM      8  N   UNL     1       1.571  -0.402  -1.349  0.00  0.00    +0.391 N 
ATOM      9  H   UNL     1       0.701  -0.790  -0.966  0.00  0.00    -0.084 HD
ATOM     10  H   UNL     1       2.300  -1.125  -1.343  0.00  0.00    -0.084 HD
ENDROOT
BRANCH   5  11
ATOM     11  C   UNL     1       2.597   0.644  -3.297  0.00  0.00    -0.059 A 
ATOM     12  C   UNL     1       2.572   1.281  -4.524  0.00  0.00    +0.005 A 
ATOM     13  C   UNL     1       3.726   1.840  -5.038  0.00  0.00    +0.045 A 
ATOM     14  C   UNL     1       4.913   1.753  -4.326  0.00  0.00    +0.117 A 
ATOM     15  C   UNL     1       4.938   1.108  -3.098  0.00  0.00    +0.045 A 
ATOM     16  C   UNL     1       3.780   0.555  -2.586  0.00  0.00    +0.005 A 
BRANCH  14  17
ATOM     17  O   UNL     1       6.051   2.298  -4.832  0.00  0.00    -0.507 OA
ATOM     18  H   UNL     1       6.567   1.692  -5.382  0.00  0.00    +0.292 HD
ENDBRANCH  14  17
ENDBRANCH   5  11
BRANCH   4  19
ATOM     19  C   UNL     1       2.279   0.241   0.884  0.00  0.00    -0.059 A 
ATOM     20  C   UNL     1       1.438  -0.691   1.464  0.00  0.00    +0.005 A 
ATOM     21  C   UNL     1       1.689  -1.148   2.743  0.00  0.00    +0.045 A 
ATOM     22  C   UNL     1       2.779  -0.662   3.450  0.00  0.00    +0.117 A 
ATOM     23  C   UNL     1       3.617   0.277   2.869  0.00  0.00    +0.045 A 
ATOM     24  C   UNL     1       3.366   0.727   1.587  0.00  0.00    +0.005 A 
BRANCH  22  25
ATOM     25  O   UNL     1       3.024  -1.106   4.711  0.00  0.00    -0.507 OA
ATOM     26  H   UNL     1       2.593  -0.584   5.402  0.00  0.00    +0.292 HD
ENDBRANCH  22  25
ENDBRANCH   4  19
BRANCH   6  27
ATOM     27  N   UNL     1      -0.006   1.527  -4.142  0.00  0.00    +0.025 N 
ATOM     28  O   UNL     1      -0.230   0.710  -5.017  0.00  0.00    -0.131 OA
ATOM     29  O   UNL     1       0.034   2.714  -4.413  0.00  0.00    -0.131 OA
ENDBRANCH   6  27
BRANCH   3  30
ATOM     30  N   UNL     1       1.347   2.928   0.346  0.00  0.00    +0.025 N 
ATOM     31  O   UNL     1       2.348   3.550   0.038  0.00  0.00    -0.131 OA
ATOM     32  O   UNL     1       0.714   3.245   1.337  0.00  0.00    -0.131 OA
ENDBRANCH   3  30
TORSDOF 6
