REMARK  Name = ZINC04880830
REMARK  13 active torsions:
REMARK  status: ('A' for Active; 'I' for Inactive)
REMARK    1  A    between atoms: C_1  and  C_2
REMARK    2  A    between atoms: C_2  and  C_3
REMARK    3  A    between atoms: C_3  and  N_4
REMARK    4  A    between atoms: C_8  and  C_10
REMARK    5  A    between atoms: C_13  and  C_16
REMARK    6  A    between atoms: C_16  and  C_17
REMARK    7  A    between atoms: C_16  and  C_18
REMARK    8  A    between atoms: C_16  and  C_19
REMARK    9  A    between atoms: C_20  and  C_22
REMARK   10  A    between atoms: C_22  and  C_23
REMARK   11  A    between atoms: C_23  and  C_24
REMARK   12  A    between atoms: C_23  and  C_25
REMARK   13  A    between atoms: C_23  and  C_26
REMARK                            x       y       z     vdW  Elec       q    Type
REMARK                         _______ _______ _______ _____ _____    ______ ____
ROOT
ATOM      1  N   UNL     1       6.314  -0.109  -0.056  0.00  0.00    -0.249 N 
ATOM      2  C   UNL     1       4.954   0.177  -0.042  0.00  0.00    +0.191 A 
ATOM      3  N   UNL     1       3.920  -0.649  -0.036  0.00  0.00    -0.125 NA
ATOM      4  N   UNL     1       2.730  -0.228  -0.017  0.00  0.00    -0.140 NA
ATOM      5  C   UNL     1       2.478   1.075  -0.015  0.00  0.00    +0.134 A 
ATOM      6  S   UNL     1       4.148   1.718  -0.027  0.00  0.00    -0.030 S 
ATOM      7  C   UNL     1       7.214   0.895  -0.060  0.00  0.00    +0.222 C 
ATOM      8  O   UNL     1       6.837   2.047  -0.052  0.00  0.00    -0.275 OA
ENDROOT
BRANCH   5   9
ATOM      9  C   UNL     1       1.186   1.792   0.000  0.00  0.00    +0.009 A 
ATOM     10  C   UNL     1      -0.013   1.076   0.008  0.00  0.00    +0.011 A 
ATOM     11  C   UNL     1      -1.216   1.751   0.017  0.00  0.00    +0.005 A 
ATOM     12  C   UNL     1      -1.236   3.134   0.030  0.00  0.00    -0.042 A 
ATOM     13  C   UNL     1      -0.052   3.850   0.022  0.00  0.00    +0.005 A 
ATOM     14  C   UNL     1       1.158   3.187   0.008  0.00  0.00    +0.011 A 
BRANCH  12  15
ATOM     15  C   UNL     1      -2.554   3.865   0.047  0.00  0.00    -0.013 C 
ATOM     16  C   UNL     1      -2.663   4.749  -1.197  0.00  0.00    +0.015 C 
ATOM     17  C   UNL     1      -3.700   2.851   0.053  0.00  0.00    +0.015 C 
ATOM     18  C   UNL     1      -2.638   4.737   1.301  0.00  0.00    +0.015 C 
ENDBRANCH  12  15
ENDBRANCH   5   9
BRANCH   1  19
ATOM     19  C   UNL     1       6.770  -1.501  -0.067  0.00  0.00    +0.115 C 
BRANCH  19  21
ATOM     20  C   UNL     1       7.390  -3.434  -1.524  0.00  0.00    +0.005 C 
ATOM     21  C   UNL     1       6.914  -1.980  -1.513  0.00  0.00    +0.016 C 
ENDBRANCH  19  21
ENDBRANCH   1  19
BRANCH   7  22
ATOM     22  C   UNL     1       8.688   0.584  -0.076  0.00  0.00    +0.102 C 
BRANCH  22  23
ATOM     23  C   UNL     1       9.484   1.891  -0.078  0.00  0.00    -0.029 C 
ATOM     24  C   UNL     1       9.146   2.696   1.178  0.00  0.00    +0.011 C 
ATOM     25  C   UNL     1      10.982   1.576  -0.094  0.00  0.00    +0.011 C 
ATOM     26  C   UNL     1       9.122   2.707  -1.320  0.00  0.00    +0.011 C 
ENDBRANCH  22  23
ENDBRANCH   7  22
TORSDOF 6
