REMARK  Name = ZINC04858274
REMARK  8 active torsions:
REMARK  status: ('A' for Active; 'I' for Inactive)
REMARK    1  A    between atoms: C_1  and  C_2
REMARK    2  A    between atoms: C_4  and  C_27
REMARK    3  A    between atoms: C_5  and  C_26
REMARK    4  A    between atoms: C_6  and  S_9
REMARK    5  A    between atoms: C_7  and  C_8
REMARK    6  A    between atoms: S_9  and  N_12
REMARK    7  A    between atoms: C_15  and  C_18
REMARK    8  A    between atoms: C_15  and  N_61
REMARK                            x       y       z     vdW  Elec       q    Type
REMARK                         _______ _______ _______ _____ _____    ______ ____
ROOT
ATOM      1  N   UNL     1      -0.851  -2.920  -1.877  0.00  0.00    -0.177 NA
ATOM      2  C   UNL     1      -1.506  -2.151  -2.945  0.00  0.00    +0.108 C 
ATOM      3  C   UNL     1      -2.587  -1.264  -2.321  0.00  0.00    +0.014 C 
ATOM      4  C   UNL     1      -1.964  -0.405  -1.219  0.00  0.00    +0.015 C 
ATOM      5  C   UNL     1      -1.392  -1.310  -0.126  0.00  0.00    +0.014 C 
ATOM      6  C   UNL     1      -0.297  -2.198  -0.724  0.00  0.00    +0.108 C 
ENDROOT
BRANCH   4  12
ATOM      7  C   UNL     1      -3.660   1.259  -1.685  0.00  0.00    -0.077 C 
ATOM      8  C   UNL     1      -4.817   2.048  -1.068  0.00  0.00    -0.019 C 
ATOM      9  C   UNL     1      -4.273   2.972   0.025  0.00  0.00    -0.004 C 
ATOM     10  C   UNL     1      -3.541   2.131   1.075  0.00  0.00    -0.019 C 
ATOM     11  C   UNL     1      -2.420   1.340   0.396  0.00  0.00    -0.077 C 
ATOM     12  N   UNL     1      -3.012   0.453  -0.628  0.00  0.00    +0.389 N 
ATOM     13  H   UNL     1      -3.720  -0.143  -0.183  0.00  0.00    -0.080 HD
ENDBRANCH   4  12
BRANCH   4  14
ATOM     14  C   UNL     1      -0.858   0.436  -1.803  0.00  0.00    +0.200 C 
ATOM     15  O   UNL     1       0.216   0.498  -1.244  0.00  0.00    -0.278 OA
ATOM     16  N   UNL     1      -1.064   1.120  -2.946  0.00  0.00    -0.330 N 
ATOM     17  H   UNL     1      -0.382   1.725  -3.279  0.00  0.00    +0.145 HD
ATOM     18  H   UNL     1      -1.891   1.004  -3.438  0.00  0.00    +0.145 HD
ENDBRANCH   4  14
BRANCH   1  19
ATOM     19  S   UNL     1      -0.742  -4.570  -1.972  0.00  0.00    +0.061 S 
ATOM     20  O   UNL     1      -0.602  -5.045  -0.640  0.00  0.00    -0.153 OA
ATOM     21  O   UNL     1      -1.792  -4.998  -2.827  0.00  0.00    -0.153 OA
BRANCH  19  27
ATOM     22  C   UNL     1       4.312  -5.905  -1.926  0.00  0.00    +0.044 C 
ATOM     23  C   UNL     1       3.080  -5.557  -2.722  0.00  0.00    -0.045 A 
ATOM     24  C   UNL     1       3.135  -5.532  -4.103  0.00  0.00    +0.007 A 
ATOM     25  C   UNL     1       2.005  -5.214  -4.833  0.00  0.00    -0.045 A 
ATOM     26  C   UNL     1       0.821  -4.919  -4.183  0.00  0.00    -0.021 A 
ATOM     27  C   UNL     1       0.767  -4.945  -2.802  0.00  0.00    +0.112 A 
ATOM     28  C   UNL     1       1.898  -5.259  -2.071  0.00  0.00    -0.021 A 
ATOM     29  C   UNL     1       1.840  -5.280  -0.565  0.00  0.00    +0.046 C 
ATOM     30  C   UNL     1      -0.410  -4.572  -4.979  0.00  0.00    +0.046 C 
ATOM     31  C   UNL     1       2.064  -5.186  -6.339  0.00  0.00    +0.044 C 
ENDBRANCH  19  27
ENDBRANCH   1  19
TORSDOF 4
