REMARK  Name = ZINC66690887
REMARK  2 active torsions:
REMARK  status: ('A' for Active; 'I' for Inactive)
REMARK    1  A    between atoms: C_5  and  C_7
REMARK    2  A    between atoms: C_14  and  C_16
REMARK                            x       y       z     vdW  Elec       q    Type
REMARK                         _______ _______ _______ _____ _____    ______ ____
ROOT
ATOM      1  C   UNL     1       2.315  -3.008   0.873  0.00  0.00    +0.168 C 
ATOM      2  C   UNL     1       2.085  -2.968  -0.642  0.00  0.00    +0.144 C 
ATOM      3  N   UNL     1       1.524  -4.263  -1.060  0.00  0.00    -0.296 N 
ATOM      4  C   UNL     1       0.359  -4.781  -0.325  0.00  0.00    +0.136 C 
ATOM      5  C   UNL     1       0.673  -4.732   1.175  0.00  0.00    +0.179 C 
ATOM      6  O   UNL     1       1.109  -3.416   1.523  0.00  0.00    -0.369 OA
ATOM      7  C   UNL     1       2.059  -4.953  -2.086  0.00  0.00    +0.219 C 
ATOM      8  O   UNL     1       1.638  -6.056  -2.361  0.00  0.00    -0.275 OA
ENDROOT
BRANCH   1  13
ATOM      9  C   UNL     1       2.109   0.481   2.302  0.00  0.00    +0.001 A 
ATOM     10  C   UNL     1       3.432   0.881   2.248  0.00  0.00    +0.003 A 
ATOM     11  C   UNL     1       4.394   0.024   1.750  0.00  0.00    +0.039 A 
ATOM     12  C   UNL     1       4.034  -1.237   1.304  0.00  0.00    +0.129 A 
ATOM     13  C   UNL     1       2.709  -1.637   1.358  0.00  0.00    +0.018 A 
ATOM     14  C   UNL     1       1.748  -0.777   1.857  0.00  0.00    +0.009 A 
ATOM     15  F   UNL     1       4.973  -2.076   0.816  0.00  0.00    -0.205 F 
ENDBRANCH   1  13
BRANCH   7  16
ATOM     16  C   UNL     1       3.183  -4.353  -2.892  0.00  0.00    +0.079 C 
ATOM     17  C   UNL     1       3.961  -5.469  -3.602  0.00  0.00    +0.017 C 
ATOM     18  C   UNL     1       5.195  -4.852  -4.263  0.00  0.00    +0.027 C 
ATOM     19  C   UNL     1       4.804  -3.645  -5.065  0.00  0.00    -0.031 C 
ATOM     20  C   UNL     1       3.681  -3.016  -4.927  0.00  0.00    -0.030 C 
ATOM     21  C   UNL     1       2.610  -3.408  -3.950  0.00  0.00    +0.039 C 
ENDBRANCH   7  16
TORSDOF 2
