REMARK  Name = ZINC05562938
REMARK  9 active torsions:
REMARK  status: ('A' for Active; 'I' for Inactive)
REMARK    1  A    between atoms: C_1  and  C_2
REMARK    2  A    between atoms: C_2  and  C_3
REMARK    3  A    between atoms: C_3  and  C_5
REMARK    4  A    between atoms: C_3  and  O_29
REMARK    5  A    between atoms: C_5  and  N_6
REMARK    6  A    between atoms: C_17  and  C_22
REMARK    7  A    between atoms: C_19  and  C_21
REMARK    8  A    between atoms: C_25  and  C_27
REMARK    9  A    between atoms: C_25  and  C_28
REMARK                            x       y       z     vdW  Elec       q    Type
REMARK                         _______ _______ _______ _____ _____    ______ ____
ROOT
ATOM      1  N   UNL     1      -2.790  -2.554  -0.231  0.00  0.00    -0.326 N 
ATOM      2  C   UNL     1      -3.026  -3.910  -0.362  0.00  0.00    +0.133 A 
ATOM      3  C   UNL     1      -4.359  -4.411  -0.369  0.00  0.00    +0.051 A 
ATOM      4  C   UNL     1      -5.616  -3.676  -0.248  0.00  0.00    -0.020 A 
ATOM      5  C   UNL     1      -6.756  -4.398  -0.283  0.00  0.00    +0.021 A 
ATOM      6  S   UNL     1      -6.234  -6.078  -0.478  0.00  0.00    -0.071 S 
ATOM      7  C   UNL     1      -4.480  -5.809  -0.510  0.00  0.00    +0.116 A 
ATOM      8  N   UNL     1      -3.421  -6.586  -0.626  0.00  0.00    -0.203 NA
ATOM      9  C   UNL     1      -2.204  -6.063  -0.612  0.00  0.00    +0.254 A 
ATOM     10  N   UNL     1      -2.018  -4.756  -0.489  0.00  0.00    -0.195 NA
ATOM     11  N   UNL     1      -1.097  -6.904  -0.735  0.00  0.00    -0.202 N 
ATOM     12  C   UNL     1      -1.129  -8.255  -0.879  0.00  0.00    +0.045 A 
ATOM     13  C   UNL     1       0.149  -8.688  -0.964  0.00  0.00    +0.048 A 
ATOM     14  C   UNL     1       0.990  -7.572  -0.870  0.00  0.00    +0.061 A 
ATOM     15  N   UNL     1       0.246  -6.505  -0.739  0.00  0.00    -0.169 NA
ATOM     16  C   UNL     1       2.496  -7.597  -0.917  0.00  0.00    +0.067 C 
ATOM     17  C   UNL     1      -2.366  -9.115  -0.933  0.00  0.00    +0.066 C 
ATOM     18  C   UNL     1      -8.149  -3.859  -0.176  0.00  0.00    +0.203 C 
ATOM     19  O   UNL     1      -8.064  -2.502   0.287  0.00  0.00    -0.368 OA
ATOM     20  C   UNL     1      -7.113  -1.713  -0.432  0.00  0.00    +0.068 C 
ATOM     21  C   UNL     1      -5.689  -2.159  -0.088  0.00  0.00    +0.071 C 
ATOM     22  C   UNL     1      -7.347  -1.882  -1.935  0.00  0.00    +0.041 C 
ATOM     23  C   UNL     1      -7.288  -0.240  -0.057  0.00  0.00    +0.041 C 
ATOM     24  H   UNL     1      -3.527  -1.947  -0.062  0.00  0.00    +0.148 HD
ENDROOT
BRANCH   1  25
ATOM     25  C   UNL     1      -1.425  -2.034  -0.347  0.00  0.00    +0.134 C 
BRANCH  25  26
ATOM     26  C   UNL     1      -1.440  -0.515  -0.163  0.00  0.00    +0.131 C 
BRANCH  26  28
ATOM     27  C   UNL     1      -0.078   1.571  -0.347  0.00  0.00    +0.006 C 
ATOM     28  C   UNL     1      -0.037   0.043  -0.408  0.00  0.00    +0.029 C 
ENDBRANCH  26  28
BRANCH  26  29
ATOM     29  O   UNL     1      -1.853  -0.201   1.168  0.00  0.00    -0.390 OA
ATOM     30  H   UNL     1      -1.277  -0.566   1.855  0.00  0.00    +0.210 HD
ENDBRANCH  26  29
ENDBRANCH  25  26
ENDBRANCH   1  25
TORSDOF 4
