REMARK  Name = ZINC31973960
REMARK  4 active torsions:
REMARK  status: ('A' for Active; 'I' for Inactive)
REMARK    1  A    between atoms: C_1  and  C_2
REMARK    2  A    between atoms: C_11  and  C_19
REMARK    3  A    between atoms: C_12  and  C_14
REMARK    4  A    between atoms: C_19  and  N_20
REMARK                            x       y       z     vdW  Elec       q    Type
REMARK                         _______ _______ _______ _____ _____    ______ ____
ROOT
ATOM      1  C   UNL     1      -0.019   1.526   0.010  0.00  0.00    +0.008 C 
ATOM      2  C   UNL     1       0.002  -0.004   0.002  0.00  0.00    -0.009 C 
ATOM      3  C   UNL     1      -1.433  -0.538   0.036  0.00  0.00    +0.010 C 
ATOM      4  C   UNL     1      -1.432  -2.047  -0.210  0.00  0.00    +0.055 C 
ATOM      5  C   UNL     1      -0.466  -2.707   0.771  0.00  0.00    +0.036 A 
ATOM      6  C   UNL     1       0.476  -1.981   1.385  0.00  0.00    +0.013 A 
ATOM      7  S   UNL     1       1.328  -3.160   2.400  0.00  0.00    -0.054 S 
ATOM      8  C   UNL     1       0.366  -4.585   1.945  0.00  0.00    +0.178 A 
ATOM      9  N   UNL     1      -0.534  -4.067   1.055  0.00  0.00    -0.296 N 
ATOM     10  C   UNL     1      -1.318  -5.148   0.662  0.00  0.00    +0.035 A 
ATOM     11  C   UNL     1      -0.863  -6.243   1.322  0.00  0.00    +0.098 A 
ATOM     12  N   UNL     1       0.172  -5.862   2.101  0.00  0.00    -0.221 NA
ATOM     13  C   UNL     1       0.744  -0.517   1.245  0.00  0.00    +0.047 C 
ENDROOT
BRANCH  11  14
ATOM     14  C   UNL     1      -1.406  -7.614   1.207  0.00  0.00    +0.039 A 
ATOM     15  C   UNL     1      -0.744  -8.811   1.255  0.00  0.00    +0.018 A 
ATOM     16  C   UNL     1      -1.470  -9.976   1.124  0.00  0.00    +0.008 A 
ATOM     17  C   UNL     1      -2.813  -9.901   0.952  0.00  0.00    +0.046 A 
ATOM     18  S   UNL     1      -3.097  -8.139   0.979  0.00  0.00    -0.095 S 
ENDBRANCH  11  14
BRANCH  10  19
ATOM     19  C   UNL     1      -2.463  -5.108  -0.316  0.00  0.00    -0.029 C 
BRANCH  19  20
ATOM     20  N   UNL     1      -1.957  -5.355  -1.673  0.00  0.00    +0.382 N 
ATOM     21  H   UNL     1      -2.793  -5.327  -2.387  0.00  0.00    -0.090 HD
ATOM     22  H   UNL     1      -1.476  -6.344  -1.710  0.00  0.00    -0.090 HD
ATOM     23  H   UNL     1      -1.222  -4.580  -1.937  0.00  0.00    -0.090 HD
ENDBRANCH  19  20
ENDBRANCH  10  19
TORSDOF 3
