REMARK  Name = ZINC46847197
REMARK  9 active torsions:
REMARK  status: ('A' for Active; 'I' for Inactive)
REMARK    1  A    between atoms: C_1  and  C_2
REMARK    2  A    between atoms: C_7  and  N_8
REMARK    3  A    between atoms: C_9  and  C_31
REMARK    4  A    between atoms: C_10  and  C_13
REMARK    5  A    between atoms: N_15  and  C_16
REMARK    6  A    between atoms: C_16  and  C_17
REMARK    7  A    between atoms: C_20  and  O_23
REMARK    8  A    between atoms: O_23  and  C_24
REMARK    9  A    between atoms: C_24  and  C_25
REMARK                            x       y       z     vdW  Elec       q    Type
REMARK                         _______ _______ _______ _____ _____    ______ ____
ROOT
ATOM      1  C   UNL     1       0.311   0.633   5.923  0.00  0.00    +0.248 C 
ATOM      2  O   UNL     1       0.370  -0.445   6.483  0.00  0.00    -0.270 OA
ATOM      3  N   UNL     1       0.289   1.769   6.649  0.00  0.00    -0.307 N 
ATOM      4  H   UNL     1       0.242   2.628   6.202  0.00  0.00    +0.149 HD
ENDROOT
BRANCH   1   7
ATOM      5  N   UNL     1       0.159   0.119   2.335  0.00  0.00    -0.235 N 
ATOM      6  C   UNL     1       0.176  -0.375   3.586  0.00  0.00    +0.060 A 
ATOM      7  C   UNL     1       0.264   0.698   4.451  0.00  0.00    +0.078 A 
ATOM      8  C   UNL     1       0.301   1.869   3.662  0.00  0.00    +0.148 A 
ATOM      9  N   UNL     1       0.244   1.514   2.408  0.00  0.00    -0.174 NA
BRANCH   5  16
ATOM     10  C   UNL     1      -1.766   0.876   0.381  0.00  0.00    +0.046 C 
ATOM     11  C   UNL     1      -0.848  -0.301   0.179  0.00  0.00    -0.025 A 
ATOM     12  C   UNL     1      -0.923  -1.045  -0.983  0.00  0.00    +0.005 A 
ATOM     13  C   UNL     1      -0.081  -2.125  -1.170  0.00  0.00    +0.000 A 
ATOM     14  C   UNL     1       0.838  -2.466  -0.194  0.00  0.00    +0.002 A 
ATOM     15  C   UNL     1       0.917  -1.727   0.970  0.00  0.00    +0.028 A 
ATOM     16  C   UNL     1       0.077  -0.637   1.157  0.00  0.00    +0.069 A 
ENDBRANCH   5  16
BRANCH   6  17
ATOM     17  C   UNL     1       0.109  -1.830   3.973  0.00  0.00    +0.039 C 
ATOM     18  C   UNL     1      -0.962  -2.691   3.300  0.00  0.00    +0.010 C 
ATOM     19  C   UNL     1      -1.112  -2.294   4.770  0.00  0.00    +0.010 C 
ENDBRANCH   6  17
ENDBRANCH   1   7
BRANCH   3  20
ATOM     20  C   UNL     1       0.335   1.704   8.112  0.00  0.00    +0.139 C 
BRANCH  20  21
ATOM     21  C   UNL     1       0.298   3.101   8.677  0.00  0.00    -0.030 A 
ATOM     22  C   UNL     1       1.477   3.789   8.895  0.00  0.00    +0.009 A 
ATOM     23  C   UNL     1       1.446   5.069   9.414  0.00  0.00    +0.046 A 
ATOM     24  C   UNL     1       0.229   5.664   9.716  0.00  0.00    +0.121 A 
ATOM     25  C   UNL     1      -0.953   4.971   9.496  0.00  0.00    +0.046 A 
ATOM     26  C   UNL     1      -0.916   3.693   8.973  0.00  0.00    +0.009 A 
BRANCH  24  27
ATOM     27  O   UNL     1       0.196   6.923  10.227  0.00  0.00    -0.489 OA
BRANCH  27  28
ATOM     28  C   UNL     1      -1.092   7.472  10.514  0.00  0.00    +0.260 C 
BRANCH  28  29
ATOM     29  C   UNL     1      -0.929   8.885  11.078  0.00  0.00    +0.156 C 
ATOM     30  C   UNL     1      -2.305   9.441  11.504  0.00  0.00    +0.037 C 
ATOM     31  C   UNL     1      -2.212  10.926  11.061  0.00  0.00    +0.031 C 
ATOM     32  C   UNL     1      -1.350  10.798   9.780  0.00  0.00    +0.160 C 
ATOM     33  O   UNL     1      -0.404   9.754  10.067  0.00  0.00    -0.373 OA
ENDBRANCH  28  29
ENDBRANCH  27  28
ENDBRANCH  24  27
ENDBRANCH  20  21
ENDBRANCH   3  20
TORSDOF 8
