REMARK  Name = ZINC15229578
REMARK  6 active torsions:
REMARK  status: ('A' for Active; 'I' for Inactive)
REMARK    1  A    between atoms: C_7  and  C_11
REMARK    2  A    between atoms: C_14  and  S_23
REMARK    3  A    between atoms: N_15  and  C_16
REMARK    4  A    between atoms: S_23  and  C_24
REMARK    5  A    between atoms: C_24  and  C_25
REMARK    6  A    between atoms: N_27  and  C_28
REMARK                            x       y       z     vdW  Elec       q    Type
REMARK                         _______ _______ _______ _____ _____    ______ ____
ROOT
ATOM      1  C   UNL     1       0.690  -3.265   0.078  0.00  0.00    +0.171 A 
ATOM      2  N   UNL     1      -0.623  -3.221   0.073  0.00  0.00    -0.128 NA
ATOM      3  N   UNL     1      -1.104  -4.412   0.057  0.00  0.00    -0.122 NA
ATOM      4  C   UNL     1      -0.131  -5.294   0.051  0.00  0.00    +0.197 A 
ATOM      5  N   UNL     1       1.048  -4.596   0.058  0.00  0.00    -0.270 N 
ENDROOT
BRANCH   1  12
ATOM      6  C   UNL     1      -0.006   1.358   0.146  0.00  0.00    +0.001 A 
ATOM      7  C   UNL     1       1.181   2.077   0.157  0.00  0.00    +0.002 A 
ATOM      8  C   UNL     1       2.396   1.427   0.147  0.00  0.00    +0.026 A 
ATOM      9  C   UNL     1       2.435   0.036   0.127  0.00  0.00    +0.047 A 
ATOM     10  C   UNL     1       1.229  -0.686   0.116  0.00  0.00    +0.010 A 
ATOM     11  C   UNL     1       0.011  -0.009   0.126  0.00  0.00    +0.011 A 
ATOM     12  C   UNL     1       1.608  -2.109   0.095  0.00  0.00    +0.045 A 
ATOM     13  C   UNL     1       2.965  -2.150   0.094  0.00  0.00    +0.095 A 
ATOM     14  N   UNL     1       3.465  -0.880   0.113  0.00  0.00    -0.360 N 
ATOM     15  H   UNL     1       4.408  -0.655   0.116  0.00  0.00    +0.165 HD
ENDBRANCH   1  12
BRANCH   5  16
ATOM     16  C   UNL     1       2.347  -5.124   0.049  0.00  0.00    +0.051 A 
ATOM     17  C   UNL     1       3.184  -4.895  -1.035  0.00  0.00    +0.028 A 
ATOM     18  C   UNL     1       4.463  -5.417  -1.041  0.00  0.00    +0.022 A 
ATOM     19  C   UNL     1       4.910  -6.167   0.032  0.00  0.00    +0.041 A 
ATOM     20  C   UNL     1       4.078  -6.397   1.114  0.00  0.00    +0.022 A 
ATOM     21  C   UNL     1       2.800  -5.873   1.127  0.00  0.00    +0.028 A 
ATOM     22 CL   UNL     1       6.518  -6.822   0.022  0.00  0.00    -0.084 Cl
ENDBRANCH   5  16
BRANCH   4  23
ATOM     23  S   UNL     1      -0.308  -7.047   0.030  0.00  0.00    -0.076 S 
BRANCH  23  24
ATOM     24  C   UNL     1      -2.104  -7.306   0.019  0.00  0.00    +0.173 C 
BRANCH  24  25
ATOM     25  C   UNL     1      -2.398  -8.784   0.001  0.00  0.00    +0.228 C 
ATOM     26  O   UNL     1      -1.486  -9.584  -0.004  0.00  0.00    -0.275 OA
ATOM     27  N   UNL     1      -3.674  -9.217  -0.010  0.00  0.00    -0.282 N 
ATOM     28  H   UNL     1      -4.403  -8.581   0.057  0.00  0.00    +0.155 HD
BRANCH  27  29
ATOM     29  C   UNL     1      -3.947 -10.586  -0.117  0.00  0.00    +0.071 A 
ATOM     30  C   UNL     1      -3.100 -11.523   0.466  0.00  0.00    +0.028 A 
ATOM     31  C   UNL     1      -3.412 -12.867   0.334  0.00  0.00    +0.022 A 
ATOM     32  C   UNL     1      -4.547 -13.230  -0.368  0.00  0.00    +0.112 A 
ATOM     33  N   UNL     1      -5.330 -12.318  -0.909  0.00  0.00    -0.242 NA
ATOM     34  C   UNL     1      -5.073 -11.029  -0.802  0.00  0.00    +0.150 A 
ATOM     35 CL   UNL     1      -6.146  -9.874  -1.529  0.00  0.00    -0.060 Cl
ENDBRANCH  27  29
ENDBRANCH  24  25
ENDBRANCH  23  24
ENDBRANCH   4  23
TORSDOF 6
