REMARK  Name = ZINC00783479
REMARK  6 active torsions:
REMARK  status: ('A' for Active; 'I' for Inactive)
REMARK    1  A    between atoms: C_6  and  O_7
REMARK    2  A    between atoms: O_7  and  C_8
REMARK    3  A    between atoms: C_10  and  N_17
REMARK    4  A    between atoms: C_12  and  N_14
REMARK    5  A    between atoms: C_18  and  C_20
REMARK    6  A    between atoms: C_29  and  N_32
REMARK                            x       y       z     vdW  Elec       q    Type
REMARK                         _______ _______ _______ _____ _____    ______ ____
ROOT
ATOM      1  N   UNL     1      -3.347  -4.643   0.156  0.00  0.00    -0.285 N 
ATOM      2  C   UNL     1      -3.340  -5.977   0.342  0.00  0.00    +0.223 C 
ATOM      3  O   UNL     1      -2.289  -6.584   0.344  0.00  0.00    -0.275 OA
ATOM      4  H   UNL     1      -4.190  -4.167   0.091  0.00  0.00    +0.155 HD
ENDROOT
BRANCH   2   5
ATOM      5  C   UNL     1      -4.637  -6.716   0.549  0.00  0.00    +0.050 C 
ATOM      6  C   UNL     1      -5.340  -6.173   1.794  0.00  0.00    +0.020 C 
ATOM      7  C   UNL     1      -6.657  -6.924   2.004  0.00  0.00    -0.007 C 
ATOM      8  C   UNL     1      -7.557  -6.726   0.782  0.00  0.00    +0.007 C 
ATOM      9  C   UNL     1      -6.853  -7.269  -0.463  0.00  0.00    -0.007 C 
ATOM     10  C   UNL     1      -5.537  -6.519  -0.672  0.00  0.00    +0.020 C 
ATOM     11  C   UNL     1      -6.566  -8.761  -0.277  0.00  0.00    +0.034 C 
ATOM     12  C   UNL     1      -5.666  -8.958   0.945  0.00  0.00    +0.067 C 
ATOM     13  C   UNL     1      -6.370  -8.415   2.190  0.00  0.00    +0.034 C 
ATOM     14  C   UNL     1      -4.350  -8.208   0.735  0.00  0.00    +0.046 C 
BRANCH  12  15
ATOM     15  N   UNL     1      -5.392 -10.386   1.123  0.00  0.00    -0.244 N 
ATOM     16  C   UNL     1      -6.238 -11.316   1.597  0.00  0.00    +0.221 A 
ATOM     17  N   UNL     1      -5.617 -12.468   1.601  0.00  0.00    -0.205 NA
ATOM     18  C   UNL     1      -4.377 -12.313   1.137  0.00  0.00    +0.242 A 
ATOM     19  N   UNL     1      -4.193 -11.056   0.826  0.00  0.00    -0.137 NA
ATOM     20 CL   UNL     1      -3.198 -13.577   0.967  0.00  0.00    -0.040 Cl
ENDBRANCH  12  15
ENDBRANCH   2   5
BRANCH   1  23
ATOM     21  C   UNL     1       0.150  -3.836  -0.660  0.00  0.00    +0.132 A 
ATOM     22  C   UNL     1      -1.045  -4.532  -0.563  0.00  0.00    +0.069 A 
ATOM     23  C   UNL     1      -2.139  -3.943   0.056  0.00  0.00    +0.039 A 
ATOM     24  C   UNL     1      -2.034  -2.659   0.575  0.00  0.00    +0.056 A 
ATOM     25  C   UNL     1      -0.842  -1.969   0.476  0.00  0.00    +0.131 A 
ATOM     26  C   UNL     1       0.251  -2.555  -0.135  0.00  0.00    +0.079 A 
BRANCH  25  27
ATOM     27  N   UNL     1      -0.732  -0.601   1.030  0.00  0.00    +0.057 N 
ATOM     28  O   UNL     1      -1.685  -0.088   1.569  0.00  0.00    -0.126 OA
ATOM     29  O   UNL     1       0.311   0.005   0.943  0.00  0.00    -0.126 OA
ENDBRANCH  25  27
BRANCH  21  30
ATOM     30  O   UNL     1       1.223  -4.409  -1.266  0.00  0.00    -0.456 OA
BRANCH  30  36
ATOM     31  C   UNL     1       0.116  -4.068  -3.344  0.00  0.00    +0.048 A 
ATOM     32  C   UNL     1       0.123  -4.141  -4.723  0.00  0.00    +0.023 A 
ATOM     33  C   UNL     1       1.237  -4.624  -5.386  0.00  0.00    +0.041 A 
ATOM     34  C   UNL     1       2.346  -5.036  -4.669  0.00  0.00    +0.023 A 
ATOM     35  C   UNL     1       2.344  -4.965  -3.289  0.00  0.00    +0.048 A 
ATOM     36  C   UNL     1       1.227  -4.480  -2.623  0.00  0.00    +0.129 A 
ATOM     37 CL   UNL     1       1.243  -4.715  -7.120  0.00  0.00    -0.084 Cl
ENDBRANCH  30  36
ENDBRANCH  21  30
ENDBRANCH   1  23
TORSDOF 6
