REMARK  Name = ZINC04531182
REMARK  8 active torsions:
REMARK  status: ('A' for Active; 'I' for Inactive)
REMARK    1  A    between atoms: C_2  and  C_3
REMARK    2  A    between atoms: C_3  and  C_4
REMARK    3  A    between atoms: C_8  and  C_11
REMARK    4  A    between atoms: C_9  and  O_10
REMARK    5  A    between atoms: N_12  and  N_13
REMARK    6  A    between atoms: C_18  and  C_19
REMARK    7  A    between atoms: C_18  and  C_25
REMARK    8  A    between atoms: C_18  and  N_60
REMARK                            x       y       z     vdW  Elec       q    Type
REMARK                         _______ _______ _______ _____ _____    ______ ____
ROOT
ATOM      1  N   UNL     1       4.798  -2.313   1.017  0.00  0.00    -0.259 N 
ATOM      2  C   UNL     1       6.074  -1.634   0.745  0.00  0.00    +0.107 C 
ATOM      3  C   UNL     1       7.199  -2.434   1.421  0.00  0.00    -0.057 C 
ATOM      4  C   UNL     1       5.876  -4.466   1.395  0.00  0.00    -0.057 C 
ATOM      5  C   UNL     1       4.699  -3.751   0.724  0.00  0.00    +0.107 C 
ATOM      6  N   UNL     1       7.135  -3.833   0.945  0.00  0.00    +0.389 N 
ATOM      7  H   UNL     1       7.162  -3.838  -0.081  0.00  0.00    -0.080 HD
ENDROOT
BRANCH   1   9
ATOM      8  C   UNL     1       3.779  -0.322   1.697  0.00  0.00    +0.141 C 
ATOM      9  N   UNL     1       3.704  -1.607   1.535  0.00  0.00    -0.192 NA
BRANCH   8  14
ATOM     10  C   UNL     1       0.525   0.396   3.441  0.00  0.00    -0.002 A 
ATOM     11  C   UNL     1       0.613   1.766   3.610  0.00  0.00    +0.007 A 
ATOM     12  C   UNL     1       1.724   2.457   3.160  0.00  0.00    +0.001 A 
ATOM     13  C   UNL     1       2.756   1.785   2.538  0.00  0.00    +0.013 A 
ATOM     14  C   UNL     1       2.680   0.402   2.361  0.00  0.00    +0.036 A 
ATOM     15  C   UNL     1       1.552  -0.293   2.818  0.00  0.00    +0.129 A 
BRANCH  15  16
ATOM     16  O   UNL     1       1.467  -1.639   2.652  0.00  0.00    -0.506 OA
ATOM     17  H   UNL     1       1.050  -1.907   1.822  0.00  0.00    +0.292 HD
ENDBRANCH  15  16
BRANCH  10  18
ATOM     18  C   UNL     1      -0.689  -0.347   3.934  0.00  0.00    +0.065 C 
BRANCH  18  20
ATOM     19  C   UNL     1      -1.223  -0.606   6.303  0.00  0.00    +0.004 C 
ATOM     20  C   UNL     1      -0.417  -0.895   5.311  0.00  0.00    -0.030 C 
ENDBRANCH  18  20
ENDBRANCH  10  18
ENDBRANCH   8  14
ENDBRANCH   1   9
BRANCH   6  21
ATOM     21  C   UNL     1       8.293  -4.594   1.459  0.00  0.00    -0.007 C 
BRANCH  21  22
ATOM     22  C   UNL     1       8.239  -5.995   0.906  0.00  0.00    -0.057 A 
ATOM     23  C   UNL     1       7.977  -6.200  -0.435  0.00  0.00    +0.002 A 
ATOM     24  C   UNL     1       7.933  -7.485  -0.943  0.00  0.00    +0.000 A 
ATOM     25  C   UNL     1       8.141  -8.566  -0.106  0.00  0.00    +0.000 A 
ATOM     26  C   UNL     1       8.398  -8.361   1.236  0.00  0.00    +0.000 A 
ATOM     27  C   UNL     1       8.447  -7.076   1.743  0.00  0.00    +0.002 A 
ENDBRANCH  21  22
BRANCH  21  28
ATOM     28  C   UNL     1       9.561  -3.921   1.001  0.00  0.00    -0.057 A 
ATOM     29  C   UNL     1       9.660  -3.439  -0.291  0.00  0.00    +0.002 A 
ATOM     30  C   UNL     1      10.822  -2.818  -0.710  0.00  0.00    +0.000 A 
ATOM     31  C   UNL     1      11.888  -2.688   0.160  0.00  0.00    +0.000 A 
ATOM     32  C   UNL     1      11.791  -3.175   1.450  0.00  0.00    +0.000 A 
ATOM     33  C   UNL     1      10.628  -3.792   1.870  0.00  0.00    +0.002 A 
ENDBRANCH  21  28
ENDBRANCH   6  21
TORSDOF 8
