REMARK  Name = ZINC09233668
REMARK  9 active torsions:
REMARK  status: ('A' for Active; 'I' for Inactive)
REMARK    1  A    between atoms: C_1  and  C_2
REMARK    2  A    between atoms: C_4  and  C_34
REMARK    3  A    between atoms: C_6  and  N_7
REMARK    4  A    between atoms: N_9  and  C_10
REMARK    5  A    between atoms: C_10  and  N_12
REMARK    6  A    between atoms: N_12  and  C_13
REMARK    7  A    between atoms: N_20  and  C_21
REMARK    8  A    between atoms: C_21  and  C_22
REMARK    9  A    between atoms: C_22  and  C_23
REMARK                            x       y       z     vdW  Elec       q    Type
REMARK                         _______ _______ _______ _____ _____    ______ ____
ROOT
ATOM      1  N   UNL     1       0.304  -2.538   2.684  0.00  0.00    -0.179 NA
ATOM      2  C   UNL     1       0.329  -1.669   3.671  0.00  0.00    +0.198 C 
ATOM      3  N   UNL     1      -0.234  -0.426   3.506  0.00  0.00    -0.267 N 
ATOM      4  N   UNL     1       0.915  -2.002   4.862  0.00  0.00    -0.357 N 
ATOM      5  H   UNL     1       1.005  -1.335   5.561  0.00  0.00    +0.162 HD
ATOM      6  H   UNL     1      -0.325  -0.048   2.617  0.00  0.00    +0.157 HD
ENDROOT
BRANCH   1  12
ATOM      7  C   UNL     1      -2.223   0.625   0.150  0.00  0.00    +0.066 C 
ATOM      8  C   UNL     1      -1.560  -0.721   0.284  0.00  0.00    +0.044 A 
ATOM      9  C   UNL     1      -1.606  -1.633  -0.759  0.00  0.00    +0.046 A 
ATOM     10  C   UNL     1      -0.983  -2.861  -0.598  0.00  0.00    +0.044 A 
ATOM     11  N   UNL     1      -0.366  -3.128   0.540  0.00  0.00    -0.216 NA
ATOM     12  C   UNL     1      -0.339  -2.233   1.524  0.00  0.00    +0.254 A 
ATOM     13  N   UNL     1      -0.923  -1.044   1.397  0.00  0.00    -0.216 NA
ATOM     14  C   UNL     1      -1.010  -3.881  -1.707  0.00  0.00    +0.066 C 
ENDBRANCH   1  12
BRANCH   3  15
ATOM     15  C   UNL     1      -0.661   0.269   4.579  0.00  0.00    +0.141 C 
ATOM     16  S   UNL     1      -0.543  -0.416   6.144  0.00  0.00    -0.018 S 
BRANCH  15  17
ATOM     17  N   UNL     1      -1.181   1.502   4.421  0.00  0.00    -0.297 N 
ATOM     18  H   UNL     1      -2.131   1.648   4.551  0.00  0.00    +0.154 HD
BRANCH  17  19
ATOM     19  C   UNL     1      -0.350   2.572   4.067  0.00  0.00    +0.033 A 
ATOM     20  C   UNL     1       0.987   2.345   3.770  0.00  0.00    +0.026 A 
ATOM     21  C   UNL     1       1.805   3.401   3.421  0.00  0.00    +0.040 A 
ATOM     22  C   UNL     1       1.292   4.687   3.368  0.00  0.00    +0.124 A 
ATOM     23  C   UNL     1      -0.041   4.915   3.664  0.00  0.00    +0.040 A 
ATOM     24  C   UNL     1      -0.864   3.861   4.008  0.00  0.00    +0.026 A 
ATOM     25  F   UNL     1       2.094   5.719   3.027  0.00  0.00    -0.205 F 
ENDBRANCH  17  19
ENDBRANCH  15  17
ENDBRANCH   3  15
BRANCH   4  26
ATOM     26  C   UNL     1       1.406  -3.364   5.081  0.00  0.00    +0.120 C 
BRANCH  26  27
ATOM     27  C   UNL     1       2.011  -3.469   6.482  0.00  0.00    +0.058 C 
BRANCH  27  28
ATOM     28  C   UNL     1       2.517  -4.871   6.707  0.00  0.00    -0.021 A 
ATOM     29  C   UNL     1       1.851  -5.874   7.301  0.00  0.00    +0.087 A 
ATOM     30  N   UNL     1       2.628  -7.000   7.326  0.00  0.00    -0.360 N 
ATOM     31  H   UNL     1       2.362  -7.853   7.704  0.00  0.00    +0.165 HD
ATOM     32  C   UNL     1       3.844  -6.742   6.733  0.00  0.00    +0.047 A 
ATOM     33  C   UNL     1       3.825  -5.399   6.314  0.00  0.00    +0.003 A 
ATOM     34  C   UNL     1       4.937  -4.856   5.668  0.00  0.00    +0.010 A 
ATOM     35  C   UNL     1       6.038  -5.633   5.442  0.00  0.00    +0.001 A 
ATOM     36  C   UNL     1       6.060  -6.959   5.850  0.00  0.00    +0.002 A 
ATOM     37  C   UNL     1       4.978  -7.514   6.498  0.00  0.00    +0.026 A 
ENDBRANCH  27  28
ENDBRANCH  26  27
ENDBRANCH   4  26
TORSDOF 7
