REMARK  Name = ZINC09338274
REMARK  16 active torsions:
REMARK  status: ('A' for Active; 'I' for Inactive)
REMARK    1  A    between atoms: C_1  and  C_2
REMARK    2  A    between atoms: C_2  and  N_69
REMARK    3  A    between atoms: C_3  and  C_4
REMARK    4  A    between atoms: C_3  and  N_69
REMARK    5  A    between atoms: C_5  and  C_6
REMARK    6  A    between atoms: C_5  and  N_69
REMARK    7  A    between atoms: C_10  and  C_16
REMARK    8  A    between atoms: C_11  and  C_15
REMARK    9  A    between atoms: N_17  and  C_18
REMARK   10  A    between atoms: C_18  and  C_20
REMARK   11  A    between atoms: C_18  and  C_30
REMARK   12  A    between atoms: C_22  and  O_28
REMARK   13  A    between atoms: C_24  and  O_26
REMARK   14  A    between atoms: O_26  and  C_27
REMARK   15  A    between atoms: O_28  and  C_29
REMARK   16  A    between atoms: N_34  and  C_35
REMARK                            x       y       z     vdW  Elec       q    Type
REMARK                         _______ _______ _______ _____ _____    ______ ____
ROOT
ATOM      1  C   UNL     1      -1.174   5.285   3.971  0.00  0.00    +0.116 A 
ATOM      2  N   UNL     1      -1.411   4.979   2.707  0.00  0.00    -0.219 NA
ATOM      3  C   UNL     1      -2.578   4.503   2.304  0.00  0.00    +0.131 A 
ATOM      4  C   UNL     1      -3.617   4.317   3.257  0.00  0.00    +0.051 A 
ATOM      5  C   UNL     1      -4.965   3.809   3.074  0.00  0.00    -0.028 A 
ATOM      6  C   UNL     1      -5.779   3.714   4.136  0.00  0.00    -0.008 A 
ATOM      7  S   UNL     1      -4.774   4.303   5.486  0.00  0.00    -0.074 S 
ATOM      8  C   UNL     1      -3.288   4.660   4.587  0.00  0.00    +0.114 A 
ATOM      9  N   UNL     1      -2.096   5.130   4.901  0.00  0.00    -0.227 NA
ATOM     10  C   UNL     1      -7.204   3.226   4.178  0.00  0.00    +0.052 C 
ATOM     11  C   UNL     1      -5.446   3.400   1.706  0.00  0.00    +0.045 C 
ATOM     12  N   UNL     1      -2.786   4.195   0.972  0.00  0.00    -0.315 N 
ATOM     13  H   UNL     1      -3.668   3.933   0.667  0.00  0.00    +0.148 HD
ENDROOT
BRANCH   1  14
ATOM     14  C   UNL     1       0.180   5.823   4.357  0.00  0.00    -0.001 C 
BRANCH  14  15
ATOM     15  N   UNL     1       0.162   7.295   4.229  0.00  0.00    +0.384 N 
ATOM     16  H   UNL     1      -0.185   7.544   3.295  0.00  0.00    -0.081 HD
BRANCH  15  18
ATOM     17  C   UNL     1      -0.218   7.583   6.654  0.00  0.00    -0.017 C 
ATOM     18  C   UNL     1      -0.736   7.881   5.246  0.00  0.00    -0.082 C 
ENDBRANCH  15  18
BRANCH  15  19
ATOM     19  C   UNL     1       1.529   7.833   4.392  0.00  0.00    -0.082 C 
ATOM     20  C   UNL     1       1.548   9.284   3.908  0.00  0.00    -0.017 C 
ENDBRANCH  15  19
ENDBRANCH  14  15
ENDBRANCH   1  14
BRANCH  12  21
ATOM     21  C   UNL     1      -1.673   4.264   0.022  0.00  0.00    +0.169 C 
BRANCH  21  22
ATOM     22  C   UNL     1      -2.212   4.497  -1.366  0.00  0.00    -0.013 A 
ATOM     23  C   UNL     1      -3.356   3.842  -1.781  0.00  0.00    +0.051 A 
ATOM     24  C   UNL     1      -3.857   4.059  -3.056  0.00  0.00    +0.124 A 
ATOM     25  C   UNL     1      -3.202   4.924  -3.920  0.00  0.00    +0.091 A 
ATOM     26  C   UNL     1      -2.051   5.575  -3.503  0.00  0.00    +0.124 A 
ATOM     27  C   UNL     1      -1.557   5.359  -2.225  0.00  0.00    +0.051 A 
BRANCH  26  28
ATOM     28  O   UNL     1      -1.407   6.423  -4.347  0.00  0.00    -0.495 OA
ATOM     29  C   UNL     1      -1.971   6.597  -5.648  0.00  0.00    +0.277 C 
ENDBRANCH  26  28
BRANCH  24  30
ATOM     30  O   UNL     1      -4.986   3.420  -3.461  0.00  0.00    -0.495 OA
ATOM     31  C   UNL     1      -5.441   3.686  -4.789  0.00  0.00    +0.277 C 
ENDBRANCH  24  30
ENDBRANCH  21  22
BRANCH  21  32
ATOM     32  C   UNL     1      -0.905   2.968   0.052  0.00  0.00    +0.134 A 
ATOM     33  N   UNL     1      -1.429   1.773   0.045  0.00  0.00    -0.238 NA
ATOM     34  C   UNL     1      -0.448   0.859   0.082  0.00  0.00    +0.130 A 
ATOM     35  C   UNL     1       0.729   1.512   0.105  0.00  0.00    +0.106 A 
ATOM     36  N   UNL     1       0.440   2.850   0.086  0.00  0.00    -0.336 N 
ATOM     37  C   UNL     1       1.409   3.949   0.100  0.00  0.00    +0.150 C 
ENDBRANCH  21  32
ENDBRANCH  12  21
TORSDOF 9
