REMARK  Name = ZINC39984094
REMARK  7 active torsions:
REMARK  status: ('A' for Active; 'I' for Inactive)
REMARK    1  A    between atoms: C_1  and  C_2
REMARK    2  A    between atoms: N_4  and  C_5
REMARK    3  A    between atoms: C_8  and  S_11
REMARK    4  A    between atoms: S_11  and  N_14
REMARK    5  A    between atoms: C_16  and  N_26
REMARK    6  A    between atoms: N_26  and  C_27
REMARK    7  A    between atoms: C_30  and  O_33
REMARK                            x       y       z     vdW  Elec       q    Type
REMARK                         _______ _______ _______ _____ _____    ______ ____
ROOT
ATOM      1  N   UNL     1      -1.073  -7.165   1.809  0.00  0.00    -0.110 NA
ATOM      2  C   UNL     1      -0.917  -8.366   2.281  0.00  0.00    +0.192 C 
ATOM      3  C   UNL     1      -0.860  -8.602   3.774  0.00  0.00    +0.237 C 
ATOM      4  N   UNL     1      -0.683  -9.985   4.244  0.00  0.00    -0.359 N 
ATOM      5  C   UNL     1      -0.584 -10.936   3.358  0.00  0.00    +0.063 A 
ATOM      6  C   UNL     1      -0.406 -12.334   3.776  0.00  0.00    +0.027 A 
ATOM      7  C   UNL     1      -0.307 -13.292   2.828  0.00  0.00    +0.002 A 
ATOM      8  C   UNL     1      -0.371 -12.986   1.459  0.00  0.00    +0.002 A 
ATOM      9  C   UNL     1      -0.533 -11.726   0.999  0.00  0.00    +0.030 A 
ATOM     10  C   UNL     1      -0.647 -10.641   1.905  0.00  0.00    +0.089 A 
ATOM     11  N   UNL     1      -0.810  -9.416   1.451  0.00  0.00    -0.226 NA
ATOM     12  H   UNL     1      -0.641 -10.184   5.193  0.00  0.00    +0.162 HD
ENDROOT
BRANCH   1  13
ATOM     13  S   UNL     1      -1.140  -6.921   0.172  0.00  0.00    +0.100 S 
ATOM     14  O   UNL     1      -2.329  -7.551  -0.283  0.00  0.00    -0.146 OA
ATOM     15  O   UNL     1       0.143  -7.253  -0.341  0.00  0.00    -0.146 OA
BRANCH  13  19
ATOM     16  C   UNL     1      -1.691  -2.476  -0.497  0.00  0.00    +0.033 A 
ATOM     17  C   UNL     1      -0.413  -3.015  -0.422  0.00  0.00    +0.025 A 
ATOM     18  C   UNL     1      -0.249  -4.371  -0.218  0.00  0.00    +0.031 A 
ATOM     19  C   UNL     1      -1.354  -5.191  -0.088  0.00  0.00    +0.113 A 
ATOM     20  C   UNL     1      -2.628  -4.657  -0.163  0.00  0.00    +0.031 A 
ATOM     21  C   UNL     1      -2.799  -3.301  -0.361  0.00  0.00    +0.025 A 
BRANCH  16  25
ATOM     22  C   UNL     1      -3.002   1.044  -0.244  0.00  0.00    +0.109 C 
ATOM     23  C   UNL     1      -2.883  -0.453  -0.112  0.00  0.00    +0.214 C 
ATOM     24  O   UNL     1      -3.706  -1.073   0.528  0.00  0.00    -0.276 OA
ATOM     25  N   UNL     1      -1.861  -1.102  -0.704  0.00  0.00    -0.286 N 
ATOM     26  H   UNL     1      -1.244  -0.618  -1.274  0.00  0.00    +0.155 HD
ENDBRANCH  16  25
ENDBRANCH  13  19
ENDBRANCH   1  13
BRANCH   3  27
ATOM     27  N   UNL     1      -2.103  -8.089   4.355  0.00  0.00    -0.318 N 
ATOM     28  H   UNL     1      -2.952  -8.268   3.922  0.00  0.00    +0.148 HD
BRANCH  27  29
ATOM     29  C   UNL     1      -2.066  -7.339   5.536  0.00  0.00    +0.029 A 
ATOM     30  C   UNL     1      -0.869  -7.187   6.225  0.00  0.00    +0.026 A 
ATOM     31  C   UNL     1      -0.833  -6.447   7.390  0.00  0.00    +0.047 A 
ATOM     32  C   UNL     1      -1.991  -5.855   7.872  0.00  0.00    +0.117 A 
ATOM     33  C   UNL     1      -3.186  -6.006   7.186  0.00  0.00    +0.047 A 
ATOM     34  C   UNL     1      -3.223  -6.742   6.017  0.00  0.00    +0.026 A 
BRANCH  32  35
ATOM     35  O   UNL     1      -1.954  -5.126   9.020  0.00  0.00    -0.507 OA
ATOM     36  H   UNL     1      -1.767  -4.187   8.884  0.00  0.00    +0.292 HD
ENDBRANCH  32  35
ENDBRANCH  27  29
ENDBRANCH   3  27
TORSDOF 6
