REMARK  Name = ZINC00674530
REMARK  7 active torsions:
REMARK  status: ('A' for Active; 'I' for Inactive)
REMARK    1  A    between atoms: C_3  and  N_20
REMARK    2  A    between atoms: C_6  and  C_7
REMARK    3  A    between atoms: N_9  and  N_10
REMARK    4  A    between atoms: C_11  and  C_12
REMARK    5  A    between atoms: C_15  and  O_19
REMARK    6  A    between atoms: C_17  and  O_18
REMARK    7  A    between atoms: C_21  and  C_23
REMARK                            x       y       z     vdW  Elec       q    Type
REMARK                         _______ _______ _______ _____ _____    ______ ____
ROOT
ATOM      1  C   UNL     1      -0.011   1.376  -0.160  0.00  0.00    +0.015 A 
ATOM      2  C   UNL     1       1.172   2.081  -0.172  0.00  0.00    +0.024 A 
ATOM      3  C   UNL     1       2.382   1.415  -0.008  0.00  0.00    +0.033 A 
ATOM      4  C   UNL     1       2.402   0.035   0.169  0.00  0.00    +0.024 A 
ATOM      5  C   UNL     1       1.224  -0.676   0.182  0.00  0.00    +0.015 A 
ATOM      6  C   UNL     1       0.006  -0.010   0.018  0.00  0.00    +0.038 A 
ENDROOT
BRANCH   6   7
ATOM      7  C   UNL     1      -1.259  -0.769   0.032  0.00  0.00    +0.263 C 
ATOM      8  O   UNL     1      -2.318  -0.189  -0.112  0.00  0.00    -0.268 OA
ATOM      9  N   UNL     1      -1.242  -2.106   0.203  0.00  0.00    -0.203 N 
ATOM     10  H   UNL     1      -0.397  -2.569   0.317  0.00  0.00    +0.178 HD
BRANCH   9  11
ATOM     11  N   UNL     1      -2.443  -2.826   0.216  0.00  0.00    -0.187 NA
ATOM     12  C   UNL     1      -2.426  -4.114   0.382  0.00  0.00    +0.142 C 
BRANCH  12  13
ATOM     13  C   UNL     1      -3.689  -4.872   0.396  0.00  0.00    +0.036 A 
ATOM     14  C   UNL     1      -3.674  -6.257   0.579  0.00  0.00    +0.016 A 
ATOM     15  C   UNL     1      -4.858  -6.962   0.592  0.00  0.00    +0.046 A 
ATOM     16  C   UNL     1      -6.068  -6.300   0.423  0.00  0.00    +0.120 A 
ATOM     17  C   UNL     1      -6.094  -4.925   0.240  0.00  0.00    +0.091 A 
ATOM     18  C   UNL     1      -4.912  -4.205   0.231  0.00  0.00    +0.129 A 
BRANCH  18  19
ATOM     19  O   UNL     1      -4.935  -2.859   0.058  0.00  0.00    -0.506 OA
ATOM     20  H   UNL     1      -4.885  -2.580  -0.867  0.00  0.00    +0.292 HD
ENDBRANCH  18  19
BRANCH  16  21
ATOM     21  O   UNL     1      -7.231  -7.002   0.436  0.00  0.00    -0.507 OA
ATOM     22  H   UNL     1      -7.627  -7.090   1.314  0.00  0.00    +0.292 HD
ENDBRANCH  16  21
ENDBRANCH  12  13
ENDBRANCH   9  11
ENDBRANCH   6   7
BRANCH   3  23
ATOM     23  N   UNL     1       3.578   2.132  -0.021  0.00  0.00    -0.285 N 
ATOM     24  C   UNL     1       4.694   1.573  -0.528  0.00  0.00    +0.220 C 
ATOM     25  O   UNL     1       4.639   0.484  -1.059  0.00  0.00    -0.275 OA
ATOM     26  H   UNL     1       3.607   3.034   0.335  0.00  0.00    +0.155 HD
BRANCH  24  27
ATOM     27  C   UNL     1       6.011   2.300  -0.434  0.00  0.00    +0.075 C 
ATOM     28  C   UNL     1       5.906   3.640  -1.163  0.00  0.00    +0.013 C 
ATOM     29  C   UNL     1       7.243   4.378  -1.069  0.00  0.00    +0.001 C 
ATOM     30  C   UNL     1       8.341   3.531  -1.715  0.00  0.00    +0.000 C 
ATOM     31  C   UNL     1       8.445   2.190  -0.986  0.00  0.00    +0.001 C 
ATOM     32  C   UNL     1       7.109   1.452  -1.081  0.00  0.00    +0.013 C 
ENDBRANCH  24  27
ENDBRANCH   3  23
TORSDOF 7
