REMARK  Name = ZINC15205898
REMARK  5 active torsions:
REMARK  status: ('A' for Active; 'I' for Inactive)
REMARK    1  A    between atoms: C_5  and  N_7
REMARK    2  A    between atoms: N_10  and  C_13
REMARK    3  A    between atoms: C_16  and  N_23
REMARK    4  A    between atoms: C_18  and  S_19
REMARK    5  A    between atoms: S_19  and  N_22
REMARK                            x       y       z     vdW  Elec       q    Type
REMARK                         _______ _______ _______ _____ _____    ______ ____
ROOT
ATOM      1  C   UNL     1       0.399   5.385  -1.099  0.00  0.00    +0.057 A 
ATOM      2  C   UNL     1      -0.313   6.065  -0.117  0.00  0.00    +0.027 A 
ATOM      3  C   UNL     1      -0.246   7.442  -0.048  0.00  0.00    +0.034 A 
ATOM      4  C   UNL     1       0.528   8.146  -0.953  0.00  0.00    +0.128 A 
ATOM      5  C   UNL     1       1.237   7.472  -1.931  0.00  0.00    +0.063 A 
ATOM      6  C   UNL     1       1.179   6.094  -2.003  0.00  0.00    +0.128 A 
ENDROOT
BRANCH   1  10
ATOM      7  N   UNL     1      -0.492   1.399  -0.335  0.00  0.00    -0.325 N 
ATOM      8  C   UNL     1      -1.067   2.018  -1.537  0.00  0.00    +0.124 C 
ATOM      9  C   UNL     1      -1.049   3.540  -1.383  0.00  0.00    +0.124 C 
ATOM     10  N   UNL     1       0.333   3.992  -1.172  0.00  0.00    -0.325 N 
ATOM     11  C   UNL     1       0.909   3.374   0.030  0.00  0.00    +0.124 C 
ATOM     12  C   UNL     1       0.890   1.851  -0.124  0.00  0.00    +0.124 C 
BRANCH   7  17
ATOM     13  C   UNL     1       0.078  -2.052  -1.466  0.00  0.00    +0.002 A 
ATOM     14  C   UNL     1      -0.688  -2.757  -0.556  0.00  0.00    +0.003 A 
ATOM     15  C   UNL     1      -1.389  -2.086   0.429  0.00  0.00    +0.040 A 
ATOM     16  C   UNL     1      -1.327  -0.707   0.506  0.00  0.00    +0.144 A 
ATOM     17  C   UNL     1      -0.557   0.004  -0.409  0.00  0.00    +0.065 A 
ATOM     18  C   UNL     1       0.141  -0.674  -1.399  0.00  0.00    +0.026 A 
ATOM     19  F   UNL     1      -2.013  -0.051   1.467  0.00  0.00    -0.204 F 
ENDBRANCH   7  17
ENDBRANCH   1  10
BRANCH   6  20
ATOM     20  S   UNL     1       2.089   5.237  -3.245  0.00  0.00    +0.058 S 
ATOM     21  O   UNL     1       1.183   4.329  -3.857  0.00  0.00    -0.153 OA
ATOM     22  O   UNL     1       2.796   6.223  -3.984  0.00  0.00    -0.153 OA
BRANCH  20  23
ATOM     23  N   UNL     1       3.228   4.318  -2.470  0.00  0.00    -0.203 NA
ATOM     24  H   UNL     1       3.581   3.522  -2.897  0.00  0.00    +0.144 HD
ATOM     25  H   UNL     1       3.544   4.577  -1.590  0.00  0.00    +0.144 HD
ENDBRANCH  20  23
ENDBRANCH   6  20
BRANCH   4  26
ATOM     26  N   UNL     1       0.598   9.622  -0.875  0.00  0.00    +0.056 N 
ATOM     27  O   UNL     1      -0.026  10.216  -0.014  0.00  0.00    -0.126 OA
ATOM     28  O   UNL     1       1.279  10.242  -1.671  0.00  0.00    -0.126 OA
ENDBRANCH   4  26
TORSDOF 5
