REMARK  Name = ZINC13654256
REMARK  8 active torsions:
REMARK  status: ('A' for Active; 'I' for Inactive)
REMARK    1  A    between atoms: C_1  and  C_2
REMARK    2  A    between atoms: C_5  and  C_35
REMARK    3  A    between atoms: N_8  and  C_10
REMARK    4  A    between atoms: C_10  and  C_11
REMARK    5  A    between atoms: C_19  and  C_20
REMARK    6  A    between atoms: N_22  and  C_31
REMARK    7  A    between atoms: C_26  and  O_29
REMARK    8  A    between atoms: O_29  and  C_30
REMARK                            x       y       z     vdW  Elec       q    Type
REMARK                         _______ _______ _______ _____ _____    ______ ____
ROOT
ATOM      1  C   UNL     1       7.465  -2.143  -0.494  0.00  0.00    +0.026 A 
ATOM      2  C   UNL     1       8.780  -1.712  -0.570  0.00  0.00    +0.184 A 
ATOM      3  C   UNL     1       9.085  -0.355  -0.514  0.00  0.00    +0.052 A 
ATOM      4  C   UNL     1       8.088   0.569  -0.381  0.00  0.00    +0.019 A 
ATOM      5  C   UNL     1       6.760   0.151  -0.303  0.00  0.00    +0.068 A 
ATOM      6  C   UNL     1       6.441  -1.216  -0.359  0.00  0.00    +0.144 A 
ATOM      7  O   UNL     1       5.101  -1.355  -0.259  0.00  0.00    -0.451 OA
ATOM      8  C   UNL     1       4.487  -0.153  -0.145  0.00  0.00    +0.176 C 
ATOM      9  C   UNL     1       3.144   0.046  -0.028  0.00  0.00    +0.060 C 
ATOM     10  C   UNL     1       5.478   0.864  -0.161  0.00  0.00    +0.231 C 
ATOM     11  O   UNL     1       5.305   2.068  -0.076  0.00  0.00    -0.283 OA
ATOM     12  O   UNL     1       9.780  -2.622  -0.702  0.00  0.00    -0.288 OA
ENDROOT
BRANCH   9  13
ATOM     13  C   UNL     1       2.600   1.402  -0.072  0.00  0.00    +0.004 A 
ATOM     14  C   UNL     1       3.006   2.429  -0.897  0.00  0.00    +0.094 A 
ATOM     15  N   UNL     1       2.263   3.534  -0.643  0.00  0.00    -0.349 N 
ATOM     16  C   UNL     1       1.341   3.279   0.354  0.00  0.00    +0.050 A 
ATOM     17  C   UNL     1       1.505   1.944   0.756  0.00  0.00    +0.011 A 
ATOM     18  C   UNL     1       0.700   1.411   1.758  0.00  0.00    +0.056 A 
ATOM     19  C   UNL     1      -0.267   2.201   2.351  0.00  0.00    +0.121 A 
ATOM     20  C   UNL     1      -0.426   3.525   1.957  0.00  0.00    +0.047 A 
ATOM     21  C   UNL     1       0.367   4.061   0.966  0.00  0.00    +0.030 A 
ATOM     22  C   UNL     1       2.415   4.818  -1.331  0.00  0.00    +0.149 C 
BRANCH  19  23
ATOM     23  O   UNL     1      -1.062   1.684   3.327  0.00  0.00    -0.495 OA
ATOM     24  C   UNL     1      -2.040   2.555   3.897  0.00  0.00    +0.277 C 
ENDBRANCH  19  23
ENDBRANCH   9  13
BRANCH   1  25
ATOM     25  C   UNL     1       7.148  -3.615  -0.557  0.00  0.00    -0.035 C 
BRANCH  25  31
ATOM     26  C   UNL     1       6.441  -7.364  -3.662  0.00  0.00    +0.005 C 
ATOM     27  C   UNL     1       6.499  -5.841  -3.524  0.00  0.00    -0.031 C 
ATOM     28  C   UNL     1       7.564  -5.282  -4.472  0.00  0.00    +0.003 C 
ATOM     29  C   UNL     1       7.657  -3.765  -4.285  0.00  0.00    -0.031 C 
ATOM     30  C   UNL     1       7.986  -3.456  -2.823  0.00  0.00    -0.075 C 
ATOM     31  N   UNL     1       6.938  -4.011  -1.956  0.00  0.00    +0.383 N 
ATOM     32  C   UNL     1       6.862  -5.471  -2.084  0.00  0.00    -0.075 C 
ATOM     33  C   UNL     1       8.760  -3.206  -5.186  0.00  0.00    +0.005 C 
ATOM     34  H   UNL     1       5.975  -3.594  -2.286  0.00  0.00    -0.081 HD
ENDBRANCH  25  31
ENDBRANCH   1  25
TORSDOF 4
