REMARK  Name = ZINC33746261
REMARK  13 active torsions:
REMARK  status: ('A' for Active; 'I' for Inactive)
REMARK    1  A    between atoms: C_1  and  C_2
REMARK    2  A    between atoms: C_2  and  C_3
REMARK    3  A    between atoms: C_3  and  C_4
REMARK    4  A    between atoms: C_4  and  N_5
REMARK    5  A    between atoms: C_6  and  C_35
REMARK    6  A    between atoms: C_7  and  C_29
REMARK    7  A    between atoms: C_8  and  C_13
REMARK    8  A    between atoms: C_17  and  N_19
REMARK    9  A    between atoms: C_20  and  C_22
REMARK   10  A    between atoms: C_29  and  O_31
REMARK   11  A    between atoms: O_31  and  C_32
REMARK   12  A    between atoms: C_32  and  C_33
REMARK   13  A    between atoms: C_32  and  C_34
REMARK                            x       y       z     vdW  Elec       q    Type
REMARK                         _______ _______ _______ _____ _____    ______ ____
ROOT
ATOM      1  N   UNL     1      -0.960   1.145  -0.440  0.00  0.00    -0.259 N 
ATOM      2  C   UNL     1      -1.404   2.436  -0.462  0.00  0.00    +0.024 C 
ATOM      3  C   UNL     1      -0.542   3.471  -0.372  0.00  0.00    +0.078 C 
ATOM      4  C   UNL     1       0.933   3.151  -0.240  0.00  0.00    +0.144 C 
ATOM      5  N   UNL     1       1.308   1.727  -0.220  0.00  0.00    -0.288 N 
ATOM      6  C   UNL     1       0.330   0.805  -0.320  0.00  0.00    +0.307 C 
ATOM      7  O   UNL     1       0.629  -0.373  -0.305  0.00  0.00    -0.252 OA
ATOM      8  C   UNL     1      -2.880   2.709  -0.595  0.00  0.00    +0.061 C 
ATOM      9  H   UNL     1       2.365   1.438  -0.126  0.00  0.00    +0.151 HD
ENDROOT
BRANCH   4  10
ATOM     10  C   UNL     1       1.433   3.780   1.035  0.00  0.00    -0.021 A 
ATOM     11  C   UNL     1       1.334   3.092   2.230  0.00  0.00    +0.006 A 
ATOM     12  C   UNL     1       1.796   3.664   3.401  0.00  0.00    +0.002 A 
ATOM     13  C   UNL     1       2.348   4.929   3.382  0.00  0.00    +0.023 A 
ATOM     14  C   UNL     1       2.444   5.626   2.185  0.00  0.00    +0.034 A 
ATOM     15  C   UNL     1       1.984   5.046   1.009  0.00  0.00    +0.029 A 
BRANCH  14  16
ATOM     16  N   UNL     1       3.003   6.908   2.162  0.00  0.00    -0.281 N 
ATOM     17  C   UNL     1       2.810   7.745   3.200  0.00  0.00    +0.251 C 
ATOM     18  O   UNL     1       2.220   7.360   4.191  0.00  0.00    -0.270 OA
ATOM     19  H   UNL     1       3.600   7.232   1.297  0.00  0.00    +0.155 HD
BRANCH  17  20
ATOM     20  C   UNL     1       3.316   9.131   3.135  0.00  0.00    +0.072 A 
ATOM     21  C   UNL     1       3.999   9.576   2.000  0.00  0.00    +0.016 A 
ATOM     22  C   UNL     1       4.464  10.872   1.943  0.00  0.00    +0.001 A 
ATOM     23  C   UNL     1       4.264  11.732   3.010  0.00  0.00    +0.003 A 
ATOM     24  C   UNL     1       3.594  11.300   4.139  0.00  0.00    +0.039 A 
ATOM     25  C   UNL     1       3.117  10.003   4.210  0.00  0.00    +0.135 A 
ATOM     26  F   UNL     1       2.462   9.581   5.313  0.00  0.00    -0.205 F 
ENDBRANCH  17  20
ENDBRANCH  14  16
ENDBRANCH   4  10
BRANCH   3  27
ATOM     27  C   UNL     1      -1.000   4.809  -0.400  0.00  0.00    +0.339 C 
ATOM     28  O   UNL     1      -2.178   5.045  -0.595  0.00  0.00    -0.245 OA
BRANCH  27  29
ATOM     29  O   UNL     1      -0.131   5.824  -0.211  0.00  0.00    -0.459 OA
BRANCH  29  30
ATOM     30  C   UNL     1      -0.663   7.150  -0.252  0.00  0.00    +0.171 C 
ATOM     31  C   UNL     1       0.164   8.060   0.658  0.00  0.00    +0.052 C 
ATOM     32  C   UNL     1      -0.607   7.677  -1.687  0.00  0.00    +0.052 C 
ENDBRANCH  29  30
ENDBRANCH  27  29
ENDBRANCH   3  27
BRANCH   1  33
ATOM     33  C   UNL     1      -1.950   0.071  -0.548  0.00  0.00    +0.115 C 
BRANCH  33  34
ATOM     34  C   UNL     1      -2.531  -0.229   0.836  0.00  0.00    +0.019 C 
BRANCH  34  36
ATOM     35  C   UNL     1      -4.146  -1.650   2.107  0.00  0.00    +0.004 C 
ATOM     36  C   UNL     1      -3.565  -1.350   0.723  0.00  0.00    -0.002 C 
ENDBRANCH  34  36
ENDBRANCH  33  34
ENDBRANCH   1  33
TORSDOF 9
