REMARK  Name = ZINC32946280
REMARK  10 active torsions:
REMARK  status: ('A' for Active; 'I' for Inactive)
REMARK    1  A    between atoms: C_1  and  C_2
REMARK    2  A    between atoms: C_4  and  C_17
REMARK    3  A    between atoms: C_5  and  C_16
REMARK    4  A    between atoms: N_6  and  N_7
REMARK    5  A    between atoms: C_8  and  C_10
REMARK    6  A    between atoms: C_17  and  C_19
REMARK    7  A    between atoms: C_19  and  S_20
REMARK    8  A    between atoms: S_20  and  C_21
REMARK    9  A    between atoms: N_30  and  C_31
REMARK   10  A    between atoms: C_31  and  C_32
REMARK                            x       y       z     vdW  Elec       q    Type
REMARK                         _______ _______ _______ _____ _____    ______ ____
ROOT
ATOM      1  C   UNL     1       0.729  10.250   3.752  0.00  0.00    +0.065 C 
ATOM      2  C   UNL     1       1.687   9.152   3.368  0.00  0.00    +0.037 A 
ATOM      3  C   UNL     1       1.357   7.866   3.166  0.00  0.00    +0.036 A 
ATOM      4  C   UNL     1       2.602   7.169   2.816  0.00  0.00    +0.041 A 
ATOM      5  C   UNL     1       3.592   8.134   2.831  0.00  0.00    +0.047 A 
ATOM      6  N   UNL     1       3.027   9.309   3.162  0.00  0.00    -0.267 N 
ATOM      7  C   UNL     1       5.051   7.908   2.529  0.00  0.00    +0.066 C 
ENDROOT
BRANCH   6   8
ATOM      8  N   UNL     1       3.718  10.522   3.280  0.00  0.00    -0.219 N 
ATOM      9  C   UNL     1       4.357  11.040   2.213  0.00  0.00    +0.262 C 
ATOM     10  O   UNL     1       4.403  10.416   1.170  0.00  0.00    -0.268 OA
ATOM     11  H   UNL     1       3.738  11.052   4.244  0.00  0.00    +0.176 HD
BRANCH   9  12
ATOM     12  C   UNL     1       5.001  12.367   2.309  0.00  0.00    +0.038 A 
ATOM     13  C   UNL     1       4.945  13.088   3.503  0.00  0.00    +0.013 A 
ATOM     14  C   UNL     1       5.554  14.323   3.588  0.00  0.00    +0.001 A 
ATOM     15  C   UNL     1       6.209  14.853   2.490  0.00  0.00    +0.000 A 
ATOM     16  C   UNL     1       6.263  14.146   1.302  0.00  0.00    +0.001 A 
ATOM     17  C   UNL     1       5.664  12.907   1.206  0.00  0.00    +0.013 A 
ENDBRANCH   9  12
ENDBRANCH   6   8
BRANCH   4  18
ATOM     18  C   UNL     1       2.761   5.746   2.508  0.00  0.00    +0.175 C 
ATOM     19  O   UNL     1       3.856   5.305   2.228  0.00  0.00    -0.291 OA
BRANCH  18  20
ATOM     20  C   UNL     1       1.565   4.831   2.538  0.00  0.00    +0.157 C 
BRANCH  20  21
ATOM     21  S   UNL     1       2.082   3.148   2.116  0.00  0.00    -0.080 S 
BRANCH  21  22
ATOM     22  C   UNL     1       0.532   2.316   2.225  0.00  0.00    +0.173 A 
ATOM     23  N   UNL     1      -0.550   2.996   2.544  0.00  0.00    -0.216 NA
ATOM     24  C   UNL     1      -1.730   2.394   2.639  0.00  0.00    +0.116 A 
ATOM     25  C   UNL     1      -1.886   1.016   2.401  0.00  0.00    +0.072 A 
ATOM     26  C   UNL     1      -3.244   0.519   2.548  0.00  0.00    +0.023 A 
ATOM     27  C   UNL     1      -4.221   1.373   2.887  0.00  0.00    +0.048 A 
ATOM     28  S   UNL     1      -3.372   2.934   3.037  0.00  0.00    -0.077 S 
ATOM     29  C   UNL     1      -0.695   0.305   2.051  0.00  0.00    +0.263 A 
ATOM     30  O   UNL     1      -0.734  -0.892   1.827  0.00  0.00    -0.267 OA
ATOM     31  N   UNL     1       0.469   0.976   1.972  0.00  0.00    -0.283 N 
BRANCH  31  32
ATOM     32  C   UNL     1       1.692   0.253   1.614  0.00  0.00    +0.154 C 
BRANCH  32  33
ATOM     33  C   UNL     1       1.865   0.271   0.117  0.00  0.00    -0.013 C 
ATOM     34  C   UNL     1       2.976   0.725  -0.409  0.00  0.00    +0.005 C 
ENDBRANCH  32  33
ENDBRANCH  31  32
ENDBRANCH  21  22
ENDBRANCH  20  21
ENDBRANCH  18  20
ENDBRANCH   4  18
TORSDOF 8
