REMARK  Name = ZINC63383695
REMARK  11 active torsions:
REMARK  status: ('A' for Active; 'I' for Inactive)
REMARK    1  A    between atoms: C_1  and  C_2
REMARK    2  A    between atoms: C_2  and  C_3
REMARK    3  A    between atoms: C_2  and  C_4
REMARK    4  A    between atoms: C_4  and  C_6
REMARK    5  A    between atoms: C_4  and  N_14
REMARK    6  A    between atoms: N_8  and  C_9
REMARK    7  A    between atoms: C_9  and  C_10
REMARK    8  A    between atoms: C_10  and  C_11
REMARK    9  A    between atoms: C_11  and  O_12
REMARK   10  A    between atoms: O_12  and  C_13
REMARK   11  A    between atoms: C_15  and  C_17
REMARK                            x       y       z     vdW  Elec       q    Type
REMARK                         _______ _______ _______ _____ _____    ______ ____
ROOT
ATOM      1  C   UNL     1      -3.338  -0.366  -2.706  0.00  0.00    +0.167 C 
ATOM      2  C   UNL     1      -4.676  -0.295  -1.944  0.00  0.00    +0.065 C 
ATOM      3  C   UNL     1      -5.772  -0.240  -2.980  0.00  0.00    -0.034 C 
ATOM      4  C   UNL     1      -6.775   0.618  -3.136  0.00  0.00    -0.001 A 
ATOM      5  C   UNL     1      -7.231   1.749  -2.312  0.00  0.00    +0.010 A 
ATOM      6  C   UNL     1      -8.301   2.442  -2.786  0.00  0.00    +0.001 A 
ATOM      7  C   UNL     1      -8.954   2.126  -3.982  0.00  0.00    +0.002 A 
ATOM      8  C   UNL     1      -8.607   1.098  -4.797  0.00  0.00    +0.026 A 
ATOM      9  C   UNL     1      -7.501   0.291  -4.401  0.00  0.00    +0.043 A 
ATOM     10  N   UNL     1      -6.976  -0.754  -4.969  0.00  0.00    -0.375 N 
ATOM     11  C   UNL     1      -5.892  -1.249  -4.117  0.00  0.00    +0.131 C 
ATOM     12  C   UNL     1      -4.547  -1.239  -4.851  0.00  0.00    +0.134 C 
ATOM     13  N   UNL     1      -3.487  -1.311  -3.821  0.00  0.00    -0.276 N 
ATOM     14  C   UNL     1      -2.709  -2.378  -4.076  0.00  0.00    +0.248 C 
ATOM     15  O   UNL     1      -1.700  -2.667  -3.463  0.00  0.00    -0.270 OA
ATOM     16  C   UNL     1      -3.254  -3.141  -5.201  0.00  0.00    +0.042 A 
ATOM     17  C   UNL     1      -4.399  -2.452  -5.710  0.00  0.00    -0.013 A 
ATOM     18  C   UNL     1      -5.135  -2.916  -6.778  0.00  0.00    +0.006 A 
ATOM     19  C   UNL     1      -4.712  -4.103  -7.369  0.00  0.00    +0.000 A 
ATOM     20  C   UNL     1      -3.605  -4.790  -6.911  0.00  0.00    +0.001 A 
ATOM     21  C   UNL     1      -2.825  -4.336  -5.786  0.00  0.00    +0.013 A 
ATOM     22  H   UNL     1      -7.254  -1.140  -5.814  0.00  0.00    +0.160 HD
ENDROOT
BRANCH   1  24
ATOM     23  N   UNL     1      -1.279   0.004  -1.386  0.00  0.00    -0.302 N 
ATOM     24  C   UNL     1      -2.251  -0.844  -1.778  0.00  0.00    +0.235 C 
ATOM     25  O   UNL     1      -2.251  -1.991  -1.384  0.00  0.00    -0.274 OA
ATOM     26  H   UNL     1      -1.280   0.921  -1.700  0.00  0.00    +0.150 HD
BRANCH  23  27
ATOM     27  C   UNL     1      -0.223  -0.461  -0.484  0.00  0.00    +0.161 C 
BRANCH  27  28
ATOM     28  C   UNL     1       0.343   0.713   0.274  0.00  0.00    +0.234 C 
ATOM     29  O   UNL     1       0.050   1.843  -0.052  0.00  0.00    -0.274 OA
ATOM     30  N   UNL     1       1.175   0.506   1.314  0.00  0.00    -0.314 N 
ATOM     31  H   UNL     1       1.367  -0.398   1.609  0.00  0.00    +0.149 HD
BRANCH  30  32
ATOM     32  C   UNL     1       1.790   1.646   1.998  0.00  0.00    +0.106 C 
BRANCH  32  33
ATOM     33  C   UNL     1       2.682   1.140   3.132  0.00  0.00    +0.047 C 
BRANCH  33  34
ATOM     34  C   UNL     1       3.324   2.330   3.847  0.00  0.00    +0.161 C 
BRANCH  34  35
ATOM     35  O   UNL     1       4.158   1.857   4.907  0.00  0.00    -0.383 OA
ATOM     36  C   UNL     1       4.809   2.895   5.643  0.00  0.00    +0.193 C 
ENDBRANCH  34  35
ENDBRANCH  33  34
ENDBRANCH  32  33
ENDBRANCH  30  32
ENDBRANCH  27  28
BRANCH  27  38
ATOM     37  C   UNL     1       1.553  -0.082  -2.200  0.00  0.00    +0.009 C 
ATOM     38  C   UNL     1       0.889  -1.125  -1.299  0.00  0.00    +0.012 C 
ATOM     39  C   UNL     1       1.932  -1.718  -0.351  0.00  0.00    +0.009 C 
ENDBRANCH  27  38
ENDBRANCH  23  27
ENDBRANCH   1  24
TORSDOF 8
