REMARK  Name = ZINC66635005
REMARK  13 active torsions:
REMARK  status: ('A' for Active; 'I' for Inactive)
REMARK    1  A    between atoms: C_1  and  C_2
REMARK    2  A    between atoms: C_2  and  C_3
REMARK    3  A    between atoms: C_3  and  C_5
REMARK    4  A    between atoms: C_3  and  C_6
REMARK    5  A    between atoms: C_6  and  C_8
REMARK    6  A    between atoms: C_6  and  N_20
REMARK    7  A    between atoms: N_10  and  C_11
REMARK    8  A    between atoms: C_14  and  C_17
REMARK    9  A    between atoms: C_21  and  O_23
REMARK   10  A    between atoms: O_23  and  C_24
REMARK   11  A    between atoms: C_24  and  C_25
REMARK   12  A    between atoms: C_24  and  C_26
REMARK   13  A    between atoms: C_24  and  C_27
REMARK                            x       y       z     vdW  Elec       q    Type
REMARK                         _______ _______ _______ _____ _____    ______ ____
ROOT
ATOM      1  C   UNL     1      -2.395   1.214   1.607  0.00  0.00    +0.234 C 
ATOM      2  O   UNL     1      -3.525   1.647   1.684  0.00  0.00    -0.274 OA
ATOM      3  N   UNL     1      -1.345   2.058   1.650  0.00  0.00    -0.311 N 
ATOM      4  H   UNL     1      -0.446   1.721   1.509  0.00  0.00    +0.149 HD
ENDROOT
BRANCH   3   5
ATOM      5  C   UNL     1      -1.561   3.483   1.909  0.00  0.00    +0.073 C 
ATOM      6  C   UNL     1      -1.893   4.196   0.596  0.00  0.00    +0.023 C 
ATOM      7  C   UNL     1      -2.118   5.685   0.867  0.00  0.00    +0.014 C 
ATOM      8  C   UNL     1      -0.850   6.291   1.471  0.00  0.00    +0.075 C 
ATOM      9  C   UNL     1      -0.519   5.579   2.784  0.00  0.00    +0.014 C 
ATOM     10  C   UNL     1      -0.293   4.090   2.513  0.00  0.00    +0.023 C 
BRANCH   8  11
ATOM     11  C   UNL     1      -1.073   7.758   1.738  0.00  0.00    +0.214 C 
ATOM     12  O   UNL     1      -2.140   8.268   1.471  0.00  0.00    -0.276 OA
ATOM     13  N   UNL     1      -0.085   8.503   2.272  0.00  0.00    -0.329 N 
ATOM     14  H   UNL     1       0.769   8.095   2.485  0.00  0.00    +0.145 HD
ATOM     15  H   UNL     1      -0.228   9.447   2.444  0.00  0.00    +0.145 HD
ENDBRANCH   8  11
ENDBRANCH   3   5
BRANCH   1  16
ATOM     16  C   UNL     1      -2.165  -0.269   1.462  0.00  0.00    +0.165 C 
BRANCH  16  17
ATOM     17  N   UNL     1      -3.351  -0.994   1.924  0.00  0.00    -0.270 N 
ATOM     18  C   UNL     1      -3.236  -2.262   2.367  0.00  0.00    +0.401 C 
ATOM     19  O   UNL     1      -2.148  -2.803   2.384  0.00  0.00    -0.226 OA
ATOM     20  H   UNL     1      -4.219  -0.562   1.910  0.00  0.00    +0.153 HD
BRANCH  18  21
ATOM     21  O   UNL     1      -4.326  -2.928   2.791  0.00  0.00    -0.445 OA
BRANCH  21  22
ATOM     22  C   UNL     1      -4.130  -4.268   3.247  0.00  0.00    +0.107 C 
ATOM     23  C   UNL     1      -3.163  -4.267   4.432  0.00  0.00    +0.055 C 
ATOM     24  C   UNL     1      -5.472  -4.859   3.685  0.00  0.00    +0.055 C 
ATOM     25  C   UNL     1      -3.546  -5.113   2.113  0.00  0.00    +0.055 C 
ENDBRANCH  21  22
ENDBRANCH  18  21
ENDBRANCH  16  17
BRANCH  16  26
ATOM     26  C   UNL     1      -1.901  -0.603  -0.007  0.00  0.00    +0.015 C 
ATOM     27  C   UNL     1      -3.169  -0.344  -0.824  0.00  0.00    +0.010 C 
BRANCH  26  29
ATOM     28  C   UNL     1      -0.163  -2.305   0.564  0.00  0.00    +0.004 C 
ATOM     29  C   UNL     1      -1.506  -2.076  -0.132  0.00  0.00    +0.002 C 
ENDBRANCH  26  29
ENDBRANCH  16  26
ENDBRANCH   1  16
TORSDOF 8
