REMARK  Name = ZINC39675298
REMARK  12 active torsions:
REMARK  status: ('A' for Active; 'I' for Inactive)
REMARK    1  A    between atoms: C_1  and  C_2
REMARK    2  A    between atoms: C_2  and  C_4
REMARK    3  A    between atoms: C_2  and  N_14
REMARK    4  A    between atoms: C_4  and  C_5
REMARK    5  A    between atoms: C_5  and  C_6
REMARK    6  A    between atoms: C_9  and  O_12
REMARK    7  A    between atoms: O_12  and  C_13
REMARK    8  A    between atoms: C_15  and  C_17
REMARK    9  A    between atoms: C_28  and  C_30
REMARK   10  A    between atoms: C_30  and  C_32
REMARK   11  A    between atoms: C_30  and  O_33
REMARK   12  A    between atoms: O_33  and  C_34
REMARK                            x       y       z     vdW  Elec       q    Type
REMARK                         _______ _______ _______ _____ _____    ______ ____
ROOT
ATOM      1  C   UNL     1       0.795  -1.149   3.539  0.00  0.00    +0.100 C 
ATOM      2  C   UNL     1       1.213  -2.627   3.372  0.00  0.00    +0.121 C 
ATOM      3  N   UNL     1       1.025  -3.223   4.716  0.00  0.00    -0.297 N 
ATOM      4  C   UNL     1      -0.225  -2.606   5.221  0.00  0.00    +0.115 C 
ATOM      5  C   UNL     1      -0.149  -1.139   4.753  0.00  0.00    -0.004 C 
ATOM      6  C   UNL     1      -1.533  -0.645   4.342  0.00  0.00    -0.010 C 
ATOM      7  C   UNL     1      -2.437  -0.589   5.577  0.00  0.00    -0.082 C 
ATOM      8  N   UNL     1      -1.850   0.312   6.575  0.00  0.00    +0.379 N 
ATOM      9  C   UNL     1      -0.560  -0.219   7.033  0.00  0.00    -0.082 C 
ATOM     10  C   UNL     1       0.423  -0.260   5.860  0.00  0.00    -0.010 C 
ATOM     11  C   UNL     1       1.813  -4.122   5.339  0.00  0.00    +0.256 C 
ATOM     12  O   UNL     1       2.861  -4.462   4.833  0.00  0.00    -0.272 OA
ATOM     13  H   UNL     1      -1.709   1.223   6.163  0.00  0.00    -0.086 HD
ATOM     14  H   UNL     1      -2.476   0.395   7.362  0.00  0.00    -0.086 HD
ENDROOT
BRANCH   1  16
ATOM     15  N   UNL     1      -0.004   0.653   2.044  0.00  0.00    -0.312 N 
ATOM     16  C   UNL     1       0.072  -0.666   2.308  0.00  0.00    +0.218 C 
ATOM     17  O   UNL     1      -0.442  -1.466   1.554  0.00  0.00    -0.275 OA
ATOM     18  H   UNL     1       0.407   1.292   2.647  0.00  0.00    +0.149 HD
BRANCH  15  20
ATOM     19  C   UNL     1      -2.202   1.246   1.150  0.00  0.00    +0.028 C 
ATOM     20  C   UNL     1      -0.707   1.122   0.848  0.00  0.00    +0.070 C 
BRANCH  20  21
ATOM     21  C   UNL     1      -0.155   2.488   0.435  0.00  0.00    +0.026 C 
BRANCH  21  22
ATOM     22  C   UNL     1       1.308   2.341   0.013  0.00  0.00    +0.037 C 
BRANCH  22  23
ATOM     23  C   UNL     1       1.852   3.686  -0.394  0.00  0.00    -0.047 A 
ATOM     24  C   UNL     1       1.750   4.103  -1.709  0.00  0.00    +0.007 A 
ATOM     25  C   UNL     1       2.247   5.335  -2.084  0.00  0.00    +0.046 A 
ATOM     26  C   UNL     1       2.850   6.156  -1.141  0.00  0.00    +0.120 A 
ATOM     27  C   UNL     1       2.951   5.735   0.177  0.00  0.00    +0.046 A 
ATOM     28  C   UNL     1       2.446   4.504   0.548  0.00  0.00    +0.007 A 
BRANCH  26  29
ATOM     29  O   UNL     1       3.341   7.369  -1.508  0.00  0.00    -0.495 OA
ATOM     30  C   UNL     1       3.948   8.160  -0.485  0.00  0.00    +0.277 C 
ENDBRANCH  26  29
ENDBRANCH  22  23
ENDBRANCH  21  22
ENDBRANCH  20  21
ENDBRANCH  15  20
ENDBRANCH   1  16
BRANCH  11  31
ATOM     31  C   UNL     1       1.392  -4.703   6.664  0.00  0.00    +0.256 C 
ATOM     32  C   UNL     1       0.175  -5.608   6.460  0.00  0.00    +0.062 C 
BRANCH  31  33
ATOM     33  O   UNL     1       2.467  -5.467   7.212  0.00  0.00    -0.480 OA
BRANCH  33  34
ATOM     34  C   UNL     1       2.488  -5.623   8.562  0.00  0.00    +0.122 A 
ATOM     35  C   UNL     1       3.567  -6.245   9.173  0.00  0.00    +0.045 A 
ATOM     36  C   UNL     1       3.586  -6.402  10.546  0.00  0.00    +0.004 A 
ATOM     37  C   UNL     1       2.530  -5.941  11.310  0.00  0.00    +0.000 A 
ATOM     38  C   UNL     1       1.453  -5.321  10.703  0.00  0.00    +0.004 A 
ATOM     39  C   UNL     1       1.433  -5.156   9.332  0.00  0.00    +0.045 A 
ENDBRANCH  33  34
ENDBRANCH  31  33
ENDBRANCH  11  31
TORSDOF 9
