REMARK  Name = ZINC09579098
REMARK  11 active torsions:
REMARK  status: ('A' for Active; 'I' for Inactive)
REMARK    1  A    between atoms: C_1  and  C_2
REMARK    2  A    between atoms: C_2  and  C_3
REMARK    3  A    between atoms: C_2  and  C_4
REMARK    4  A    between atoms: C_2  and  N_5
REMARK    5  A    between atoms: C_6  and  C_8
REMARK    6  A    between atoms: C_8  and  N_64
REMARK    7  A    between atoms: C_14  and  C_16
REMARK    8  A    between atoms: C_16  and  S_17
REMARK    9  A    between atoms: S_17  and  C_18
REMARK   10  A    between atoms: C_21  and  C_26
REMARK   11  A    between atoms: N_22  and  C_23
REMARK                            x       y       z     vdW  Elec       q    Type
REMARK                         _______ _______ _______ _____ _____    ______ ____
ROOT
ATOM      1  C   UNL     1       0.994  13.036   0.747  0.00  0.00    -0.059 C 
ATOM      2  C   UNL     1       1.724  12.191  -0.303  0.00  0.00    +0.089 C 
ATOM      3  N   UNL     1       1.170  10.828  -0.274  0.00  0.00    -0.304 N 
ATOM      4  C   UNL     1      -0.289  10.668  -0.364  0.00  0.00    +0.089 C 
ATOM      5  C   UNL     1      -0.940  11.573   0.694  0.00  0.00    -0.059 C 
ATOM      6  C   UNL     1       1.978   9.755  -0.172  0.00  0.00    +0.226 C 
ATOM      7  O   UNL     1       3.180   9.905  -0.103  0.00  0.00    -0.275 OA
ATOM      8  N   UNL     1      -0.461  12.958   0.491  0.00  0.00    +0.387 N 
ATOM      9  H   UNL     1      -0.643  13.234  -0.481  0.00  0.00    -0.081 HD
ENDROOT
BRANCH   8  10
ATOM     10  C   UNL     1      -1.181  13.878   1.395  0.00  0.00    +0.019 C 
BRANCH  10  12
ATOM     11  N   UNL     1      -3.488  14.738   1.634  0.00  0.00    -0.312 N 
ATOM     12  C   UNL     1      -2.626  13.944   0.970  0.00  0.00    +0.197 C 
ATOM     13  O   UNL     1      -3.012  13.281   0.031  0.00  0.00    -0.278 OA
ATOM     14  H   UNL     1      -3.179  15.268   2.385  0.00  0.00    +0.149 HD
BRANCH  11  16
ATOM     15  C   UNL     1      -5.518  13.409   1.325  0.00  0.00    +0.031 C 
ATOM     16  C   UNL     1      -4.893  14.801   1.221  0.00  0.00    +0.026 C 
ATOM     17  C   UNL     1      -5.649  15.770   2.133  0.00  0.00    +0.031 C 
ATOM     18  C   UNL     1      -4.977  15.292  -0.226  0.00  0.00    +0.031 C 
ENDBRANCH  11  16
ENDBRANCH  10  12
ENDBRANCH   8  10
BRANCH   6  19
ATOM     19  C   UNL     1       1.390   8.368  -0.143  0.00  0.00    +0.173 C 
BRANCH  19  20
ATOM     20  S   UNL     1       2.721   7.150  -0.002  0.00  0.00    -0.077 S 
BRANCH  20  21
ATOM     21  C   UNL     1       1.776   5.663   0.009  0.00  0.00    +0.193 A 
ATOM     22  N   UNL     1       0.468   5.571  -0.069  0.00  0.00    -0.122 NA
ATOM     23  N   UNL     1       0.110   4.337  -0.039  0.00  0.00    -0.128 NA
ATOM     24  C   UNL     1       1.167   3.566   0.070  0.00  0.00    +0.168 A 
ATOM     25  N   UNL     1       2.267   4.392   0.100  0.00  0.00    -0.299 N 
BRANCH  24  26
ATOM     26  C   UNL     1       1.174   2.090   0.140  0.00  0.00    +0.054 A 
ATOM     27  C   UNL     1       2.054   1.354  -0.655  0.00  0.00    +0.014 A 
ATOM     28  C   UNL     1       2.057  -0.023  -0.585  0.00  0.00    +0.001 A 
ATOM     29  C   UNL     1       1.189  -0.678   0.273  0.00  0.00    +0.003 A 
ATOM     30  C   UNL     1       0.314   0.043   1.064  0.00  0.00    +0.039 A 
ATOM     31  C   UNL     1       0.300   1.424   1.004  0.00  0.00    +0.134 A 
ATOM     32  F   UNL     1      -0.555   2.127   1.777  0.00  0.00    -0.205 F 
ENDBRANCH  24  26
BRANCH  25  33
ATOM     33  C   UNL     1       3.672   3.991   0.208  0.00  0.00    +0.091 C 
ATOM     34  C   UNL     1       4.684   5.064   0.614  0.00  0.00    +0.027 C 
ATOM     35  C   UNL     1       4.648   4.552  -0.828  0.00  0.00    +0.027 C 
ENDBRANCH  25  33
ENDBRANCH  20  21
ENDBRANCH  19  20
ENDBRANCH   6  19
TORSDOF 8
