REMARK  Name = ZINC20103904
REMARK  14 active torsions:
REMARK  status: ('A' for Active; 'I' for Inactive)
REMARK    1  A    between atoms: C_1  and  C_2
REMARK    2  A    between atoms: C_3  and  C_35
REMARK    3  A    between atoms: N_9  and  C_12
REMARK    4  A    between atoms: C_12  and  C_13
REMARK    5  A    between atoms: N_15  and  C_16
REMARK    6  A    between atoms: C_16  and  C_17
REMARK    7  A    between atoms: C_17  and  C_18
REMARK    8  A    between atoms: C_18  and  C_19
REMARK    9  A    between atoms: N_21  and  C_22
REMARK   10  A    between atoms: C_22  and  C_23
REMARK   11  A    between atoms: C_23  and  C_24
REMARK   12  A    between atoms: C_24  and  N_25
REMARK   13  A    between atoms: C_27  and  C_34
REMARK   14  A    between atoms: C_30  and  C_33
REMARK                            x       y       z     vdW  Elec       q    Type
REMARK                         _______ _______ _______ _____ _____    ______ ____
ROOT
ATOM      1  C   UNL     1      -2.983   0.081   7.201  0.00  0.00    +0.104 C 
ENDROOT
BRANCH   1   4
ATOM      2  C   UNL     1      -1.363  -0.503   5.477  0.00  0.00    +0.233 C 
ATOM      3  O   UNL     1      -2.287  -0.780   4.743  0.00  0.00    -0.274 OA
ATOM      4  N   UNL     1      -1.604  -0.064   6.728  0.00  0.00    -0.314 N 
ATOM      5  H   UNL     1      -0.864   0.158   7.316  0.00  0.00    +0.149 HD
BRANCH   2   6
ATOM      6  C   UNL     1       0.056  -0.652   4.991  0.00  0.00    +0.221 C 
BRANCH   6  15
ATOM      7  C   UNL     1      -0.018   1.503   0.010  0.00  0.00    +0.045 C 
ATOM      8  C   UNL     1       0.002  -0.004   0.002  0.00  0.00    -0.026 A 
ATOM      9  C   UNL     1       0.006  -0.677  -1.160  0.00  0.00    -0.008 A 
ATOM     10  S   UNL     1       0.032  -2.385  -0.648  0.00  0.00    -0.073 S 
ATOM     11  C   UNL     1       0.037  -2.144   1.110  0.00  0.00    +0.116 A 
ATOM     12  C   UNL     1       0.024  -0.745   1.250  0.00  0.00    +0.075 A 
ATOM     13  C   UNL     1       0.029  -0.257   2.597  0.00  0.00    +0.263 A 
ATOM     14  O   UNL     1       0.014   0.942   2.821  0.00  0.00    -0.267 OA
ATOM     15  N   UNL     1       0.051  -1.142   3.611  0.00  0.00    -0.290 N 
ATOM     16  C   UNL     1       0.068  -2.480   3.380  0.00  0.00    +0.203 A 
ATOM     17  N   UNL     1       0.053  -2.956   2.163  0.00  0.00    -0.230 NA
ATOM     18  C   UNL     1      -0.009  -0.122  -2.561  0.00  0.00    +0.052 C 
ENDBRANCH   6  15
ENDBRANCH   2   6
ENDBRANCH   1   4
BRANCH   1  19
ATOM     19  C   UNL     1      -2.977   0.592   8.643  0.00  0.00    +0.028 C 
BRANCH  19  20
ATOM     20  C   UNL     1      -4.418   0.743   9.136  0.00  0.00    +0.097 C 
BRANCH  20  21
ATOM     21  C   UNL     1      -4.412   1.247  10.556  0.00  0.00    +0.213 C 
ATOM     22  O   UNL     1      -3.360   1.464  11.118  0.00  0.00    -0.276 OA
ATOM     23  N   UNL     1      -5.577   1.456  11.202  0.00  0.00    -0.315 N 
ATOM     24  H   UNL     1      -6.418   1.282  10.752  0.00  0.00    +0.149 HD
BRANCH  23  25
ATOM     25  C   UNL     1      -5.571   1.946  12.582  0.00  0.00    +0.102 C 
BRANCH  25  26
ATOM     26  C   UNL     1      -7.011   2.096  13.076  0.00  0.00    +0.000 C 
BRANCH  26  27
ATOM     27  C   UNL     1      -7.006   2.608  14.518  0.00  0.00    -0.077 C 
BRANCH  27  28
ATOM     28  N   UNL     1      -8.389   2.753  14.992  0.00  0.00    +0.380 N 
ATOM     29  C   UNL     1      -9.068   3.790  14.205  0.00  0.00    -0.076 C 
ATOM     30  C   UNL     1     -10.532   3.888  14.640  0.00  0.00    -0.031 C 
ATOM     31  C   UNL     1     -10.594   4.250  16.127  0.00  0.00    +0.003 C 
ATOM     32  C   UNL     1      -9.819   3.201  16.930  0.00  0.00    -0.031 C 
ATOM     33  C   UNL     1      -8.381   3.128  16.410  0.00  0.00    -0.076 C 
ATOM     34  C   UNL     1      -9.809   3.595  18.409  0.00  0.00    +0.005 C 
ATOM     35  C   UNL     1     -11.237   4.970  13.820  0.00  0.00    +0.005 C 
ATOM     36  H   UNL     1      -8.875   1.876  14.879  0.00  0.00    -0.082 HD
ENDBRANCH  27  28
ENDBRANCH  26  27
ENDBRANCH  25  26
ENDBRANCH  23  25
ENDBRANCH  20  21
ENDBRANCH  19  20
ENDBRANCH   1  19
TORSDOF 10
