REMARK  Name = ZINC04805119
REMARK  9 active torsions:
REMARK  status: ('A' for Active; 'I' for Inactive)
REMARK    1  A    between atoms: C_1  and  C_2
REMARK    2  A    between atoms: C_8  and  C_9
REMARK    3  A    between atoms: C_8  and  N_62
REMARK    4  A    between atoms: C_9  and  C_10
REMARK    5  A    between atoms: C_10  and  N_11
REMARK    6  A    between atoms: C_17  and  C_24
REMARK    7  A    between atoms: N_22  and  C_23
REMARK    8  A    between atoms: C_27  and  O_30
REMARK    9  A    between atoms: O_30  and  C_31
REMARK                            x       y       z     vdW  Elec       q    Type
REMARK                         _______ _______ _______ _____ _____    ______ ____
ROOT
ATOM      1  N   UNL     1      -0.067   1.120  -2.437  0.00  0.00    -0.292 N 
ATOM      2  C   UNL     1      -0.329  -0.137  -3.153  0.00  0.00    +0.159 C 
ATOM      3  C   UNL     1       0.643  -0.134  -4.312  0.00  0.00    +0.042 C 
ATOM      4  C   UNL     1       1.346   1.012  -4.214  0.00  0.00    +0.058 C 
ATOM      5  C   UNL     1       0.916   1.758  -3.098  0.00  0.00    +0.247 C 
ATOM      6  O   UNL     1       1.375   2.838  -2.773  0.00  0.00    -0.270 OA
ATOM      7  C   UNL     1       2.407   1.280  -5.263  0.00  0.00    +0.142 C 
ATOM      8  N   UNL     1       2.583   0.258  -6.309  0.00  0.00    -0.288 N 
ATOM      9  C   UNL     1       1.801  -0.839  -6.273  0.00  0.00    +0.307 C 
ATOM     10  O   UNL     1       1.939  -1.688  -7.132  0.00  0.00    -0.252 OA
ATOM     11  N   UNL     1       0.877  -1.024  -5.321  0.00  0.00    -0.260 N 
ATOM     12  C   UNL     1       0.074  -2.249  -5.364  0.00  0.00    +0.139 C 
ATOM     13  H   UNL     1       3.246   0.372  -7.007  0.00  0.00    +0.151 HD
ENDROOT
BRANCH   7  14
ATOM     14  C   UNL     1       2.074   2.585  -5.939  0.00  0.00    -0.022 A 
ATOM     15  C   UNL     1       1.225   2.600  -7.030  0.00  0.00    +0.009 A 
ATOM     16  C   UNL     1       0.914   3.795  -7.648  0.00  0.00    +0.046 A 
ATOM     17  C   UNL     1       1.463   4.980  -7.180  0.00  0.00    +0.120 A 
ATOM     18  C   UNL     1       2.318   4.962  -6.088  0.00  0.00    +0.046 A 
ATOM     19  C   UNL     1       2.622   3.764  -5.470  0.00  0.00    +0.009 A 
BRANCH  17  20
ATOM     20  O   UNL     1       1.163   6.157  -7.790  0.00  0.00    -0.495 OA
ATOM     21  C   UNL     1       0.275   6.100  -8.909  0.00  0.00    +0.277 C 
ENDBRANCH  17  20
ENDBRANCH   7  14
BRANCH   1  22
ATOM     22  C   UNL     1      -0.753   1.593  -1.232  0.00  0.00    +0.106 C 
BRANCH  22  23
ATOM     23  C   UNL     1      -0.013   1.086   0.008  0.00  0.00    +0.000 C 
BRANCH  23  24
ATOM     24  C   UNL     1      -0.729   1.579   1.267  0.00  0.00    -0.077 C 
BRANCH  24  31
ATOM     25  C   UNL     1      -1.346  -0.959   2.312  0.00  0.00    -0.013 C 
ATOM     26  C   UNL     1       0.059  -0.374   2.461  0.00  0.00    -0.072 C 
ATOM     27  C   UNL     1       0.674  -0.850   3.779  0.00  0.00    -0.016 C 
ATOM     28  C   UNL     1       2.072  -0.246   3.932  0.00  0.00    -0.003 C 
ATOM     29  C   UNL     1       1.969   1.281   3.877  0.00  0.00    -0.019 C 
ATOM     30  C   UNL     1       1.317   1.695   2.556  0.00  0.00    -0.078 C 
ATOM     31  N   UNL     1      -0.035   1.102   2.480  0.00  0.00    +0.381 N 
ATOM     32  H   UNL     1      -0.572   1.390   3.307  0.00  0.00    -0.081 HD
ENDBRANCH  24  31
ENDBRANCH  23  24
ENDBRANCH  22  23
ENDBRANCH   1  22
TORSDOF 6
