REMARK  Name = ZINC37295515
REMARK  5 active torsions:
REMARK  status: ('A' for Active; 'I' for Inactive)
REMARK    1  A    between atoms: C_1  and  C_2
REMARK    2  A    between atoms: C_5  and  N_9
REMARK    3  A    between atoms: C_6  and  C_8
REMARK    4  A    between atoms: C_10  and  N_21
REMARK    5  A    between atoms: C_12  and  C_14
REMARK                            x       y       z     vdW  Elec       q    Type
REMARK                         _______ _______ _______ _____ _____    ______ ____
ROOT
ATOM      1  N   UNL     1       0.705  -4.116   0.190  0.00  0.00    -0.218 N 
ATOM      2  C   UNL     1       0.643  -4.995  -0.849  0.00  0.00    +0.120 A 
ATOM      3  C   UNL     1       0.641  -6.250  -0.328  0.00  0.00    +0.073 A 
ATOM      4  C   UNL     1       0.703  -6.135   1.074  0.00  0.00    +0.098 A 
ATOM      5  N   UNL     1       0.747  -4.855   1.380  0.00  0.00    -0.165 NA
ENDROOT
BRANCH   1  10
ATOM      6  C   UNL     1       0.798   1.542  -0.229  0.00  0.00    +0.044 C 
ATOM      7  C   UNL     1       0.773   0.039  -0.118  0.00  0.00    -0.050 A 
ATOM      8  C   UNL     1       1.613  -0.725  -0.908  0.00  0.00    +0.005 A 
ATOM      9  C   UNL     1       1.593  -2.102  -0.808  0.00  0.00    +0.028 A 
ATOM     10  C   UNL     1       0.728  -2.720   0.087  0.00  0.00    +0.070 A 
ATOM     11  C   UNL     1      -0.114  -1.949   0.878  0.00  0.00    -0.025 A 
ATOM     12  C   UNL     1      -0.085  -0.572   0.778  0.00  0.00    +0.008 A 
ATOM     13  C   UNL     1      -1.053  -2.615   1.850  0.00  0.00    +0.046 C 
ENDBRANCH   1  10
BRANCH   4  14
ATOM     14  C   UNL     1       0.722  -7.261   2.040  0.00  0.00    +0.037 A 
ATOM     15  C   UNL     1       0.683  -8.576   1.582  0.00  0.00    +0.013 A 
ATOM     16  C   UNL     1       0.701  -9.620   2.485  0.00  0.00    +0.001 A 
ATOM     17  C   UNL     1       0.758  -9.363   3.843  0.00  0.00    +0.003 A 
ATOM     18  C   UNL     1       0.797  -8.061   4.306  0.00  0.00    +0.039 A 
ATOM     19  C   UNL     1       0.786  -7.007   3.411  0.00  0.00    +0.133 A 
ATOM     20  F   UNL     1       0.830  -5.734   3.863  0.00  0.00    -0.205 F 
ENDBRANCH   4  14
BRANCH   2  21
ATOM     21  N   UNL     1       0.592  -4.667  -2.200  0.00  0.00    -0.343 N 
ATOM     22  H   UNL     1       0.507  -3.739  -2.471  0.00  0.00    +0.144 HD
ATOM     23  H   UNL     1       0.642  -5.365  -2.871  0.00  0.00    +0.144 HD
ENDBRANCH   2  21
TORSDOF 3
