REMARK  Name = ZINC02876493
REMARK  6 active torsions:
REMARK  status: ('A' for Active; 'I' for Inactive)
REMARK    1  A    between atoms: C_1  and  C_2
REMARK    2  A    between atoms: C_4  and  N_13
REMARK    3  A    between atoms: N_5  and  C_7
REMARK    4  A    between atoms: C_14  and  C_16
REMARK    5  A    between atoms: C_22  and  C_31
REMARK    6  A    between atoms: C_25  and  C_27
REMARK                            x       y       z     vdW  Elec       q    Type
REMARK                         _______ _______ _______ _____ _____    ______ ____
ROOT
ATOM      1  C   UNL     1       0.043  -4.278  -3.754  0.00  0.00    +0.096 A 
ATOM      2  C   UNL     1       0.057  -5.632  -3.334  0.00  0.00    +0.149 A 
ATOM      3  N   UNL     1       0.063  -6.390  -4.398  0.00  0.00    -0.177 NA
ATOM      4  N   UNL     1       0.053  -5.584  -5.535  0.00  0.00    -0.238 N 
ATOM      5  C   UNL     1       0.036  -4.290  -5.136  0.00  0.00    +0.130 A 
ATOM      6  N   UNL     1       0.022  -3.229  -6.025  0.00  0.00    -0.322 N 
ATOM      7  C   UNL     1       0.310  -3.557  -7.435  0.00  0.00    +0.104 C 
ATOM      8  C   UNL     1      -0.452  -4.835  -7.802  0.00  0.00    +0.063 C 
ATOM      9  C   UNL     1       0.053  -6.001  -6.941  0.00  0.00    +0.215 C 
ATOM     10  H   UNL     1      -0.167  -2.322  -5.738  0.00  0.00    +0.148 HD
ENDROOT
BRANCH   7  11
ATOM     11  C   UNL     1       1.790  -3.776  -7.613  0.00  0.00    -0.027 A 
ATOM     12  C   UNL     1       2.507  -4.461  -6.650  0.00  0.00    +0.005 A 
ATOM     13  C   UNL     1       3.865  -4.662  -6.813  0.00  0.00    +0.000 A 
ATOM     14  C   UNL     1       4.506  -4.178  -7.938  0.00  0.00    +0.000 A 
ATOM     15  C   UNL     1       3.788  -3.494  -8.901  0.00  0.00    +0.000 A 
ATOM     16  C   UNL     1       2.429  -3.296  -8.741  0.00  0.00    +0.005 A 
ENDBRANCH   7  11
BRANCH   1  18
ATOM     17  N   UNL     1       0.039  -3.238  -1.548  0.00  0.00    -0.266 N 
ATOM     18  C   UNL     1       0.031  -3.093  -2.888  0.00  0.00    +0.254 C 
ATOM     19  O   UNL     1       0.014  -1.980  -3.380  0.00  0.00    -0.270 OA
ATOM     20  H   UNL     1       0.053  -4.125  -1.156  0.00  0.00    +0.157 HD
BRANCH  17  24
ATOM     21  C   UNL     1      -0.018   1.503   0.010  0.00  0.00    +0.067 C 
ATOM     22  C   UNL     1       0.002  -0.004   0.002  0.00  0.00    +0.062 A 
ATOM     23  C   UNL     1       0.008  -0.815  -1.137  0.00  0.00    +0.068 A 
ATOM     24  C   UNL     1       0.028  -2.112  -0.726  0.00  0.00    +0.129 A 
ATOM     25  N   UNL     1       0.034  -2.109   0.635  0.00  0.00    -0.218 N 
ATOM     26  N   UNL     1       0.023  -0.774   1.060  0.00  0.00    -0.170 NA
BRANCH  25  27
ATOM     27  C   UNL     1       0.054  -3.240   1.464  0.00  0.00    +0.067 A 
ATOM     28  C   UNL     1      -0.616  -4.394   1.081  0.00  0.00    +0.028 A 
ATOM     29  C   UNL     1      -0.595  -5.506   1.900  0.00  0.00    +0.002 A 
ATOM     30  C   UNL     1       0.093  -5.471   3.099  0.00  0.00    +0.000 A 
ATOM     31  C   UNL     1       0.762  -4.323   3.482  0.00  0.00    +0.002 A 
ATOM     32  C   UNL     1       0.749  -3.209   2.666  0.00  0.00    +0.028 A 
ENDBRANCH  25  27
ENDBRANCH  17  24
ENDBRANCH   1  18
BRANCH   9  33
ATOM     33  C   UNL     1      -0.882  -7.199  -7.119  0.00  0.00    +0.412 C 
ATOM     34  F   UNL     1      -2.180  -6.839  -6.741  0.00  0.00    -0.168 F 
ATOM     35  F   UNL     1      -0.881  -7.596  -8.461  0.00  0.00    -0.168 F 
ATOM     36  F   UNL     1      -0.440  -8.259  -6.320  0.00  0.00    -0.168 F 
ENDBRANCH   9  33
TORSDOF 5
