REMARK  Name = ZINC02738703
REMARK  10 active torsions:
REMARK  status: ('A' for Active; 'I' for Inactive)
REMARK    1  A    between atoms: C_1  and  C_2
REMARK    2  A    between atoms: C_2  and  C_4
REMARK    3  A    between atoms: C_2  and  S_16
REMARK    4  A    between atoms: N_6  and  N_7
REMARK    5  A    between atoms: C_8  and  C_9
REMARK    6  A    between atoms: S_16  and  C_17
REMARK    7  A    between atoms: C_20  and  C_28
REMARK    8  A    between atoms: N_21  and  C_22
REMARK    9  A    between atoms: C_28  and  N_29
REMARK   10  A    between atoms: N_29  and  C_30
REMARK                            x       y       z     vdW  Elec       q    Type
REMARK                         _______ _______ _______ _____ _____    ______ ____
ROOT
ATOM      1  C   UNL     1       6.203  10.381  -0.627  0.00  0.00    +0.197 A 
ATOM      2  N   UNL     1       7.294   9.719  -0.319  0.00  0.00    -0.122 NA
ATOM      3  N   UNL     1       8.323  10.473  -0.473  0.00  0.00    -0.132 NA
ATOM      4  C   UNL     1       7.955  11.654  -0.885  0.00  0.00    +0.156 A 
ATOM      5  N   UNL     1       6.591  11.637  -1.004  0.00  0.00    -0.273 N 
ENDROOT
BRANCH   5   6
ATOM      6  C   UNL     1       5.763  12.689  -1.423  0.00  0.00    +0.050 A 
ATOM      7  C   UNL     1       5.856  13.173  -2.720  0.00  0.00    +0.026 A 
ATOM      8  C   UNL     1       5.035  14.206  -3.131  0.00  0.00    +0.002 A 
ATOM      9  C   UNL     1       4.131  14.765  -2.248  0.00  0.00    +0.000 A 
ATOM     10  C   UNL     1       4.041  14.290  -0.952  0.00  0.00    +0.002 A 
ATOM     11  C   UNL     1       4.854  13.253  -0.538  0.00  0.00    +0.026 A 
ENDBRANCH   5   6
BRANCH   1  12
ATOM     12  S   UNL     1       4.553   9.765  -0.571  0.00  0.00    -0.073 S 
BRANCH  12  14
ATOM     13  C   UNL     1       5.445   8.117   1.416  0.00  0.00    +0.029 C 
ATOM     14  C   UNL     1       4.866   8.077   0.000  0.00  0.00    +0.139 C 
BRANCH  14  15
ATOM     15  C   UNL     1       3.574   7.301   0.008  0.00  0.00    +0.245 C 
ATOM     16  O   UNL     1       2.513   7.890   0.021  0.00  0.00    -0.273 OA
ATOM     17  N   UNL     1       3.597   5.954   0.001  0.00  0.00    -0.206 N 
ATOM     18  H   UNL     1       4.445   5.483  -0.010  0.00  0.00    +0.177 HD
BRANCH  17  19
ATOM     19  N   UNL     1       2.396   5.232   0.008  0.00  0.00    -0.188 NA
ATOM     20  C   UNL     1       2.418   3.935   0.001  0.00  0.00    +0.141 C 
BRANCH  20  21
ATOM     21  C   UNL     1       1.154   3.176   0.008  0.00  0.00    +0.030 A 
ATOM     22  C   UNL     1       1.173   1.779   0.000  0.00  0.00    +0.012 A 
ATOM     23  C   UNL     1      -0.013   1.076   0.008  0.00  0.00    +0.001 A 
ATOM     24  C   UNL     1      -1.222   1.749   0.017  0.00  0.00    +0.003 A 
ATOM     25  C   UNL     1      -1.251   3.132   0.031  0.00  0.00    +0.039 A 
ATOM     26  C   UNL     1      -0.071   3.851   0.023  0.00  0.00    +0.132 A 
ATOM     27  F   UNL     1      -0.101   5.202   0.030  0.00  0.00    -0.205 F 
ENDBRANCH  20  21
ENDBRANCH  17  19
ENDBRANCH  14  15
ENDBRANCH  12  14
ENDBRANCH   1  12
BRANCH   4  28
ATOM     28  C   UNL     1       8.863  12.819  -1.183  0.00  0.00    +0.178 C 
BRANCH  28  29
ATOM     29  N   UNL     1       9.271  12.774  -2.589  0.00  0.00    -0.337 N 
ATOM     30  H   UNL     1       8.951  12.061  -3.164  0.00  0.00    +0.147 HD
BRANCH  29  31
ATOM     31  C   UNL     1      10.120  13.758  -3.102  0.00  0.00    +0.028 A 
ATOM     32  C   UNL     1      10.573  14.783  -2.281  0.00  0.00    +0.024 A 
ATOM     33  C   UNL     1      11.418  15.751  -2.790  0.00  0.00    +0.022 A 
ATOM     34  C   UNL     1      11.801  15.707  -4.119  0.00  0.00    +0.041 A 
ATOM     35  C   UNL     1      11.346  14.691  -4.940  0.00  0.00    +0.022 A 
ATOM     36  C   UNL     1      10.507  13.717  -4.436  0.00  0.00    +0.024 A 
ATOM     37 CL   UNL     1      12.856  16.930  -4.756  0.00  0.00    -0.084 Cl
ENDBRANCH  29  31
ENDBRANCH  28  29
ENDBRANCH   4  28
TORSDOF 9
