REMARK  Name = ZINC61857237
REMARK  6 active torsions:
REMARK  status: ('A' for Active; 'I' for Inactive)
REMARK    1  A    between atoms: C_1  and  C_2
REMARK    2  A    between atoms: C_3  and  C_9
REMARK    3  A    between atoms: C_7  and  N_8
REMARK    4  A    between atoms: N_17  and  C_18
REMARK    5  A    between atoms: C_18  and  C_19
REMARK    6  A    between atoms: C_18  and  C_20
REMARK                            x       y       z     vdW  Elec       q    Type
REMARK                         _______ _______ _______ _____ _____    ______ ____
ROOT
ATOM      1  C   UNL     1      -0.242  -0.085  -2.549  0.00  0.00    +0.142 A 
ATOM      2  N   UNL     1      -0.134   1.206  -2.744  0.00  0.00    -0.228 NA
ATOM      3  C   UNL     1      -0.170   1.470  -4.073  0.00  0.00    +0.090 A 
ATOM      4  C   UNL     1      -0.098   2.651  -4.820  0.00  0.00    +0.033 A 
ATOM      5  C   UNL     1      -0.165   2.600  -6.183  0.00  0.00    +0.040 A 
ATOM      6  C   UNL     1      -0.306   1.384  -6.841  0.00  0.00    +0.125 A 
ATOM      7  C   UNL     1      -0.380   0.206  -6.124  0.00  0.00    +0.066 A 
ATOM      8  C   UNL     1      -0.313   0.239  -4.738  0.00  0.00    +0.072 A 
ATOM      9  N   UNL     1      -0.351  -0.728  -3.753  0.00  0.00    -0.321 N 
ATOM     10  F   UNL     1      -0.372   1.354  -8.190  0.00  0.00    -0.205 F 
ENDROOT
BRANCH   1  13
ATOM     11  C   UNL     1      -1.970   0.905  -0.451  0.00  0.00    +0.046 C 
ATOM     12  C   UNL     1      -1.071  -0.280  -0.209  0.00  0.00    -0.019 A 
ATOM     13  C   UNL     1      -0.241  -0.749  -1.227  0.00  0.00    +0.022 A 
ATOM     14  C   UNL     1       0.589  -1.846  -0.996  0.00  0.00    +0.012 A 
ATOM     15  C   UNL     1       0.588  -2.465   0.239  0.00  0.00    +0.002 A 
ATOM     16  C   UNL     1      -0.234  -2.001   1.248  0.00  0.00    +0.023 A 
ATOM     17  C   UNL     1      -1.061  -0.904   1.029  0.00  0.00    +0.028 A 
BRANCH  17  18
ATOM     18  N   UNL     1      -1.885  -0.435   2.054  0.00  0.00    -0.358 N 
ATOM     19  H   UNL     1      -2.465   0.328   1.900  0.00  0.00    +0.142 HD
ATOM     20  H   UNL     1      -1.879  -0.872   2.921  0.00  0.00    +0.142 HD
ENDBRANCH  17  18
ENDBRANCH   1  13
BRANCH   9  21
ATOM     21  C   UNL     1      -0.484  -2.173  -3.958  0.00  0.00    +0.083 C 
ATOM     22  C   UNL     1      -1.784  -2.463  -4.711  0.00  0.00    +0.030 C 
ATOM     23  C   UNL     1       0.704  -2.684  -4.776  0.00  0.00    +0.030 C 
ENDBRANCH   9  21
TORSDOF 3
