REMARK  Name = ZINC62578538
REMARK  6 active torsions:
REMARK  status: ('A' for Active; 'I' for Inactive)
REMARK    1  A    between atoms: C_1  and  C_2
REMARK    2  A    between atoms: C_6  and  C_14
REMARK    3  A    between atoms: C_14  and  C_15
REMARK    4  A    between atoms: C_15  and  N_16
REMARK    5  A    between atoms: C_17  and  C_19
REMARK    6  A    between atoms: C_19  and  C_20
REMARK                            x       y       z     vdW  Elec       q    Type
REMARK                         _______ _______ _______ _____ _____    ______ ____
ROOT
ATOM      1  C   UNL     1      -3.888  -5.387  -1.454  0.00  0.00    +0.109 C 
ENDROOT
BRANCH   1   2
ATOM      2  N   UNL     1      -5.113  -6.190  -1.453  0.00  0.00    -0.315 N 
ATOM      3  C   UNL     1      -5.682  -6.553  -2.620  0.00  0.00    +0.217 C 
ATOM      4  O   UNL     1      -5.180  -6.214  -3.671  0.00  0.00    -0.275 OA
ATOM      5  H   UNL     1      -5.515  -6.462  -0.613  0.00  0.00    +0.149 HD
BRANCH   3   6
ATOM      6  C   UNL     1      -6.942  -7.379  -2.619  0.00  0.00    +0.133 C 
BRANCH   6   7
ATOM      7  C   UNL     1      -7.369  -7.646  -4.039  0.00  0.00    -0.014 A 
ATOM      8  C   UNL     1      -8.254  -6.934  -4.754  0.00  0.00    +0.087 A 
ATOM      9  N   UNL     1      -8.387  -7.475  -6.004  0.00  0.00    -0.360 N 
ATOM     10  H   UNL     1      -8.971  -7.133  -6.700  0.00  0.00    +0.165 HD
ATOM     11  C   UNL     1      -7.570  -8.576  -6.127  0.00  0.00    +0.047 A 
ATOM     12  C   UNL     1      -6.892  -8.728  -4.904  0.00  0.00    +0.003 A 
ATOM     13  C   UNL     1      -5.980  -9.772  -4.738  0.00  0.00    +0.010 A 
ATOM     14  C   UNL     1      -5.749 -10.641  -5.768  0.00  0.00    +0.001 A 
ATOM     15  C   UNL     1      -6.412 -10.493  -6.977  0.00  0.00    +0.002 A 
ATOM     16  C   UNL     1      -7.323  -9.475  -7.160  0.00  0.00    +0.026 A 
ENDBRANCH   6   7
ENDBRANCH   3   6
ENDBRANCH   1   2
BRANCH   1  17
ATOM     17  C   UNL     1      -3.455  -5.116  -0.012  0.00  0.00    +0.054 C 
BRANCH  17  23
ATOM     18  C   UNL     1      -0.018   1.503   0.010  0.00  0.00    +0.049 C 
ATOM     19  C   UNL     1       0.002  -0.004   0.002  0.00  0.00    +0.014 A 
ATOM     20  C   UNL     1      -1.164  -0.696   0.004  0.00  0.00    +0.018 A 
ATOM     21  C   UNL     1      -1.110  -2.159  -0.005  0.00  0.00    -0.001 A 
ATOM     22  C   UNL     1      -2.280  -2.926  -0.004  0.00  0.00    +0.013 A 
ATOM     23  C   UNL     1      -2.195  -4.289  -0.013  0.00  0.00    -0.045 A 
ATOM     24  C   UNL     1      -0.958  -4.920  -0.022  0.00  0.00    +0.006 A 
ATOM     25  C   UNL     1       0.207  -4.184  -0.022  0.00  0.00    +0.026 A 
ATOM     26  C   UNL     1       0.145  -2.795  -0.015  0.00  0.00    +0.049 A 
ATOM     27  N   UNL     1       1.295  -2.034  -0.016  0.00  0.00    -0.322 N 
ATOM     28  H   UNL     1       2.159  -2.474  -0.023  0.00  0.00    +0.169 HD
ATOM     29  C   UNL     1       1.235  -0.690  -0.013  0.00  0.00    +0.252 A 
ATOM     30  O   UNL     1       2.272  -0.050  -0.020  0.00  0.00    -0.268 OA
ENDBRANCH  17  23
ENDBRANCH   1  17
TORSDOF 5
