REMARK  Name = ZINC39545636
REMARK  9 active torsions:
REMARK  status: ('A' for Active; 'I' for Inactive)
REMARK    1  A    between atoms: C_1  and  C_2
REMARK    2  A    between atoms: C_2  and  O_3
REMARK    3  A    between atoms: O_3  and  N_4
REMARK    4  A    between atoms: N_4  and  C_5
REMARK    5  A    between atoms: C_10  and  O_11
REMARK    6  A    between atoms: C_12  and  C_14
REMARK    7  A    between atoms: C_17  and  S_28
REMARK    8  A    between atoms: S_28  and  O_31
REMARK    9  A    between atoms: O_31  and  C_32
REMARK                            x       y       z     vdW  Elec       q    Type
REMARK                         _______ _______ _______ _____ _____    ______ ____
ROOT
ATOM      1  C   UNL     1      -1.149  -1.382   2.223  0.00  0.00    +0.152 C 
ATOM      2  C   UNL     1      -1.918  -0.678   1.089  0.00  0.00    +0.092 C 
ATOM      3  C   UNL     1      -3.360  -1.067   1.325  0.00  0.00    +0.142 C 
ATOM      4  C   UNL     1      -3.437  -1.832   2.383  0.00  0.00    +0.100 C 
ATOM      5  N   UNL     1      -4.608  -2.421   2.894  0.00  0.00    -0.302 N 
ATOM      6  C   UNL     1      -4.438  -3.712   3.425  0.00  0.00    +0.037 A 
ATOM      7  C   UNL     1      -5.543  -4.433   3.851  0.00  0.00    +0.023 A 
ATOM      8  C   UNL     1      -5.375  -5.698   4.381  0.00  0.00    +0.002 A 
ATOM      9  C   UNL     1      -4.106  -6.238   4.484  0.00  0.00    +0.000 A 
ATOM     10  C   UNL     1      -3.006  -5.521   4.055  0.00  0.00    +0.007 A 
ATOM     11  C   UNL     1      -3.164  -4.254   3.517  0.00  0.00    -0.010 A 
ATOM     12  C   UNL     1      -1.949  -3.507   3.035  0.00  0.00    +0.124 C 
ATOM     13  N   UNL     1      -2.198  -2.061   3.002  0.00  0.00    -0.368 NA
ATOM     14  H   UNL     1      -5.467  -1.970   2.882  0.00  0.00    +0.153 HD
ATOM     15  H   UNL     1      -2.213  -1.697   3.943  0.00  0.00    +0.129 HD
ENDROOT
BRANCH   1  17
ATOM     16  N   UNL     1       1.091  -2.426   2.116  0.00  0.00    -0.143 N 
ATOM     17  C   UNL     1      -0.177  -2.385   1.659  0.00  0.00    +0.262 C 
ATOM     18  O   UNL     1      -0.534  -3.157   0.794  0.00  0.00    -0.271 OA
BRANCH  16  19
ATOM     19  C   UNL     1       2.020  -3.293   1.526  0.00  0.00    +0.106 A 
ATOM     20  C   UNL     1       2.720  -2.899   0.395  0.00  0.00    +0.029 A 
ATOM     21  C   UNL     1       3.636  -3.756  -0.184  0.00  0.00    +0.002 A 
ATOM     22  C   UNL     1       3.858  -5.007   0.361  0.00  0.00    +0.004 A 
ATOM     23  C   UNL     1       3.165  -5.407   1.488  0.00  0.00    +0.047 A 
ATOM     24  C   UNL     1       2.249  -4.552   2.078  0.00  0.00    +0.140 A 
BRANCH  24  25
ATOM     25  O   UNL     1       1.571  -4.941   3.191  0.00  0.00    -0.505 OA
ATOM     26  H   UNL     1       0.737  -5.393   3.005  0.00  0.00    +0.292 HD
ENDBRANCH  24  25
ENDBRANCH  16  19
BRANCH  16  27
ATOM     27  O   UNL     1       1.483  -1.593   3.191  0.00  0.00    -0.273 OA
BRANCH  27  29
ATOM     28  C   UNL     1       2.231   0.549   4.025  0.00  0.00    +0.036 C 
ATOM     29  C   UNL     1       1.962  -0.308   2.787  0.00  0.00    +0.187 C 
ENDBRANCH  27  29
ENDBRANCH  16  27
ENDBRANCH   1  17
BRANCH   3  30
ATOM     30  S   UNL     1      -4.726  -0.566   0.330  0.00  0.00    +0.150 S 
ATOM     31  O   UNL     1      -4.302  -0.669  -1.023  0.00  0.00    -0.132 OA
ATOM     32  O   UNL     1      -5.864  -1.256   0.826  0.00  0.00    -0.132 OA
BRANCH  30  33
ATOM     33  O   UNL     1      -4.961   0.913   0.600  0.00  0.00    -0.342 OA
BRANCH  33  34
ATOM     34  C   UNL     1      -5.533   1.170   1.806  0.00  0.00    +0.157 A 
ATOM     35  C   UNL     1      -6.914   1.153   1.937  0.00  0.00    +0.048 A 
ATOM     36  C   UNL     1      -7.493   1.414   3.164  0.00  0.00    +0.004 A 
ATOM     37  C   UNL     1      -6.698   1.693   4.260  0.00  0.00    +0.000 A 
ATOM     38  C   UNL     1      -5.321   1.711   4.131  0.00  0.00    +0.004 A 
ATOM     39  C   UNL     1      -4.737   1.445   2.908  0.00  0.00    +0.048 A 
ENDBRANCH  33  34
ENDBRANCH  30  33
ENDBRANCH   3  30
TORSDOF 8
