REMARK  Name = ZINC13805196
REMARK  15 active torsions:
REMARK  status: ('A' for Active; 'I' for Inactive)
REMARK    1  A    between atoms: C_1  and  C_2
REMARK    2  A    between atoms: C_2  and  O_3
REMARK    3  A    between atoms: O_3  and  C_4
REMARK    4  A    between atoms: C_6  and  C_16
REMARK    5  A    between atoms: C_8  and  O_13
REMARK    6  A    between atoms: C_9  and  O_10
REMARK    7  A    between atoms: O_10  and  C_11
REMARK    8  A    between atoms: C_11  and  C_12
REMARK    9  A    between atoms: O_13  and  C_14
REMARK   10  A    between atoms: C_14  and  C_15
REMARK   11  A    between atoms: N_18  and  C_19
REMARK   12  A    between atoms: N_18  and  C_33
REMARK   13  A    between atoms: C_19  and  C_20
REMARK   14  A    between atoms: C_24  and  O_31
REMARK   15  A    between atoms: O_31  and  C_32
REMARK                            x       y       z     vdW  Elec       q    Type
REMARK                         _______ _______ _______ _____ _____    ______ ____
ROOT
ATOM      1  C   UNL     1       0.116   4.814  -0.236  0.00  0.00    +0.251 C 
ATOM      2  O   UNL     1      -0.654   3.876  -0.314  0.00  0.00    -0.270 OA
ATOM      3  N   UNL     1       1.398   4.607   0.124  0.00  0.00    -0.263 N 
ENDROOT
BRANCH   1   6
ATOM      4  C   UNL     1      -1.484   7.718  -2.003  0.00  0.00    +0.166 A 
ATOM      5  C   UNL     1      -1.045   6.438  -1.724  0.00  0.00    +0.062 A 
ATOM      6  C   UNL     1      -0.354   6.181  -0.537  0.00  0.00    +0.044 A 
ATOM      7  C   UNL     1      -0.108   7.219   0.364  0.00  0.00    +0.062 A 
ATOM      8  C   UNL     1      -0.549   8.498   0.080  0.00  0.00    +0.166 A 
ATOM      9  C   UNL     1      -1.238   8.752  -1.103  0.00  0.00    +0.204 A 
BRANCH   4  10
ATOM     10  O   UNL     1      -2.156   7.969  -3.159  0.00  0.00    -0.488 OA
BRANCH  10  12
ATOM     11  C   UNL     1      -3.140   7.335  -5.273  0.00  0.00    +0.048 C 
ATOM     12  C   UNL     1      -2.374   6.863  -4.036  0.00  0.00    +0.226 C 
ENDBRANCH  10  12
ENDBRANCH   4  10
BRANCH   9  13
ATOM     13  O   UNL     1      -1.670  10.010  -1.380  0.00  0.00    -0.485 OA
BRANCH  13  14
ATOM     14  C   UNL     1      -2.978  10.361  -0.926  0.00  0.00    +0.226 C 
ATOM     15  C   UNL     1      -3.288  11.805  -1.327  0.00  0.00    +0.048 C 
ENDBRANCH  13  14
ENDBRANCH   9  13
BRANCH   8  16
ATOM     16  O   UNL     1      -0.311   9.510   0.957  0.00  0.00    -0.488 OA
BRANCH  16  17
ATOM     17  C   UNL     1       0.297   9.159   2.202  0.00  0.00    +0.226 C 
ATOM     18  C   UNL     1       0.373  10.396   3.099  0.00  0.00    +0.048 C 
ENDBRANCH  16  17
ENDBRANCH   8  16
ENDBRANCH   1   6
BRANCH   3  19
ATOM     19  C   UNL     1       1.880   3.302   0.272  0.00  0.00    +0.037 A 
ATOM     20  C   UNL     1       3.234   3.081   0.490  0.00  0.00    +0.023 A 
ATOM     21  C   UNL     1       3.706   1.792   0.641  0.00  0.00    +0.002 A 
ATOM     22  C   UNL     1       2.834   0.722   0.564  0.00  0.00    +0.000 A 
ATOM     23  C   UNL     1       1.486   0.938   0.342  0.00  0.00    +0.002 A 
ATOM     24  C   UNL     1       1.007   2.225   0.196  0.00  0.00    +0.023 A 
ENDBRANCH   3  19
BRANCH   3  25
ATOM     25  C   UNL     1       2.286   5.747   0.361  0.00  0.00    +0.154 C 
BRANCH  25  26
ATOM     26  C   UNL     1       2.365   6.024   1.840  0.00  0.00    +0.035 A 
ATOM     27  C   UNL     1       3.484   6.597   2.368  0.00  0.00    +0.020 A 
ATOM     28  C   UNL     1       3.518   6.839   3.756  0.00  0.00    +0.002 A 
ATOM     29  C   UNL     1       4.637   7.426   4.366  0.00  0.00    +0.055 A 
ATOM     30  C   UNL     1       4.634   7.646   5.714  0.00  0.00    +0.121 A 
ATOM     31  C   UNL     1       3.528   7.291   6.493  0.00  0.00    +0.047 A 
ATOM     32  C   UNL     1       2.429   6.721   5.930  0.00  0.00    +0.030 A 
ATOM     33  C   UNL     1       2.397   6.480   4.545  0.00  0.00    +0.049 A 
ATOM     34  N   UNL     1       1.328   5.920   3.969  0.00  0.00    -0.322 N 
ATOM     35  C   UNL     1       1.289   5.697   2.673  0.00  0.00    +0.254 A 
ATOM     36  O   UNL     1       0.181   5.132   2.132  0.00  0.00    -0.268 OA
ATOM     37  H   UNL     1       0.459   5.636   4.581  0.00  0.00    +0.169 HD
BRANCH  30  38
ATOM     38  O   UNL     1       5.718   8.214   6.305  0.00  0.00    -0.495 OA
ATOM     39  C   UNL     1       5.654   8.418   7.718  0.00  0.00    +0.277 C 
ENDBRANCH  30  38
ENDBRANCH  25  26
ENDBRANCH   3  25
TORSDOF 11
