REMARK  Name = ZINC66382768
REMARK  8 active torsions:
REMARK  status: ('A' for Active; 'I' for Inactive)
REMARK    1  A    between atoms: C_1  and  C_2
REMARK    2  A    between atoms: C_2  and  C_3
REMARK    3  A    between atoms: C_3  and  C_5
REMARK    4  A    between atoms: C_3  and  N_8
REMARK    5  A    between atoms: C_5  and  C_6
REMARK    6  A    between atoms: C_5  and  C_7
REMARK    7  A    between atoms: C_15  and  C_18
REMARK    8  A    between atoms: C_24  and  C_27
REMARK                            x       y       z     vdW  Elec       q    Type
REMARK                         _______ _______ _______ _____ _____    ______ ____
ROOT
ATOM      1  N   UNL     1      -2.105  -0.147  -1.230  0.00  0.00    -0.296 N 
ATOM      2  C   UNL     1      -3.448  -0.042  -1.266  0.00  0.00    +0.302 C 
ATOM      3  O   UNL     1      -4.108  -0.355  -0.294  0.00  0.00    -0.253 OA
ATOM      4  N   UNL     1      -4.059   0.409  -2.380  0.00  0.00    -0.285 N 
ATOM      5  C   UNL     1      -3.288   0.676  -3.601  0.00  0.00    +0.109 C 
ATOM      6  C   UNL     1      -3.925  -0.092  -4.764  0.00  0.00    +0.020 C 
ATOM      7  C   UNL     1      -5.406   0.276  -4.863  0.00  0.00    +0.016 C 
ATOM      8  C   UNL     1      -6.121  -0.124  -3.570  0.00  0.00    +0.093 C 
ATOM      9  C   UNL     1      -5.510   0.638  -2.396  0.00  0.00    +0.122 C 
ATOM     10  H   UNL     1      -1.582   0.042  -2.026  0.00  0.00    +0.151 HD
ENDROOT
BRANCH   8  11
ATOM     11  C   UNL     1      -7.587   0.209  -3.682  0.00  0.00    +0.223 C 
ATOM     12  O   UNL     1      -8.018   0.717  -4.695  0.00  0.00    -0.275 OA
ATOM     13  N   UNL     1      -8.418  -0.057  -2.655  0.00  0.00    -0.270 N 
ATOM     14  C   UNL     1      -9.789   0.153  -2.796  0.00  0.00    +0.125 A 
ATOM     15  C   UNL     1     -10.652  -0.222  -1.773  0.00  0.00    +0.044 A 
ATOM     16  C   UNL     1     -12.011  -0.008  -1.926  0.00  0.00    +0.008 A 
ATOM     17  C   UNL     1     -12.461   0.577  -3.102  0.00  0.00    -0.032 A 
ATOM     18  C   UNL     1     -11.547   0.924  -4.077  0.00  0.00    +0.116 A 
ATOM     19  N   UNL     1     -10.257   0.713  -3.901  0.00  0.00    -0.240 NA
ATOM     20  C   UNL     1     -13.931   0.829  -3.313  0.00  0.00    +0.045 C 
ATOM     21  H   UNL     1      -8.063  -0.395  -1.819  0.00  0.00    +0.156 HD
ENDBRANCH   8  11
BRANCH   1  22
ATOM     22  C   UNL     1      -1.434  -0.546   0.009  0.00  0.00    +0.077 C 
BRANCH  22  23
ATOM     23  C   UNL     1      -1.409  -2.073   0.107  0.00  0.00    +0.003 C 
ATOM     24  C   UNL     1      -0.709  -2.490   1.402  0.00  0.00    +0.009 C 
ATOM     25  C   UNL     1      -2.843  -2.607   0.108  0.00  0.00    +0.009 C 
ENDBRANCH  22  23
BRANCH  22  27
ATOM     26  C   UNL     1      -0.026   1.518   0.036  0.00  0.00    +0.006 C 
ATOM     27  C   UNL     1      -0.000  -0.012   0.008  0.00  0.00    +0.019 C 
ENDBRANCH  22  27
ENDBRANCH   1  22
TORSDOF 4
