REMARK  Name = ZINC04201114
REMARK  6 active torsions:
REMARK  status: ('A' for Active; 'I' for Inactive)
REMARK    1  A    between atoms: C_7  and  C_11
REMARK    2  A    between atoms: C_11  and  C_12
REMARK    3  A    between atoms: N_14  and  C_15
REMARK    4  A    between atoms: C_26  and  C_33
REMARK    5  A    between atoms: C_34  and  C_35
REMARK    6  A    between atoms: C_39  and  N_41
REMARK                            x       y       z     vdW  Elec       q    Type
REMARK                         _______ _______ _______ _____ _____    ______ ____
ROOT
ATOM      1  C   UNL     1       4.947  12.935   2.162  0.00  0.00    +0.092 C 
ATOM      2  C   UNL     1       3.442  13.307   2.220  0.00  0.00    +0.055 C 
ATOM      3  C   UNL     1       2.758  12.072   1.599  0.00  0.00    +0.164 C 
ATOM      4  C   UNL     1       1.630  12.521   0.708  0.00  0.00    +0.238 C 
ATOM      5  O   UNL     1       1.377  13.704   0.623  0.00  0.00    -0.273 OA
ATOM      6  N   UNL     1       0.904  11.651   0.013  0.00  0.00    -0.283 N 
ATOM      7  C   UNL     1       1.021  10.275   0.032  0.00  0.00    +0.046 A 
ATOM      8  C   UNL     1      -0.171   9.540   0.045  0.00  0.00    +0.024 A 
ATOM      9  C   UNL     1      -0.156   8.167   0.039  0.00  0.00    +0.010 A 
ATOM     10  C   UNL     1       1.063   7.479   0.030  0.00  0.00    -0.024 A 
ATOM     11  C   UNL     1       2.256   8.195   0.022  0.00  0.00    +0.022 A 
ATOM     12  C   UNL     1       2.241   9.596   0.029  0.00  0.00    +0.059 A 
ATOM     13  C   UNL     1       3.541  10.286   0.040  0.00  0.00    +0.249 C 
ATOM     14  O   UNL     1       4.450   9.829  -0.624  0.00  0.00    -0.270 OA
ATOM     15  N   UNL     1       3.761  11.398   0.756  0.00  0.00    -0.284 N 
ATOM     16  C   UNL     1       5.024  12.152   0.827  0.00  0.00    +0.131 C 
ATOM     17  H   UNL     1       0.221  12.021  -0.568  0.00  0.00    +0.155 HD
ENDROOT
BRANCH   1  20
ATOM     18  C   UNL     1       7.091  14.061   2.435  0.00  0.00    +0.218 C 
ATOM     19  O   UNL     1       7.574  12.999   2.763  0.00  0.00    -0.275 OA
ATOM     20  N   UNL     1       5.784  14.137   2.114  0.00  0.00    -0.311 N 
ATOM     21  H   UNL     1       5.397  14.987   1.852  0.00  0.00    +0.149 HD
BRANCH  18  22
ATOM     22  C   UNL     1       7.951  15.298   2.386  0.00  0.00    +0.133 C 
BRANCH  22  29
ATOM     23  C   UNL     1      11.623  13.588   0.027  0.00  0.00    +0.001 A 
ATOM     24  C   UNL     1      12.747  13.418   0.825  0.00  0.00    +0.002 A 
ATOM     25  C   UNL     1      12.715  13.746   2.162  0.00  0.00    +0.026 A 
ATOM     26  C   UNL     1      11.544  14.243   2.724  0.00  0.00    +0.047 A 
ATOM     27  C   UNL     1      10.407  14.411   1.912  0.00  0.00    +0.003 A 
ATOM     28  C   UNL     1      10.464  14.079   0.557  0.00  0.00    +0.010 A 
ATOM     29  C   UNL     1       9.360  14.945   2.787  0.00  0.00    -0.014 A 
ATOM     30  C   UNL     1       9.893  15.055   4.014  0.00  0.00    +0.087 A 
ATOM     31  N   UNL     1      11.197  14.640   3.996  0.00  0.00    -0.360 N 
ATOM     32  H   UNL     1      11.788  14.628   4.764  0.00  0.00    +0.165 HD
ENDBRANCH  22  29
ENDBRANCH  18  22
ENDBRANCH   1  20
BRANCH  10  33
ATOM     33  C   UNL     1       1.083   6.006   0.022  0.00  0.00    +0.008 C 
ATOM     34  C   UNL     1      -0.070   5.319   0.029  0.00  0.00    +0.008 C 
BRANCH  34  35
ATOM     35  C   UNL     1      -0.050   3.845   0.022  0.00  0.00    -0.023 A 
ATOM     36  C   UNL     1       1.168   3.160   0.007  0.00  0.00    +0.008 A 
ATOM     37  C   UNL     1       1.179   1.781   0.000  0.00  0.00    +0.003 A 
ATOM     38  C   UNL     1      -0.013   1.076   0.008  0.00  0.00    +0.033 A 
ATOM     39  C   UNL     1      -1.222   1.748   0.017  0.00  0.00    +0.127 A 
ATOM     40  C   UNL     1      -1.248   3.127   0.030  0.00  0.00    +0.040 A 
BRANCH  39  41
ATOM     41  N   UNL     1      -2.490   0.985   0.019  0.00  0.00    +0.056 N 
ATOM     42  O   UNL     1      -2.469  -0.233   0.013  0.00  0.00    -0.126 OA
ATOM     43  O   UNL     1      -3.556   1.575   0.028  0.00  0.00    -0.126 OA
ENDBRANCH  39  41
ENDBRANCH  34  35
ENDBRANCH  10  33
TORSDOF 6
