REMARK  Name = ZINC39666638
REMARK  8 active torsions:
REMARK  status: ('A' for Active; 'I' for Inactive)
REMARK    1  A    between atoms: C_1  and  C_2
REMARK    2  A    between atoms: C_6  and  C_7
REMARK    3  A    between atoms: C_11  and  C_20
REMARK    4  A    between atoms: N_22  and  C_23
REMARK    5  A    between atoms: C_23  and  C_24
REMARK    6  A    between atoms: C_24  and  C_26
REMARK    7  A    between atoms: C_24  and  O_27
REMARK    8  A    between atoms: O_27  and  C_28
REMARK                            x       y       z     vdW  Elec       q    Type
REMARK                         _______ _______ _______ _____ _____    ______ ____
ROOT
ATOM      1  C   UNL     1       0.247  -0.011   2.673  0.00  0.00    +0.254 C 
ATOM      2  O   UNL     1       0.401   1.168   2.932  0.00  0.00    -0.269 OA
ATOM      3  N   UNL     1       0.132  -0.910   3.671  0.00  0.00    -0.296 N 
ATOM      4  C   UNL     1       0.064  -2.386   3.559  0.00  0.00    +0.121 C 
ATOM      5  C   UNL     1       0.906  -2.907   4.745  0.00  0.00    +0.100 C 
ATOM      6  C   UNL     1       0.889  -1.761   5.771  0.00  0.00    -0.004 C 
ATOM      7  C   UNL     1       0.052  -0.646   5.127  0.00  0.00    +0.115 C 
ATOM      8  C   UNL     1       2.308  -1.264   6.032  0.00  0.00    -0.010 C 
ATOM      9  C   UNL     1       2.271  -0.165   7.097  0.00  0.00    -0.082 C 
ATOM     10  N   UNL     1       1.682  -0.697   8.332  0.00  0.00    +0.379 N 
ATOM     11  C   UNL     1       0.287  -1.087   8.095  0.00  0.00    -0.082 C 
ATOM     12  C   UNL     1       0.241  -2.226   7.072  0.00  0.00    -0.010 C 
ATOM     13  H   UNL     1       2.209  -1.503   8.633  0.00  0.00    -0.086 HD
ATOM     14  H   UNL     1       1.715   0.011   9.051  0.00  0.00    -0.086 HD
ENDROOT
BRANCH   1  20
ATOM     15  C   UNL     1       0.289   1.811   0.147  0.00  0.00    +0.045 C 
ATOM     16  C   UNL     1       0.202   0.307   0.118  0.00  0.00    -0.031 A 
ATOM     17  C   UNL     1       0.137  -0.398  -1.060  0.00  0.00    +0.011 A 
ATOM     18  C   UNL     1       0.060  -1.751  -1.014  0.00  0.00    +0.046 A 
ATOM     19  S   UNL     1       0.073  -2.109   0.627  0.00  0.00    -0.092 S 
ATOM     20  C   UNL     1       0.187  -0.453   1.277  0.00  0.00    +0.077 A 
ENDBRANCH   1  20
BRANCH   5  21
ATOM     21  C   UNL     1       2.317  -3.195   4.301  0.00  0.00    +0.218 C 
ATOM     22  O   UNL     1       2.838  -2.504   3.451  0.00  0.00    -0.275 OA
ATOM     23  N   UNL     1       2.999  -4.221   4.847  0.00  0.00    -0.312 N 
ATOM     24  H   UNL     1       2.582  -4.774   5.526  0.00  0.00    +0.149 HD
BRANCH  23  25
ATOM     25  C   UNL     1       4.370  -4.501   4.414  0.00  0.00    +0.148 C 
BRANCH  25  26
ATOM     26  C   UNL     1       4.912  -5.707   5.184  0.00  0.00    +0.187 C 
ATOM     27  C   UNL     1       6.344  -6.000   4.733  0.00  0.00    +0.053 C 
BRANCH  26  28
ATOM     28  O   UNL     1       4.903  -5.422   6.585  0.00  0.00    -0.486 OA
BRANCH  28  29
ATOM     29  C   UNL     1       4.670  -6.464   7.426  0.00  0.00    +0.139 A 
ATOM     30  C   UNL     1       4.587  -7.755   6.926  0.00  0.00    +0.047 A 
ATOM     31  C   UNL     1       4.351  -8.813   7.782  0.00  0.00    +0.004 A 
ATOM     32  C   UNL     1       4.196  -8.586   9.137  0.00  0.00    +0.002 A 
ATOM     33  C   UNL     1       4.277  -7.300   9.639  0.00  0.00    +0.023 A 
ATOM     34  C   UNL     1       4.519  -6.239   8.787  0.00  0.00    +0.083 A 
ATOM     35 CL   UNL     1       4.628  -4.625   9.418  0.00  0.00    -0.080 Cl
ENDBRANCH  28  29
ENDBRANCH  26  28
ENDBRANCH  25  26
ENDBRANCH  23  25
ENDBRANCH   5  21
TORSDOF 6
