REMARK  Name = ZINC13800774
REMARK  5 active torsions:
REMARK  status: ('A' for Active; 'I' for Inactive)
REMARK    1  A    between atoms: C_1  and  C_2
REMARK    2  A    between atoms: C_4  and  N_14
REMARK    3  A    between atoms: N_14  and  N_15
REMARK    4  A    between atoms: C_16  and  C_17
REMARK    5  A    between atoms: C_16  and  C_18
REMARK                            x       y       z     vdW  Elec       q    Type
REMARK                         _______ _______ _______ _____ _____    ______ ____
ROOT
ATOM      1  C   UNL     1       3.951   6.061  -0.124  0.00  0.00    +0.066 C 
ATOM      2  C   UNL     1       2.616   5.362  -0.107  0.00  0.00    +0.045 A 
ATOM      3  C   UNL     1       1.445   6.094  -0.137  0.00  0.00    +0.068 A 
ATOM      4  C   UNL     1       0.229   5.407  -0.120  0.00  0.00    +0.143 A 
ATOM      5  N   UNL     1       0.240   4.077  -0.080  0.00  0.00    -0.198 NA
ATOM      6  C   UNL     1       1.386   3.413  -0.047  0.00  0.00    +0.220 A 
ATOM      7  N   UNL     1       2.553   4.040  -0.062  0.00  0.00    -0.219 NA
ATOM      8  N   UNL     1       1.362   2.030   0.000  0.00  0.00    -0.295 N 
ATOM      9  C   UNL     1      -0.019   1.527   0.010  0.00  0.00    +0.136 C 
ATOM     10  C   UNL     1       0.002  -0.004   0.002  0.00  0.00    +0.179 C 
ATOM     11  O   UNL     1       0.757  -0.472   1.123  0.00  0.00    -0.377 OA
ATOM     12  C   UNL     1       2.108  -0.001   1.144  0.00  0.00    +0.179 C 
ATOM     13  C   UNL     1       2.108   1.530   1.164  0.00  0.00    +0.136 C 
ENDROOT
BRANCH   4  14
ATOM     14  N   UNL     1      -0.970   6.099  -0.148  0.00  0.00    -0.221 N 
ATOM     15  H   UNL     1      -0.970   7.069  -0.181  0.00  0.00    +0.176 HD
BRANCH  14  16
ATOM     16  N   UNL     1      -2.184   5.399  -0.131  0.00  0.00    -0.186 NA
ATOM     17  C   UNL     1      -3.308   6.048  -0.158  0.00  0.00    +0.063 C 
ATOM     18  C   UNL     1      -3.307   7.554  -0.208  0.00  0.00    +0.068 C 
BRANCH  17  19
ATOM     19  C   UNL     1      -4.585   5.311  -0.139  0.00  0.00    -0.002 A 
ATOM     20  C   UNL     1      -5.796   6.006  -0.162  0.00  0.00    +0.011 A 
ATOM     21  C   UNL     1      -6.987   5.311  -0.150  0.00  0.00    +0.015 A 
ATOM     22  C   UNL     1      -6.984   3.927  -0.104  0.00  0.00    +0.013 A 
ATOM     23  C   UNL     1      -5.787   3.232  -0.074  0.00  0.00    +0.015 A 
ATOM     24  C   UNL     1      -4.589   3.915  -0.092  0.00  0.00    +0.011 A 
ATOM     25  I   UNL     1      -8.798   2.880  -0.078  0.00  0.00    -0.044 I 
ENDBRANCH  17  19
ENDBRANCH  14  16
ENDBRANCH   4  14
TORSDOF 3
