REMARK  Name = ZINC12417847
REMARK  10 active torsions:
REMARK  status: ('A' for Active; 'I' for Inactive)
REMARK    1  A    between atoms: C_1  and  C_2
REMARK    2  A    between atoms: C_9  and  N_13
REMARK    3  A    between atoms: C_10  and  C_11
REMARK    4  A    between atoms: N_13  and  C_14
REMARK    5  A    between atoms: C_14  and  C_15
REMARK    6  A    between atoms: C_14  and  C_19
REMARK    7  A    between atoms: C_14  and  N_23
REMARK    8  A    between atoms: C_15  and  O_17
REMARK    9  A    between atoms: O_17  and  C_18
REMARK   10  A    between atoms: C_24  and  C_26
REMARK                            x       y       z     vdW  Elec       q    Type
REMARK                         _______ _______ _______ _____ _____    ______ ____
ROOT
ATOM      1  C   UNL     1       1.263   1.564  -0.054  0.00  0.00    +0.296 C 
ENDROOT
BRANCH   1   2
ATOM      2  C   UNL     1       1.162   2.426   1.206  0.00  0.00    +0.438 C 
ATOM      3  F   UNL     1       0.822   1.620   2.297  0.00  0.00    -0.166 F 
ATOM      4  F   UNL     1       2.394   3.043   1.449  0.00  0.00    -0.166 F 
ATOM      5  F   UNL     1       0.179   3.404   1.024  0.00  0.00    -0.166 F 
ENDBRANCH   1   2
BRANCH   1   6
ATOM      6  N   UNL     1       0.018   0.812  -0.232  0.00  0.00    -0.274 N 
ATOM      7  C   UNL     1      -1.146   1.469  -0.405  0.00  0.00    +0.246 C 
ATOM      8  O   UNL     1      -1.154   2.682  -0.487  0.00  0.00    -0.270 OA
ATOM      9  H   UNL     1       0.033  -0.158  -0.230  0.00  0.00    +0.152 HD
BRANCH   7  10
ATOM     10  C   UNL     1      -2.413   0.714  -0.495  0.00  0.00    +0.037 A 
ATOM     11  C   UNL     1      -2.407  -0.679  -0.406  0.00  0.00    +0.014 A 
ATOM     12  C   UNL     1      -3.594  -1.377  -0.484  0.00  0.00    +0.021 A 
ATOM     13  C   UNL     1      -4.789  -0.700  -0.662  0.00  0.00    +0.041 A 
ATOM     14  C   UNL     1      -4.801   0.682  -0.757  0.00  0.00    +0.021 A 
ATOM     15  C   UNL     1      -3.621   1.391  -0.674  0.00  0.00    +0.014 A 
ATOM     16 CL   UNL     1      -6.278  -1.586  -0.767  0.00  0.00    -0.084 Cl
ENDBRANCH   7  10
ENDBRANCH   1   6
BRANCH   1  17
ATOM     17  N   UNL     1       2.383   0.628   0.083  0.00  0.00    -0.301 N 
ATOM     18  H   UNL     1       2.800   0.495   0.948  0.00  0.00    +0.149 HD
BRANCH  17  26
ATOM     19  C   UNL     1       4.773  -2.998  -6.419  0.00  0.00    +0.008 C 
ATOM     20  C   UNL     1       4.794  -2.314  -5.051  0.00  0.00    -0.009 C 
ATOM     21  C   UNL     1       4.913  -3.372  -3.950  0.00  0.00    +0.008 C 
ATOM     22  C   UNL     1       5.182  -2.696  -2.605  0.00  0.00    +0.037 C 
ATOM     23  C   UNL     1       4.130  -1.618  -2.379  0.00  0.00    -0.018 A 
ATOM     24  C   UNL     1       3.400  -1.131  -3.406  0.00  0.00    -0.004 A 
ATOM     25  S   UNL     1       2.326   0.068  -2.670  0.00  0.00    -0.077 S 
ATOM     26  C   UNL     1       2.844  -0.065  -1.022  0.00  0.00    +0.086 A 
ATOM     27  C   UNL     1       3.830  -1.040  -1.079  0.00  0.00    +0.083 A 
ATOM     28  C   UNL     1       3.489  -1.532  -4.846  0.00  0.00    +0.046 C 
BRANCH  27  29
ATOM     29  C   UNL     1       4.527  -1.461   0.099  0.00  0.00    +0.102 C 
ATOM     30  N   UNL     1       5.079  -1.796   1.034  0.00  0.00    -0.191 NA
ENDBRANCH  27  29
ENDBRANCH  17  26
ENDBRANCH   1  17
BRANCH   1  31
ATOM     31  C   UNL     1       1.492   2.449  -1.252  0.00  0.00    +0.359 C 
ATOM     32  O   UNL     1       0.589   2.663  -2.026  0.00  0.00    -0.246 OA
BRANCH  31  33
ATOM     33  O   UNL     1       2.699   2.999  -1.459  0.00  0.00    -0.465 OA
ATOM     34  C   UNL     1       2.846   3.841  -2.633  0.00  0.00    +0.280 C 
ENDBRANCH  31  33
ENDBRANCH   1  31
TORSDOF 8
