REMARK  Name = ZINC59990296
REMARK  15 active torsions:
REMARK  status: ('A' for Active; 'I' for Inactive)
REMARK    1  A    between atoms: C_1  and  C_2
REMARK    2  A    between atoms: C_5  and  C_35
REMARK    3  A    between atoms: N_8  and  C_10
REMARK    4  A    between atoms: C_10  and  C_11
REMARK    5  A    between atoms: C_10  and  C_12
REMARK    6  A    between atoms: C_10  and  C_13
REMARK    7  A    between atoms: C_13  and  N_14
REMARK    8  A    between atoms: C_15  and  C_17
REMARK    9  A    between atoms: C_17  and  C_19
REMARK   10  A    between atoms: C_17  and  N_23
REMARK   11  A    between atoms: C_19  and  C_20
REMARK   12  A    between atoms: C_20  and  S_21
REMARK   13  A    between atoms: S_21  and  C_22
REMARK   14  A    between atoms: C_24  and  C_26
REMARK   15  A    between atoms: C_30  and  N_32
REMARK                            x       y       z     vdW  Elec       q    Type
REMARK                         _______ _______ _______ _____ _____    ______ ____
ROOT
ATOM      1  C   UNL     1       3.762   1.904   2.165  0.00  0.00    +0.160 C 
ENDROOT
BRANCH   1   3
ATOM      2  N   UNL     1       2.801  -0.371   2.305  0.00  0.00    -0.315 N 
ATOM      3  C   UNL     1       3.883   0.403   2.090  0.00  0.00    +0.233 C 
ATOM      4  O   UNL     1       4.953  -0.107   1.837  0.00  0.00    -0.274 OA
ATOM      5  H   UNL     1       1.945   0.037   2.508  0.00  0.00    +0.149 HD
BRANCH   2   6
ATOM      6  C   UNL     1       2.918  -1.830   2.232  0.00  0.00    +0.092 C 
BRANCH   6   7
ATOM      7  C   UNL     1       1.589  -2.469   2.639  0.00  0.00    -0.055 C 
ATOM      8  C   UNL     1       1.736  -3.992   2.646  0.00  0.00    -0.008 C 
ATOM      9  C   UNL     1       0.503  -2.067   1.639  0.00  0.00    -0.008 C 
BRANCH   7  15
ATOM     10  C   UNL     1       3.028  -2.192   7.310  0.00  0.00    +0.005 C 
ATOM     11  C   UNL     1       1.925  -1.816   6.319  0.00  0.00    -0.031 C 
ATOM     12  C   UNL     1       0.594  -2.417   6.782  0.00  0.00    +0.003 C 
ATOM     13  C   UNL     1      -0.486  -2.101   5.744  0.00  0.00    -0.031 C 
ATOM     14  C   UNL     1      -0.049  -2.640   4.380  0.00  0.00    -0.075 C 
ATOM     15  N   UNL     1       1.214  -2.007   3.982  0.00  0.00    +0.384 N 
ATOM     16  C   UNL     1       2.273  -2.364   4.934  0.00  0.00    -0.075 C 
ATOM     17  C   UNL     1      -0.683  -0.586   5.657  0.00  0.00    +0.005 C 
ATOM     18  H   UNL     1       1.098  -1.005   3.971  0.00  0.00    -0.081 HD
ENDBRANCH   7  15
ENDBRANCH   6   7
ENDBRANCH   2   6
ENDBRANCH   1   3
BRANCH   1  19
ATOM     19  N   UNL     1       5.067   2.513   1.895  0.00  0.00    -0.300 N 
ATOM     20  C   UNL     1       5.138   3.770   1.414  0.00  0.00    +0.245 C 
ATOM     21  O   UNL     1       4.119   4.398   1.204  0.00  0.00    -0.270 OA
ATOM     22  H   UNL     1       5.880   2.011   2.063  0.00  0.00    +0.150 HD
BRANCH  20  23
ATOM     23  C   UNL     1       6.455   4.384   1.142  0.00  0.00    +0.039 A 
ATOM     24  C   UNL     1       7.627   3.663   1.377  0.00  0.00    +0.013 A 
ATOM     25  C   UNL     1       8.852   4.242   1.121  0.00  0.00    +0.003 A 
ATOM     26  C   UNL     1       8.921   5.535   0.632  0.00  0.00    +0.033 A 
ATOM     27  C   UNL     1       7.764   6.255   0.398  0.00  0.00    +0.127 A 
ATOM     28  C   UNL     1       6.532   5.685   0.644  0.00  0.00    +0.045 A 
BRANCH  27  29
ATOM     29  N   UNL     1       7.848   7.638  -0.124  0.00  0.00    +0.056 N 
ATOM     30  O   UNL     1       8.927   8.136  -0.345  0.00  0.00    -0.126 OA
ATOM     31  O   UNL     1       6.837   8.268  -0.329  0.00  0.00    -0.126 OA
ENDBRANCH  27  29
ENDBRANCH  20  23
ENDBRANCH   1  19
BRANCH   1  32
ATOM     32  C   UNL     1       3.289   2.308   3.563  0.00  0.00    +0.042 C 
BRANCH  32  33
ATOM     33  C   UNL     1       3.047   3.819   3.602  0.00  0.00    +0.071 C 
BRANCH  33  34
ATOM     34  S   UNL     1       2.487   4.298   5.259  0.00  0.00    -0.164 S 
ATOM     35  C   UNL     1       2.248   6.093   5.139  0.00  0.00    +0.084 C 
ENDBRANCH  33  34
ENDBRANCH  32  33
ENDBRANCH   1  32
TORSDOF 10
