REMARK  Name = ZINC12053953
REMARK  15 active torsions:
REMARK  status: ('A' for Active; 'I' for Inactive)
REMARK    1  A    between atoms: C_1  and  N_70
REMARK    2  A    between atoms: C_2  and  N_70
REMARK    3  A    between atoms: C_3  and  C_4
REMARK    4  A    between atoms: C_3  and  N_70
REMARK    5  A    between atoms: C_4  and  C_5
REMARK    6  A    between atoms: C_5  and  O_6
REMARK    7  A    between atoms: O_6  and  C_7
REMARK    8  A    between atoms: C_13  and  C_14
REMARK    9  A    between atoms: C_14  and  O_16
REMARK   10  A    between atoms: O_16  and  C_17
REMARK   11  A    between atoms: C_23  and  C_25
REMARK   12  A    between atoms: C_25  and  C_26
REMARK   13  A    between atoms: C_26  and  C_27
REMARK   14  A    between atoms: C_30  and  O_33
REMARK   15  A    between atoms: O_33  and  C_34
REMARK                            x       y       z     vdW  Elec       q    Type
REMARK                         _______ _______ _______ _____ _____    ______ ____
ROOT
ATOM      1  C   UNL     1       2.733  -7.814  -7.158  0.00  0.00    +0.141 A 
ATOM      2  C   UNL     1       1.878  -6.913  -7.758  0.00  0.00    +0.116 A 
ATOM      3  C   UNL     1       1.211  -5.985  -6.958  0.00  0.00    +0.255 A 
ATOM      4  O   UNL     1       0.475  -5.171  -7.492  0.00  0.00    -0.268 OA
ATOM      5  N   UNL     1       1.351  -5.953  -5.610  0.00  0.00    -0.310 N 
ATOM      6  C   UNL     1       2.212  -6.762  -4.984  0.00  0.00    +0.041 A 
ATOM      7  C   UNL     1       2.913  -7.722  -5.710  0.00  0.00    +0.120 A 
ATOM      8  C   UNL     1       2.505  -6.731  -3.505  0.00  0.00    +0.073 C 
ATOM      9  C   UNL     1       1.300  -6.284  -2.682  0.00  0.00    +0.114 C 
ATOM     10  N   UNL     1       1.297  -4.811  -2.660  0.00  0.00    -0.299 N 
ATOM     11  C   UNL     1       1.261  -4.116  -3.950  0.00  0.00    +0.129 C 
ATOM     12  C   UNL     1       0.480  -5.008  -4.909  0.00  0.00    +0.144 C 
ATOM     13  C   UNL     1       1.322  -4.128  -1.498  0.00  0.00    +0.216 C 
ATOM     14  O   UNL     1       1.346  -4.727  -0.443  0.00  0.00    -0.276 OA
ENDROOT
BRANCH   7  15
ATOM     15  C   UNL     1       3.832  -8.641  -5.021  0.00  0.00    +0.344 C 
ATOM     16  O   UNL     1       3.483  -9.779  -4.776  0.00  0.00    -0.245 OA
BRANCH  15  17
ATOM     17  O   UNL     1       5.061  -8.221  -4.662  0.00  0.00    -0.464 OA
ATOM     18  C   UNL     1       5.915  -9.182  -3.986  0.00  0.00    +0.280 C 
ENDBRANCH  15  17
ENDBRANCH   7  15
BRANCH   1  19
ATOM     19  O   UNL     1       3.384  -8.752  -7.885  0.00  0.00    -0.491 OA
BRANCH  19  20
ATOM     20  C   UNL     1       3.143  -8.763  -9.294  0.00  0.00    +0.227 C 
BRANCH  20  21
ATOM     21  C   UNL     1       3.960  -9.883  -9.942  0.00  0.00    +0.022 C 
BRANCH  21  22
ATOM     22  C   UNL     1       3.702  -9.895 -11.450  0.00  0.00    -0.076 C 
BRANCH  22  25
ATOM     23  C   UNL     1       4.089 -11.169 -13.472  0.00  0.00    -0.097 C 
ATOM     24  C   UNL     1       5.926 -10.702 -11.965  0.00  0.00    -0.097 C 
ATOM     25  N   UNL     1       4.480 -10.995 -12.057  0.00  0.00    +0.376 N 
ATOM     26  H   UNL     1       4.283 -11.864 -11.548  0.00  0.00    -0.083 HD
ENDBRANCH  22  25
ENDBRANCH  21  22
ENDBRANCH  20  21
ENDBRANCH  19  20
ENDBRANCH   1  19
BRANCH  13  27
ATOM     27  C   UNL     1       1.318  -2.621  -1.509  0.00  0.00    +0.100 C 
BRANCH  27  28
ATOM     28  C   UNL     1       1.349  -2.101  -0.071  0.00  0.00    +0.044 C 
BRANCH  28  29
ATOM     29  C   UNL     1       1.346  -0.594  -0.082  0.00  0.00    -0.047 A 
ATOM     30  C   UNL     1       0.147   0.094  -0.060  0.00  0.00    +0.007 A 
ATOM     31  C   UNL     1       0.141   1.476  -0.070  0.00  0.00    +0.046 A 
ATOM     32  C   UNL     1       1.340   2.173  -0.101  0.00  0.00    +0.120 A 
ATOM     33  C   UNL     1       2.542   1.480  -0.122  0.00  0.00    +0.046 A 
ATOM     34  C   UNL     1       2.542   0.099  -0.113  0.00  0.00    +0.007 A 
BRANCH  32  35
ATOM     35  O   UNL     1       1.337   3.532  -0.110  0.00  0.00    -0.495 OA
ATOM     36  C   UNL     1       2.608   4.183  -0.143  0.00  0.00    +0.277 C 
ENDBRANCH  32  35
ENDBRANCH  28  29
ENDBRANCH  27  28
ENDBRANCH  13  27
TORSDOF 11
