REMARK  Name = ZINC40731568
REMARK  7 active torsions:
REMARK  status: ('A' for Active; 'I' for Inactive)
REMARK    1  A    between atoms: C_1  and  C_2
REMARK    2  A    between atoms: C_2  and  C_3
REMARK    3  A    between atoms: C_3  and  C_5
REMARK    4  A    between atoms: C_3  and  N_6
REMARK    5  A    between atoms: C_8  and  N_21
REMARK    6  A    between atoms: C_9  and  N_13
REMARK    7  A    between atoms: C_17  and  C_20
REMARK                            x       y       z     vdW  Elec       q    Type
REMARK                         _______ _______ _______ _____ _____    ______ ____
ROOT
ATOM      1  N   UNL     1       2.167  -0.195  -1.200  0.00  0.00    -0.325 N 
ATOM      2  C   UNL     1       2.866   0.004  -2.384  0.00  0.00    +0.145 A 
ATOM      3  C   UNL     1       4.202   0.409  -2.358  0.00  0.00    +0.105 A 
ATOM      4  C   UNL     1       4.859   0.594  -3.575  0.00  0.00    +0.147 A 
ATOM      5  N   UNL     1       4.191   0.380  -4.707  0.00  0.00    -0.219 NA
ATOM      6  C   UNL     1       2.930  -0.001  -4.687  0.00  0.00    +0.225 A 
ATOM      7  N   UNL     1       2.275  -0.192  -3.559  0.00  0.00    -0.219 NA
ATOM      8  H   UNL     1       2.605  -0.050  -0.347  0.00  0.00    +0.148 HD
ENDROOT
BRANCH   4   9
ATOM      9  N   UNL     1       6.189   0.997  -3.606  0.00  0.00    -0.313 N 
ATOM     10  C   UNL     1       7.269   0.005  -3.693  0.00  0.00    +0.106 C 
ATOM     11  C   UNL     1       8.170   0.360  -4.880  0.00  0.00    +0.019 C 
ATOM     12  C   UNL     1       8.654   1.805  -4.733  0.00  0.00    +0.006 C 
ATOM     13  C   UNL     1       7.450   2.750  -4.741  0.00  0.00    +0.003 C 
ATOM     14  C   UNL     1       6.541   2.422  -3.559  0.00  0.00    +0.109 C 
ATOM     15  C   UNL     1       7.937   4.197  -4.628  0.00  0.00    +0.009 C 
ENDBRANCH   4   9
BRANCH   3  16
ATOM     16  N   UNL     1       4.868   0.624  -1.139  0.00  0.00    -0.353 N 
ATOM     17  H   UNL     1       4.377   0.579  -0.304  0.00  0.00    +0.143 HD
ATOM     18  H   UNL     1       5.819   0.816  -1.133  0.00  0.00    +0.143 HD
ENDBRANCH   3  16
BRANCH   1  19
ATOM     19  C   UNL     1       0.767  -0.625  -1.240  0.00  0.00    +0.068 C 
ATOM     20  C   UNL     1       0.705  -2.149  -1.362  0.00  0.00    +0.028 C 
BRANCH  19  22
ATOM     21  C   UNL     1       0.014   1.340   0.106  0.00  0.00    +0.005 C 
ATOM     22  C   UNL     1       0.061  -0.188   0.045  0.00  0.00    +0.018 C 
ENDBRANCH  19  22
ENDBRANCH   1  19
TORSDOF 4
