REMARK  Name = ZINC27552251
REMARK  8 active torsions:
REMARK  status: ('A' for Active; 'I' for Inactive)
REMARK    1  A    between atoms: C_1  and  C_2
REMARK    2  A    between atoms: C_2  and  C_3
REMARK    3  A    between atoms: C_3  and  C_4
REMARK    4  A    between atoms: C_3  and  C_5
REMARK    5  A    between atoms: C_3  and  C_6
REMARK    6  A    between atoms: C_14  and  N_23
REMARK    7  A    between atoms: N_23  and  S_24
REMARK    8  A    between atoms: S_24  and  C_27
REMARK                            x       y       z     vdW  Elec       q    Type
REMARK                         _______ _______ _______ _____ _____    ______ ____
ROOT
ATOM      1  C   UNL     1       6.279   5.766   0.246  0.00  0.00    -0.000 C 
ATOM      2  C   UNL     1       5.608   6.728   1.230  0.00  0.00    +0.012 C 
ATOM      3  C   UNL     1       4.129   6.891   0.860  0.00  0.00    +0.075 C 
ATOM      4  C   UNL     1       3.521   5.517   0.696  0.00  0.00    +0.110 A 
ATOM      5  C   UNL     1       4.248   4.398   0.532  0.00  0.00    +0.002 A 
ATOM      6  C   UNL     1       3.299   3.294   0.413  0.00  0.00    +0.026 A 
ATOM      7  C   UNL     1       3.430   1.906   0.229  0.00  0.00    +0.037 A 
ATOM      8  C   UNL     1       2.331   1.107   0.158  0.00  0.00    +0.057 A 
ATOM      9  C   UNL     1       1.036   1.669   0.269  0.00  0.00    +0.008 A 
ATOM     10  C   UNL     1      -0.108   0.860   0.200  0.00  0.00    +0.010 A 
ATOM     11  C   UNL     1      -1.343   1.426   0.304  0.00  0.00    +0.001 A 
ATOM     12  C   UNL     1      -1.489   2.798   0.490  0.00  0.00    +0.001 A 
ATOM     13  C   UNL     1      -0.399   3.613   0.561  0.00  0.00    +0.012 A 
ATOM     14  C   UNL     1       0.888   3.065   0.452  0.00  0.00    +0.027 A 
ATOM     15  C   UNL     1       2.036   3.881   0.524  0.00  0.00    +0.143 A 
ATOM     16  O   UNL     1       2.216   5.208   0.689  0.00  0.00    -0.459 OA
ATOM     17  C   UNL     1       5.752   4.346   0.485  0.00  0.00    +0.043 C 
ENDROOT
BRANCH   1  18
ATOM     18  C   UNL     1       7.794   5.792   0.461  0.00  0.00    -0.032 C 
ATOM     19  C   UNL     1       8.114   5.360   1.893  0.00  0.00    +0.011 C 
ATOM     20  C   UNL     1       8.465   4.831  -0.523  0.00  0.00    +0.011 C 
BRANCH  18  22
ATOM     21  C   UNL     1       9.834   7.235   0.441  0.00  0.00    +0.004 C 
ATOM     22  C   UNL     1       8.319   7.210   0.226  0.00  0.00    +0.003 C 
ENDBRANCH  18  22
ENDBRANCH   1  18
BRANCH   8  23
ATOM     23  N   UNL     1       2.479  -0.270  -0.026  0.00  0.00    -0.216 N 
ATOM     24  H   UNL     1       1.752  -0.825  -0.635  0.00  0.00    +0.174 HD
BRANCH  23  25
ATOM     25  S   UNL     1       3.752  -1.066   0.674  0.00  0.00    +0.072 S 
ATOM     26  O   UNL     1       3.553  -2.450   0.423  0.00  0.00    -0.150 OA
ATOM     27  O   UNL     1       4.930  -0.380   0.274  0.00  0.00    -0.150 OA
BRANCH  25  28
ATOM     28  C   UNL     1       3.609  -0.845   2.417  0.00  0.00    +0.109 A 
ATOM     29  C   UNL     1       4.220   0.233   3.029  0.00  0.00    +0.030 A 
ATOM     30  C   UNL     1       4.103   0.410   4.395  0.00  0.00    +0.022 A 
ATOM     31  C   UNL     1       3.385  -0.499   5.151  0.00  0.00    +0.041 A 
ATOM     32  C   UNL     1       2.779  -1.581   4.538  0.00  0.00    +0.022 A 
ATOM     33  C   UNL     1       2.891  -1.754   3.172  0.00  0.00    +0.030 A 
ATOM     34 CL   UNL     1       3.245  -0.282   6.868  0.00  0.00    -0.084 Cl
ENDBRANCH  25  28
ENDBRANCH  23  25
ENDBRANCH   8  23
TORSDOF 5
