REMARK  Name = ZINC39487601
REMARK  12 active torsions:
REMARK  status: ('A' for Active; 'I' for Inactive)
REMARK    1  A    between atoms: C_1  and  C_2
REMARK    2  A    between atoms: C_2  and  C_3
REMARK    3  A    between atoms: C_2  and  C_4
REMARK    4  A    between atoms: C_4  and  C_5
REMARK    5  A    between atoms: C_5  and  C_38
REMARK    6  A    between atoms: N_7  and  C_31
REMARK    7  A    between atoms: N_10  and  C_11
REMARK    8  A    between atoms: C_11  and  C_12
REMARK    9  A    between atoms: C_12  and  C_25
REMARK   10  A    between atoms: N_15  and  C_18
REMARK   11  A    between atoms: C_18  and  C_19
REMARK   12  A    between atoms: C_36  and  O_37
REMARK                            x       y       z     vdW  Elec       q    Type
REMARK                         _______ _______ _______ _____ _____    ______ ____
ROOT
ATOM      1  C   UNL     1       2.965  -2.047  -2.931  0.00  0.00    +0.117 C 
ENDROOT
BRANCH   1   7
ATOM      2  C   UNL     1       3.429  -3.771  -1.028  0.00  0.00    +0.052 C 
ATOM      3  C   UNL     1       2.716  -4.013   0.316  0.00  0.00    +0.141 C 
ATOM      4  N   UNL     1       1.638  -3.012   0.328  0.00  0.00    -0.250 N 
ATOM      5  C   UNL     1       1.690  -2.296  -0.802  0.00  0.00    +0.310 C 
ATOM      6  O   UNL     1       0.911  -1.396  -1.054  0.00  0.00    -0.252 OA
ATOM      7  N   UNL     1       2.678  -2.659  -1.631  0.00  0.00    -0.278 N 
ATOM      8  C   UNL     1       4.889  -3.372  -0.801  0.00  0.00    +0.033 C 
BRANCH   4   9
ATOM      9  C   UNL     1       0.705  -2.837   1.359  0.00  0.00    +0.079 A 
ATOM     10  C   UNL     1       0.928  -1.886   2.344  0.00  0.00    +0.027 A 
ATOM     11  C   UNL     1       0.006  -1.714   3.360  0.00  0.00    +0.002 A 
ATOM     12  C   UNL     1      -1.139  -2.488   3.396  0.00  0.00    +0.004 A 
ATOM     13  C   UNL     1      -1.368  -3.438   2.418  0.00  0.00    +0.047 A 
ATOM     14  C   UNL     1      -0.452  -3.612   1.393  0.00  0.00    +0.138 A 
BRANCH  14  15
ATOM     15  O   UNL     1      -0.678  -4.541   0.427  0.00  0.00    -0.505 OA
ATOM     16  H   UNL     1      -0.391  -5.434   0.664  0.00  0.00    +0.292 HD
ENDBRANCH  14  15
ENDBRANCH   4   9
BRANCH   2  17
ATOM     17  C   UNL     1       3.346  -5.016  -1.913  0.00  0.00    +0.030 C 
BRANCH  17  19
ATOM     18  C   UNL     1       3.701  -6.574   0.009  0.00  0.00    +0.007 C 
ATOM     19  C   UNL     1       4.252  -6.109  -1.341  0.00  0.00    -0.015 C 
ATOM     20  C   UNL     1       4.296  -7.293  -2.309  0.00  0.00    +0.007 C 
ENDBRANCH  17  19
ENDBRANCH   2  17
ENDBRANCH   1   7
BRANCH   1  21
ATOM     21  C   UNL     1       1.879  -2.446  -3.933  0.00  0.00    -0.014 C 
ATOM     22  C   UNL     1       2.116  -1.720  -5.260  0.00  0.00    -0.010 C 
ATOM     23  C   UNL     1       1.993  -0.211  -5.040  0.00  0.00    -0.078 C 
ATOM     24  N   UNL     1       0.650   0.106  -4.540  0.00  0.00    +0.382 N 
ATOM     25  C   UNL     1       0.442  -0.528  -3.233  0.00  0.00    -0.078 C 
ATOM     26  C   UNL     1       0.505  -2.049  -3.384  0.00  0.00    -0.010 C 
ATOM     27  H   UNL     1      -0.040  -0.236  -5.192  0.00  0.00    -0.081 HD
BRANCH  21  28
ATOM     28  C   UNL     1       1.922  -3.958  -4.159  0.00  0.00    -0.003 C 
ATOM     29  C   UNL     1       3.215  -4.328  -4.890  0.00  0.00    +0.004 C 
ATOM     30  C   UNL     1       3.258  -5.840  -5.116  0.00  0.00    +0.000 C 
ATOM     31  C   UNL     1       2.055  -6.264  -5.961  0.00  0.00    +0.000 C 
ATOM     32  C   UNL     1       0.763  -5.895  -5.231  0.00  0.00    +0.000 C 
ATOM     33  C   UNL     1       0.720  -4.382  -5.004  0.00  0.00    +0.004 C 
ENDBRANCH  21  28
BRANCH  24  34
ATOM     34  C   UNL     1       0.511   1.562  -4.404  0.00  0.00    -0.043 C 
BRANCH  34  35
ATOM     35  C   UNL     1      -0.891   1.894  -3.964  0.00  0.00    -0.064 A 
ATOM     36  C   UNL     1      -1.902   2.005  -4.900  0.00  0.00    +0.002 A 
ATOM     37  C   UNL     1      -3.188   2.309  -4.496  0.00  0.00    +0.000 A 
ATOM     38  C   UNL     1      -3.464   2.503  -3.155  0.00  0.00    +0.000 A 
ATOM     39  C   UNL     1      -2.453   2.392  -2.219  0.00  0.00    +0.000 A 
ATOM     40  C   UNL     1      -1.168   2.083  -2.623  0.00  0.00    +0.002 A 
ENDBRANCH  34  35
ENDBRANCH  24  34
ENDBRANCH   1  21
TORSDOF 9
