REMARK  Name = ZINC11785384
REMARK  9 active torsions:
REMARK  status: ('A' for Active; 'I' for Inactive)
REMARK    1  A    between atoms: C_1  and  C_2
REMARK    2  A    between atoms: C_2  and  C_4
REMARK    3  A    between atoms: C_2  and  N_60
REMARK    4  A    between atoms: C_4  and  C_5
REMARK    5  A    between atoms: C_10  and  N_60
REMARK    6  A    between atoms: N_13  and  C_16
REMARK    7  A    between atoms: C_19  and  C_22
REMARK    8  A    between atoms: N_24  and  C_25
REMARK    9  A    between atoms: C_25  and  C_26
REMARK                            x       y       z     vdW  Elec       q    Type
REMARK                         _______ _______ _______ _____ _____    ______ ____
ROOT
ATOM      1  C   UNL     1      -5.039   3.319   8.945  0.00  0.00    -0.069 C 
ATOM      2  C   UNL     1      -4.641   4.453   7.996  0.00  0.00    +0.003 C 
ATOM      3  C   UNL     1      -4.037   3.858   6.723  0.00  0.00    +0.103 C 
ATOM      4  N   UNL     1      -2.860   3.051   7.069  0.00  0.00    -0.330 N 
ATOM      5  C   UNL     1      -3.225   1.927   7.941  0.00  0.00    +0.103 C 
ATOM      6  C   UNL     1      -3.806   2.465   9.251  0.00  0.00    +0.003 C 
ENDROOT
BRANCH   4   7
ATOM      7  C   UNL     1      -2.209   2.602   5.925  0.00  0.00    +0.030 A 
ATOM      8  C   UNL     1      -1.065   1.817   6.039  0.00  0.00    +0.024 A 
ATOM      9  C   UNL     1      -0.419   1.371   4.909  0.00  0.00    +0.015 A 
ATOM     10  C   UNL     1      -0.912   1.708   3.645  0.00  0.00    +0.037 A 
ATOM     11  C   UNL     1      -2.058   2.502   3.534  0.00  0.00    +0.015 A 
ATOM     12  C   UNL     1      -2.703   2.939   4.668  0.00  0.00    +0.024 A 
BRANCH  10  13
ATOM     13  C   UNL     1      -0.222   1.232   2.431  0.00  0.00    +0.244 C 
ATOM     14  O   UNL     1       0.777   0.546   2.530  0.00  0.00    -0.270 OA
ATOM     15  N   UNL     1      -0.698   1.558   1.213  0.00  0.00    -0.307 N 
ATOM     16  H   UNL     1      -1.495   2.106   1.135  0.00  0.00    +0.149 HD
BRANCH  15  17
ATOM     17  C   UNL     1      -0.013   1.086   0.008  0.00  0.00    +0.141 C 
BRANCH  17  18
ATOM     18  C   UNL     1      -0.742   1.585  -1.213  0.00  0.00    -0.012 A 
ATOM     19  C   UNL     1      -1.754   0.829  -1.784  0.00  0.00    +0.008 A 
ATOM     20  C   UNL     1      -2.400   1.330  -2.904  0.00  0.00    +0.020 A 
ATOM     21  C   UNL     1      -2.010   2.553  -3.416  0.00  0.00    +0.111 A 
ATOM     22  N   UNL     1      -1.039   3.242  -2.849  0.00  0.00    -0.263 NA
ATOM     23  C   UNL     1      -0.405   2.799  -1.781  0.00  0.00    +0.115 A 
ENDBRANCH  17  18
ENDBRANCH  15  17
ENDBRANCH  10  13
ENDBRANCH   4   7
BRANCH   1  24
ATOM     24  N   UNL     1      -5.564   3.895  10.197  0.00  0.00    +0.383 N 
ATOM     25  H   UNL     1      -4.781   4.108  10.826  0.00  0.00    -0.085 HD
ATOM     26  H   UNL     1      -6.076   4.759   9.984  0.00  0.00    -0.085 HD
BRANCH  24  28
ATOM     27  C   UNL     1      -7.880   3.088  10.274  0.00  0.00    -0.013 C 
ATOM     28  C   UNL     1      -6.474   2.940  10.858  0.00  0.00    -0.070 C 
BRANCH  28  29
ATOM     29  C   UNL     1      -6.511   3.238  12.358  0.00  0.00    +0.026 C 
BRANCH  29  30
ATOM     30  C   UNL     1      -5.153   2.975  12.956  0.00  0.00    -0.012 A 
ATOM     31  C   UNL     1      -4.104   3.821  13.099  0.00  0.00    +0.011 A 
ATOM     32  C   UNL     1      -2.942   3.357  13.687  0.00  0.00    +0.008 A 
ATOM     33  C   UNL     1      -2.883   2.065  14.095  0.00  0.00    +0.045 A 
ATOM     34  S   UNL     1      -4.505   1.464  13.654  0.00  0.00    -0.102 S 
ENDBRANCH  29  30
ENDBRANCH  28  29
ENDBRANCH  24  28
ENDBRANCH   1  24
TORSDOF 8
