REMARK  Name = ZINC42865022
REMARK  9 active torsions:
REMARK  status: ('A' for Active; 'I' for Inactive)
REMARK    1  A    between atoms: C_1  and  C_2
REMARK    2  A    between atoms: C_2  and  N_3
REMARK    3  A    between atoms: C_4  and  C_21
REMARK    4  A    between atoms: C_7  and  S_8
REMARK    5  A    between atoms: S_8  and  C_9
REMARK    6  A    between atoms: C_9  and  C_11
REMARK    7  A    between atoms: C_9  and  C_14
REMARK    8  A    between atoms: C_11  and  C_12
REMARK    9  A    between atoms: C_11  and  C_13
REMARK                            x       y       z     vdW  Elec       q    Type
REMARK                         _______ _______ _______ _____ _____    ______ ____
ROOT
ATOM      1  N   UNL     1       0.416   0.404   1.210  0.00  0.00    -0.302 N 
ATOM      2  C   UNL     1       1.758   0.110   1.129  0.00  0.00    +0.165 A 
ATOM      3  N   UNL     1       2.079  -0.533   2.227  0.00  0.00    -0.128 NA
ATOM      4  N   UNL     1       1.045  -0.660   2.980  0.00  0.00    -0.122 NA
ATOM      5  C   UNL     1       0.001  -0.100   2.410  0.00  0.00    +0.193 A 
ENDROOT
BRANCH   2   6
ATOM      6  C   UNL     1       2.666   0.453   0.014  0.00  0.00    +0.019 A 
ATOM      7  C   UNL     1       2.323   1.465  -0.884  0.00  0.00    +0.013 A 
ATOM      8  C   UNL     1       3.174   1.780  -1.922  0.00  0.00    +0.021 A 
ATOM      9  C   UNL     1       4.368   1.095  -2.074  0.00  0.00    +0.041 A 
ATOM     10  C   UNL     1       4.715   0.090  -1.187  0.00  0.00    +0.021 A 
ATOM     11  C   UNL     1       3.874  -0.230  -0.141  0.00  0.00    +0.013 A 
ATOM     12 CL   UNL     1       5.435   1.498  -3.383  0.00  0.00    -0.084 Cl
ENDBRANCH   2   6
BRANCH   1  14
ATOM     13  C   UNL     1      -0.445   2.603   0.574  0.00  0.00    +0.027 C 
ATOM     14  C   UNL     1      -0.396   1.115   0.220  0.00  0.00    +0.122 C 
ENDBRANCH   1  14
BRANCH   5  15
ATOM     15  S   UNL     1      -1.631  -0.019   3.069  0.00  0.00    -0.073 S 
BRANCH  15  16
ATOM     16  C   UNL     1      -1.502  -0.865   4.668  0.00  0.00    +0.143 C 
BRANCH  16  17
ATOM     17  C   UNL     1      -2.869  -0.975   5.291  0.00  0.00    +0.229 C 
ATOM     18  O   UNL     1      -3.564   0.013   5.408  0.00  0.00    -0.274 OA
ATOM     19  N   UNL     1      -3.321  -2.171   5.718  0.00  0.00    -0.301 N 
ATOM     20  C   UNL     1      -2.550  -3.422   5.736  0.00  0.00    +0.108 C 
ATOM     21  C   UNL     1      -3.480  -4.527   6.279  0.00  0.00    +0.020 C 
ATOM     22  C   UNL     1      -4.896  -3.954   6.004  0.00  0.00    +0.020 C 
ATOM     23  C   UNL     1      -4.670  -2.439   6.250  0.00  0.00    +0.108 C 
ENDBRANCH  16  17
BRANCH  16  24
ATOM     24  C   UNL     1      -0.582  -0.066   5.595  0.00  0.00    +0.005 C 
ATOM     25  C   UNL     1      -1.164   1.333   5.808  0.00  0.00    +0.009 C 
ATOM     26  C   UNL     1      -0.469  -0.782   6.942  0.00  0.00    +0.009 C 
ENDBRANCH  16  24
ENDBRANCH  15  16
ENDBRANCH   5  15
TORSDOF 6
