REMARK  Name = ZINC64707690
REMARK  9 active torsions:
REMARK  status: ('A' for Active; 'I' for Inactive)
REMARK    1  A    between atoms: C_1  and  N_2
REMARK    2  A    between atoms: N_2  and  S_3
REMARK    3  A    between atoms: S_3  and  C_6
REMARK    4  A    between atoms: C_9  and  N_12
REMARK    5  A    between atoms: C_13  and  C_15
REMARK    6  A    between atoms: C_15  and  C_17
REMARK    7  A    between atoms: C_15  and  N_27
REMARK    8  A    between atoms: C_17  and  C_18
REMARK    9  A    between atoms: C_28  and  C_30
REMARK                            x       y       z     vdW  Elec       q    Type
REMARK                         _______ _______ _______ _____ _____    ______ ____
ROOT
ATOM      1  C   UNL     1      -4.531  -0.001  -7.517  0.00  0.00    +0.163 C 
ENDROOT
BRANCH   1   3
ATOM      2  N   UNL     1      -4.200   0.335  -5.089  0.00  0.00    -0.284 N 
ATOM      3  C   UNL     1      -3.909  -0.375  -6.196  0.00  0.00    +0.238 C 
ATOM      4  O   UNL     1      -3.145  -1.315  -6.130  0.00  0.00    -0.273 OA
ATOM      5  H   UNL     1      -4.868   1.038  -5.125  0.00  0.00    +0.155 HD
BRANCH   2   9
ATOM      6  C   UNL     1      -2.233  -0.485  -1.509  0.00  0.00    +0.105 A 
ATOM      7  C   UNL     1      -1.569  -0.638  -2.712  0.00  0.00    +0.030 A 
ATOM      8  C   UNL     1      -2.218  -0.367  -3.901  0.00  0.00    +0.025 A 
ATOM      9  C   UNL     1      -3.540   0.059  -3.887  0.00  0.00    +0.034 A 
ATOM     10  C   UNL     1      -4.204   0.211  -2.677  0.00  0.00    +0.025 A 
ATOM     11  C   UNL     1      -3.551  -0.066  -1.492  0.00  0.00    +0.030 A 
BRANCH   6  12
ATOM     12  S   UNL     1      -1.401  -0.832   0.005  0.00  0.00    +0.058 S 
ATOM     13  O   UNL     1      -2.073  -0.094   1.016  0.00  0.00    -0.153 OA
ATOM     14  O   UNL     1      -0.011  -0.682  -0.252  0.00  0.00    -0.153 OA
BRANCH  12  16
ATOM     15  C   UNL     1      -1.098  -3.464  -0.539  0.00  0.00    +0.127 C 
ATOM     16  N   UNL     1      -1.650  -2.434   0.344  0.00  0.00    -0.193 NA
ATOM     17  H   UNL     1      -2.161  -2.690   1.128  0.00  0.00    +0.148 HD
ENDBRANCH  12  16
ENDBRANCH   6  12
ENDBRANCH   2   9
ENDBRANCH   1   3
BRANCH   1  18
ATOM     18  N   UNL     1      -3.736  -0.567  -8.609  0.00  0.00    -0.299 N 
ATOM     19  C   UNL     1      -3.564  -1.901  -8.697  0.00  0.00    +0.251 C 
ATOM     20  O   UNL     1      -4.069  -2.635  -7.868  0.00  0.00    -0.270 OA
ATOM     21  H   UNL     1      -3.333   0.018  -9.270  0.00  0.00    +0.150 HD
BRANCH  19  22
ATOM     22  C   UNL     1      -2.768  -2.468  -9.790  0.00  0.00    +0.074 A 
ATOM     23  C   UNL     1      -2.477  -3.796 -10.061  0.00  0.00    +0.021 A 
ATOM     24  C   UNL     1      -1.697  -4.021 -11.170  0.00  0.00    +0.008 A 
ATOM     25  C   UNL     1      -1.275  -2.963 -11.905  0.00  0.00    +0.046 A 
ATOM     26  S   UNL     1      -1.929  -1.629 -11.120  0.00  0.00    -0.092 S 
ENDBRANCH  19  22
ENDBRANCH   1  18
BRANCH   1  27
ATOM     27  C   UNL     1      -5.956  -0.554  -7.584  0.00  0.00    +0.065 C 
BRANCH  27  28
ATOM     28  C   UNL     1      -6.621  -0.078  -8.849  0.00  0.00    -0.039 C 
ATOM     29  C   UNL     1      -6.700  -0.741 -10.026  0.00  0.00    -0.001 A 
ATOM     30  C   UNL     1      -6.209  -2.053 -10.462  0.00  0.00    +0.010 A 
ATOM     31  C   UNL     1      -6.448  -2.454 -11.732  0.00  0.00    +0.001 A 
ATOM     32  C   UNL     1      -7.150  -1.649 -12.639  0.00  0.00    +0.002 A 
ATOM     33  C   UNL     1      -7.633  -0.431 -12.312  0.00  0.00    +0.026 A 
ATOM     34  C   UNL     1      -7.440   0.090 -11.002  0.00  0.00    +0.043 A 
ATOM     35  N   UNL     1      -7.803   1.223 -10.452  0.00  0.00    -0.380 N 
ATOM     36  C   UNL     1      -7.340   1.236  -9.060  0.00  0.00    +0.144 C 
ATOM     37  H   UNL     1      -8.299   1.932 -10.890  0.00  0.00    +0.160 HD
ENDBRANCH  27  28
ENDBRANCH   1  27
TORSDOF 8
