REMARK  Name = ZINC22107099
REMARK  10 active torsions:
REMARK  status: ('A' for Active; 'I' for Inactive)
REMARK    1  A    between atoms: C_1  and  C_2
REMARK    2  A    between atoms: C_2  and  S_3
REMARK    3  A    between atoms: S_3  and  C_4
REMARK    4  A    between atoms: C_7  and  S_9
REMARK    5  A    between atoms: S_9  and  C_10
REMARK    6  A    between atoms: C_10  and  C_12
REMARK    7  A    between atoms: C_10  and  C_13
REMARK    8  A    between atoms: N_15  and  C_16
REMARK    9  A    between atoms: C_19  and  N_26
REMARK   10  A    between atoms: C_21  and  C_22
REMARK                            x       y       z     vdW  Elec       q    Type
REMARK                         _______ _______ _______ _____ _____    ______ ____
ROOT
ATOM      1  C   UNL     1       3.957  -1.473   7.797  0.00  0.00    +0.230 C 
ATOM      2  O   UNL     1       3.294  -1.466   8.813  0.00  0.00    -0.274 OA
ATOM      3  N   UNL     1       5.274  -1.754   7.855  0.00  0.00    -0.284 N 
ATOM      4  H   UNL     1       5.856  -1.849   6.927  0.00  0.00    +0.155 HD
ENDROOT
BRANCH   3   5
ATOM      5  C   UNL     1       5.900  -1.924   9.094  0.00  0.00    +0.045 A 
ATOM      6  C   UNL     1       5.367  -1.329  10.231  0.00  0.00    +0.026 A 
ATOM      7  C   UNL     1       5.986  -1.499  11.453  0.00  0.00    +0.034 A 
ATOM      8  C   UNL     1       7.137  -2.261  11.546  0.00  0.00    +0.127 A 
ATOM      9  C   UNL     1       7.670  -2.855  10.417  0.00  0.00    +0.047 A 
ATOM     10  C   UNL     1       7.052  -2.693   9.193  0.00  0.00    +0.078 A 
BRANCH  10  11
ATOM     11  C   UNL     1       7.630  -3.345   7.963  0.00  0.00    +0.419 C 
ATOM     12  F   UNL     1       8.780  -4.061   8.312  0.00  0.00    -0.166 F 
ATOM     13  F   UNL     1       6.687  -4.219   7.411  0.00  0.00    -0.166 F 
ATOM     14  F   UNL     1       7.960  -2.361   7.025  0.00  0.00    -0.166 F 
ENDBRANCH  10  11
BRANCH   8  15
ATOM     15  N   UNL     1       7.798  -2.442  12.858  0.00  0.00    +0.056 N 
ATOM     16  O   UNL     1       7.330  -1.920  13.854  0.00  0.00    -0.126 OA
ATOM     17  O   UNL     1       8.811  -3.113  12.942  0.00  0.00    -0.126 OA
ENDBRANCH   8  15
ENDBRANCH   3   5
BRANCH   1  18
ATOM     18  C   UNL     1       3.308  -1.167   6.472  0.00  0.00    +0.136 C 
ATOM     19  C   UNL     1       2.910  -2.474   5.785  0.00  0.00    +0.029 C 
BRANCH  18  20
ATOM     20  S   UNL     1       1.831  -0.150   6.742  0.00  0.00    -0.084 S 
BRANCH  20  24
ATOM     21  C   UNL     1       0.113   1.062   2.836  0.00  0.00    +0.159 A 
ATOM     22  N   UNL     1       1.198   0.314   2.785  0.00  0.00    -0.134 NA
ATOM     23  N   UNL     1       1.795  -0.106   3.951  0.00  0.00    -0.134 NA
ATOM     24  C   UNL     1       1.279   0.241   5.115  0.00  0.00    +0.160 A 
ATOM     25  S   UNL     1      -0.123   1.221   4.600  0.00  0.00    -0.033 S 
BRANCH  21  26
ATOM     26  S   UNL     1      -0.844   1.733   1.517  0.00  0.00    -0.097 S 
BRANCH  26  28
ATOM     27  C   UNL     1      -0.731   1.675  -1.215  0.00  0.00    +0.016 C 
ATOM     28  C   UNL     1       0.006   1.157   0.022  0.00  0.00    +0.073 C 
ENDBRANCH  26  28
ENDBRANCH  21  26
ENDBRANCH  20  24
ENDBRANCH  18  20
ENDBRANCH   1  18
TORSDOF 8
