REMARK  Name = ZINC11289143
REMARK  7 active torsions:
REMARK  status: ('A' for Active; 'I' for Inactive)
REMARK    1  A    between atoms: C_3  and  N_11
REMARK    2  A    between atoms: C_6  and  N_7
REMARK    3  A    between atoms: C_12  and  C_14
REMARK    4  A    between atoms: C_14  and  O_15
REMARK    5  A    between atoms: O_15  and  C_16
REMARK    6  A    between atoms: C_16  and  C_18
REMARK    7  A    between atoms: C_18  and  C_19
REMARK                            x       y       z     vdW  Elec       q    Type
REMARK                         _______ _______ _______ _____ _____    ______ ____
ROOT
ATOM      1  C   UNL     1       2.363  -4.268   3.845  0.00  0.00    +0.328 C 
ENDROOT
BRANCH   1   3
ATOM      2  N   UNL     1       3.026  -6.381   4.946  0.00  0.00    -0.281 N 
ATOM      3  C   UNL     1       2.413  -5.773   3.911  0.00  0.00    +0.255 C 
ATOM      4  O   UNL     1       1.902  -6.436   3.034  0.00  0.00    -0.272 OA
ATOM      5  H   UNL     1       3.553  -5.782   5.703  0.00  0.00    +0.155 HD
BRANCH   2   8
ATOM      6  C   UNL     1       2.985  -9.942   4.028  0.00  0.00    +0.034 A 
ATOM      7  C   UNL     1       3.019  -8.566   3.915  0.00  0.00    +0.027 A 
ATOM      8  C   UNL     1       2.993  -7.776   5.056  0.00  0.00    +0.052 A 
ATOM      9  C   UNL     1       2.939  -8.374   6.310  0.00  0.00    +0.064 A 
ATOM     10  C   UNL     1       2.901  -9.752   6.415  0.00  0.00    +0.054 A 
ATOM     11  C   UNL     1       2.926 -10.534   5.276  0.00  0.00    +0.128 A 
ATOM     12 CL   UNL     1       2.914  -7.392   7.741  0.00  0.00    -0.082 Cl
BRANCH  11  13
ATOM     13  N   UNL     1       2.891 -12.010   5.392  0.00  0.00    +0.056 N 
ATOM     14  O   UNL     1       2.914 -12.700   4.389  0.00  0.00    -0.126 OA
ATOM     15  O   UNL     1       2.839 -12.533   6.491  0.00  0.00    -0.126 OA
ENDBRANCH  11  13
ENDBRANCH   2   8
ENDBRANCH   1   3
BRANCH   1  16
ATOM     16  O   UNL     1       1.654  -3.860   2.645  0.00  0.00    -0.455 OA
BRANCH  16  17
ATOM     17  C   UNL     1       1.520  -2.541   2.435  0.00  0.00    +0.308 C 
ATOM     18  O   UNL     1       1.980  -1.753   3.228  0.00  0.00    -0.251 OA
BRANCH  17  19
ATOM     19  C   UNL     1       0.796  -2.042   1.211  0.00  0.00    +0.127 C 
BRANCH  19  20
ATOM     20  C   UNL     1       0.786  -0.512   1.213  0.00  0.00    -0.017 C 
ATOM     21  C   UNL     1       2.224   0.008   1.202  0.00  0.00    +0.011 C 
ATOM     22  C   UNL     1       2.214   1.538   1.204  0.00  0.00    -0.009 C 
ATOM     23  C   UNL     1       1.499   2.042   2.460  0.00  0.00    +0.007 C 
ATOM     24  C   UNL     1       0.060   1.521   2.471  0.00  0.00    -0.009 C 
ATOM     25  C   UNL     1       0.071  -0.009   2.469  0.00  0.00    +0.011 C 
ATOM     26  C   UNL     1      -0.675   2.028   1.228  0.00  0.00    +0.021 C 
ATOM     27  C   UNL     1       0.040   1.524  -0.028  0.00  0.00    +0.027 C 
ATOM     28  C   UNL     1       1.479   2.044  -0.039  0.00  0.00    +0.021 C 
ATOM     29  C   UNL     1       0.051  -0.006  -0.030  0.00  0.00    +0.025 C 
ATOM     30 BR   UNL     1      -0.904   2.175  -1.625  0.00  0.00    -0.084 Br
ENDBRANCH  19  20
ENDBRANCH  17  19
ENDBRANCH  16  17
ENDBRANCH   1  16
TORSDOF 7
