REMARK  Name = ZINC26843102
REMARK  10 active torsions:
REMARK  status: ('A' for Active; 'I' for Inactive)
REMARK    1  A    between atoms: C_1  and  C_2
REMARK    2  A    between atoms: C_2  and  C_3
REMARK    3  A    between atoms: C_5  and  C_11
REMARK    4  A    between atoms: C_8  and  C_9
REMARK    5  A    between atoms: C_11  and  C_12
REMARK    6  A    between atoms: C_11  and  C_17
REMARK    7  A    between atoms: C_11  and  O_21
REMARK    8  A    between atoms: C_13  and  C_14
REMARK    9  A    between atoms: O_21  and  C_22
REMARK   10  A    between atoms: C_22  and  C_23
REMARK                            x       y       z     vdW  Elec       q    Type
REMARK                         _______ _______ _______ _____ _____    ______ ____
ROOT
ATOM      1  C   UNL     1       4.096   0.984  -1.409  0.00  0.00    +0.256 C 
ENDROOT
BRANCH   1   4
ATOM      2  C   UNL     1       4.104   1.228  -5.175  0.00  0.00    -0.028 A 
ATOM      3  C   UNL     1       3.682   1.347  -3.858  0.00  0.00    +0.018 A 
ATOM      4  C   UNL     1       4.513   0.882  -2.854  0.00  0.00    +0.070 A 
ATOM      5  C   UNL     1       5.736   0.320  -3.195  0.00  0.00    +0.256 A 
ATOM      6  N   UNL     1       6.101   0.218  -4.463  0.00  0.00    -0.326 N 
ATOM      7  C   UNL     1       5.331   0.653  -5.442  0.00  0.00    +0.019 A 
ATOM      8  C   UNL     1       5.796   0.521  -6.869  0.00  0.00    +0.063 C 
ATOM      9  O   UNL     1       6.562  -0.135  -2.220  0.00  0.00    -0.267 OA
ATOM     10  H   UNL     1       7.067  -0.238  -4.722  0.00  0.00    +0.169 HD
BRANCH   2  12
ATOM     11  C   UNL     1       3.727   3.092  -6.767  0.00  0.00    +0.009 C 
ATOM     12  C   UNL     1       3.233   1.720  -6.302  0.00  0.00    +0.033 C 
ENDBRANCH   2  12
ENDBRANCH   1   4
BRANCH   1  13
ATOM     13  C   UNL     1       3.858  -0.419  -0.847  0.00  0.00    +0.434 C 
ATOM     14  F   UNL     1       2.922  -1.088  -1.643  0.00  0.00    -0.166 F 
ATOM     15  F   UNL     1       5.062  -1.131  -0.845  0.00  0.00    -0.166 F 
ATOM     16  F   UNL     1       3.372  -0.321   0.461  0.00  0.00    -0.166 F 
ENDBRANCH   1  13
BRANCH   1  17
ATOM     17  C   UNL     1       5.158   1.649  -0.638  0.00  0.00    -0.053 C 
ATOM     18  C   UNL     1       6.006   2.179  -0.022  0.00  0.00    -0.095 C 
BRANCH  18  19
ATOM     19  C   UNL     1       7.069   2.843   0.750  0.00  0.00    +0.064 C 
ATOM     20  C   UNL     1       6.660   3.577   2.029  0.00  0.00    +0.017 C 
ATOM     21  C   UNL     1       7.065   4.373   0.785  0.00  0.00    +0.017 C 
ENDBRANCH  18  19
ENDBRANCH   1  17
BRANCH   1  22
ATOM     22  O   UNL     1       2.890   1.746  -1.314  0.00  0.00    -0.344 OA
BRANCH  22  23
ATOM     23  C   UNL     1       2.482   2.022   0.027  0.00  0.00    +0.200 C 
BRANCH  23  24
ATOM     24  C   UNL     1       1.298   2.955   0.010  0.00  0.00    +0.015 A 
ATOM     25  C   UNL     1       1.496   4.324   0.033  0.00  0.00    +0.048 A 
ATOM     26  C   UNL     1       0.409   5.180   0.016  0.00  0.00    +0.020 A 
ATOM     27  C   UNL     1      -0.874   4.667  -0.024  0.00  0.00    +0.003 A 
ATOM     28  C   UNL     1      -1.072   3.300  -0.052  0.00  0.00    +0.020 A 
ATOM     29  C   UNL     1       0.014   2.443  -0.030  0.00  0.00    +0.048 A 
ATOM     30 CL   UNL     1      -0.235   0.725  -0.060  0.00  0.00    -0.083 Cl
ATOM     31 CL   UNL     1       3.107   4.968   0.082  0.00  0.00    -0.083 Cl
ENDBRANCH  23  24
ENDBRANCH  22  23
ENDBRANCH   1  22
TORSDOF 8
