REMARK  Name = ZINC36924379
REMARK  4 active torsions:
REMARK  status: ('A' for Active; 'I' for Inactive)
REMARK    1  A    between atoms: C_1  and  C_2
REMARK    2  A    between atoms: C_5  and  C_14
REMARK    3  A    between atoms: N_8  and  S_10
REMARK    4  A    between atoms: S_10  and  N_13
REMARK                            x       y       z     vdW  Elec       q    Type
REMARK                         _______ _______ _______ _____ _____    ______ ____
ROOT
ATOM      1  C   UNL     1      -0.019   1.526   0.010  0.00  0.00    +0.009 C 
ATOM      2  C   UNL     1       0.002  -0.004   0.002  0.00  0.00    +0.002 C 
ATOM      3  C   UNL     1       0.720  -0.498  -1.256  0.00  0.00    +0.009 C 
ATOM      4  C   UNL     1       2.145   0.059  -1.285  0.00  0.00    +0.002 C 
ATOM      5  C   UNL     1       2.912  -0.448  -0.060  0.00  0.00    +0.113 C 
ATOM      6  N   UNL     1       2.153  -0.103   1.150  0.00  0.00    -0.166 NA
ATOM      7  C   UNL     1       0.744  -0.512   1.242  0.00  0.00    +0.113 C 
ATOM      8  C   UNL     1       2.850  -0.408  -2.559  0.00  0.00    +0.009 C 
ENDROOT
BRANCH   6   9
ATOM      9  S   UNL     1       2.871   0.732   2.387  0.00  0.00    +0.095 S 
ATOM     10  O   UNL     1       2.133   0.430   3.563  0.00  0.00    -0.141 OA
ATOM     11  O   UNL     1       4.268   0.492   2.281  0.00  0.00    -0.141 OA
BRANCH   9  12
ATOM     12  N   UNL     1       2.644   2.344   2.087  0.00  0.00    -0.193 NA
ATOM     13  H   UNL     1       2.160   2.627   1.295  0.00  0.00    +0.145 HD
ATOM     14  H   UNL     1       2.994   3.007   2.703  0.00  0.00    +0.145 HD
ENDBRANCH   9  12
ENDBRANCH   6   9
TORSDOF 2
