REMARK  Name = ZINC24828926
REMARK  12 active torsions:
REMARK  status: ('A' for Active; 'I' for Inactive)
REMARK    1  A    between atoms: C_1  and  C_2
REMARK    2  A    between atoms: C_3  and  C_30
REMARK    3  A    between atoms: N_4  and  C_25
REMARK    4  A    between atoms: C_5  and  S_7
REMARK    5  A    between atoms: S_7  and  C_8
REMARK    6  A    between atoms: C_8  and  C_9
REMARK    7  A    between atoms: N_14  and  C_17
REMARK    8  A    between atoms: C_17  and  C_18
REMARK    9  A    between atoms: N_20  and  C_21
REMARK   10  A    between atoms: C_21  and  C_22
REMARK   11  A    between atoms: C_21  and  C_23
REMARK   12  A    between atoms: C_21  and  C_24
REMARK                            x       y       z     vdW  Elec       q    Type
REMARK                         _______ _______ _______ _____ _____    ______ ____
ROOT
ATOM      1  C   UNL     1       0.078  -3.839   4.466  0.00  0.00    +0.226 C 
ATOM      2  O   UNL     1       0.092  -4.997   4.108  0.00  0.00    -0.275 OA
ATOM      3  N   UNL     1       0.080  -3.539   5.780  0.00  0.00    -0.298 N 
ATOM      4  C   UNL     1       0.057  -2.141   6.236  0.00  0.00    +0.123 C 
ATOM      5  C   UNL     1      -1.073  -1.982   7.259  0.00  0.00    +0.104 C 
ATOM      6  N   UNL     1      -0.908  -2.980   8.325  0.00  0.00    -0.291 NA
ATOM      7  C   UNL     1      -1.025  -4.346   7.798  0.00  0.00    +0.104 C 
ATOM      8  C   UNL     1       0.100  -4.602   6.796  0.00  0.00    +0.123 C 
ENDROOT
BRANCH   1   9
ATOM      9  C   UNL     1       0.057  -2.734   3.441  0.00  0.00    +0.173 C 
BRANCH   9  10
ATOM     10  S   UNL     1       0.059  -3.453   1.776  0.00  0.00    -0.080 S 
BRANCH  10  15
ATOM     11  C   UNL     1      -0.018   1.503   0.010  0.00  0.00    +0.065 C 
ATOM     12  C   UNL     1       0.002  -0.004   0.002  0.00  0.00    +0.034 A 
ATOM     13  C   UNL     1       0.008  -0.785  -1.092  0.00  0.00    +0.037 A 
ATOM     14  N   UNL     1       0.028  -2.090  -0.654  0.00  0.00    -0.321 N 
ATOM     15  C   UNL     1       0.034  -2.053   0.707  0.00  0.00    +0.148 A 
ATOM     16  N   UNL     1       0.024  -0.796   1.087  0.00  0.00    -0.338 N 
ATOM     17  C   UNL     1      -0.006  -0.320  -2.525  0.00  0.00    +0.065 C 
ATOM     18  H   UNL     1       0.028  -0.488   2.007  0.00  0.00    +0.168 HD
BRANCH  14  19
ATOM     19  C   UNL     1       0.041  -3.291  -1.493  0.00  0.00    +0.089 C 
ATOM     20  C   UNL     1      -1.163  -4.191  -1.145  0.00  0.00    +0.025 C 
ATOM     21  C   UNL     1      -0.607  -5.631  -1.267  0.00  0.00    +0.002 C 
ATOM     22  C   UNL     1       0.827  -5.494  -0.698  0.00  0.00    +0.002 C 
ATOM     23  C   UNL     1       1.306  -4.119  -1.209  0.00  0.00    +0.025 C 
ENDBRANCH  14  19
ENDBRANCH  10  15
ENDBRANCH   9  10
ENDBRANCH   1   9
BRANCH   6  24
ATOM     24  C   UNL     1      -1.868  -2.751   9.413  0.00  0.00    +0.180 C 
BRANCH  24  25
ATOM     25  C   UNL     1      -1.514  -3.627  10.587  0.00  0.00    +0.227 C 
ATOM     26  O   UNL     1      -0.557  -4.369  10.523  0.00  0.00    -0.274 OA
ATOM     27  N   UNL     1      -2.262  -3.587  11.707  0.00  0.00    -0.310 N 
ATOM     28  H   UNL     1      -3.028  -2.993  11.758  0.00  0.00    +0.149 HD
BRANCH  27  29
ATOM     29  C   UNL     1      -1.918  -4.439  12.849  0.00  0.00    +0.026 C 
ATOM     30  C   UNL     1      -0.508  -4.098  13.333  0.00  0.00    +0.031 C 
ATOM     31  C   UNL     1      -2.918  -4.200  13.982  0.00  0.00    +0.031 C 
ATOM     32  C   UNL     1      -1.970  -5.907  12.423  0.00  0.00    +0.031 C 
ENDBRANCH  27  29
ENDBRANCH  24  25
ENDBRANCH   6  24
TORSDOF 7
