REMARK  Name = ZINC03654532
REMARK  7 active torsions:
REMARK  status: ('A' for Active; 'I' for Inactive)
REMARK    1  A    between atoms: C_1  and  C_2
REMARK    2  A    between atoms: C_2  and  O_3
REMARK    3  A    between atoms: O_3  and  C_4
REMARK    4  A    between atoms: C_9  and  C_10
REMARK    5  A    between atoms: C_12  and  C_33
REMARK    6  A    between atoms: C_28  and  C_30
REMARK    7  A    between atoms: C_28  and  C_31
REMARK                            x       y       z     vdW  Elec       q    Type
REMARK                         _______ _______ _______ _____ _____    ______ ____
ROOT
ATOM      1  C   UNL     1      -0.058   4.088  -0.679  0.00  0.00    +0.101 C 
ATOM      2  C   UNL     1       1.251   3.408  -0.332  0.00  0.00    +0.080 C 
ATOM      3  C   UNL     1       1.192   2.058   0.002  0.00  0.00    +0.123 C 
ATOM      4  N   UNL     1       2.348   1.446   0.296  0.00  0.00    -0.330 N 
ATOM      5  C   UNL     1       2.419   0.146   0.506  0.00  0.00    +0.104 C 
ATOM      6  C   UNL     1       1.198  -0.660   0.358  0.00  0.00    +0.034 A 
ATOM      7  C   UNL     1       1.216  -2.043   0.528  0.00  0.00    +0.013 A 
ATOM      8  C   UNL     1       0.075  -2.775   0.277  0.00  0.00    +0.001 A 
ATOM      9  C   UNL     1      -1.069  -2.142  -0.182  0.00  0.00    +0.002 A 
ATOM     10  C   UNL     1      -1.091  -0.772  -0.360  0.00  0.00    +0.024 A 
ATOM     11  C   UNL     1       0.002  -0.004   0.002  0.00  0.00    +0.050 A 
ATOM     12  N   UNL     1      -0.017   1.387   0.010  0.00  0.00    -0.257 N 
ATOM     13  C   UNL     1      -1.212   2.058   0.106  0.00  0.00    +0.025 C 
ATOM     14  C   UNL     1      -1.305   3.376  -0.190  0.00  0.00    +0.025 C 
ATOM     15  C   UNL     1      -2.494   4.097  -0.036  0.00  0.00    +0.162 C 
ATOM     16  O   UNL     1      -2.527   5.277  -0.331  0.00  0.00    -0.292 OA
ATOM     17  C   UNL     1      -3.738   3.444   0.505  0.00  0.00    +0.086 C 
ATOM     18  C   UNL     1      -3.341   2.263   1.393  0.00  0.00    -0.023 C 
ATOM     19  C   UNL     1      -2.438   1.324   0.590  0.00  0.00    +0.058 C 
ATOM     20  C   UNL     1      -2.605   2.761   2.637  0.00  0.00    +0.011 C 
ATOM     21  C   UNL     1      -4.602   1.504   1.821  0.00  0.00    +0.011 C 
ATOM     22  N   UNL     1       3.612  -0.435   0.854  0.00  0.00    -0.344 N 
ATOM     23  H   UNL     1       3.665  -1.520   1.028  0.00  0.00    +0.144 HD
ATOM     24  H   UNL     1       4.516   0.183   0.959  0.00  0.00    +0.144 HD
ATOM     25  H   UNL     1       3.255   2.064   0.361  0.00  0.00    +0.168 HD
ENDROOT
BRANCH   1  31
ATOM     26  C   UNL     1      -0.240   5.454  -2.773  0.00  0.00    +0.125 A 
ATOM     27  C   UNL     1      -0.313   5.559  -4.155  0.00  0.00    +0.046 A 
ATOM     28  C   UNL     1      -0.282   4.420  -4.935  0.00  0.00    +0.004 A 
ATOM     29  C   UNL     1      -0.179   3.175  -4.341  0.00  0.00    +0.001 A 
ATOM     30  C   UNL     1      -0.102   3.069  -2.965  0.00  0.00    +0.008 A 
ATOM     31  C   UNL     1      -0.137   4.205  -2.179  0.00  0.00    +0.007 A 
BRANCH  26  32
ATOM     32  O   UNL     1      -0.271   6.574  -2.003  0.00  0.00    -0.492 OA
BRANCH  32  34
ATOM     33  C   UNL     1      -0.398   8.962  -1.659  0.00  0.00    +0.048 C 
ATOM     34  C   UNL     1      -0.378   7.826  -2.683  0.00  0.00    +0.225 C 
ENDBRANCH  32  34
ENDBRANCH  26  32
ENDBRANCH   1  31
BRANCH   2  35
ATOM     35  C   UNL     1       2.488   4.124  -0.347  0.00  0.00    +0.099 C 
ATOM     36  N   UNL     1       3.471   4.693  -0.359  0.00  0.00    -0.191 NA
ENDBRANCH   2  35
TORSDOF 4
