REMARK  Name = ZINC10249205
REMARK  8 active torsions:
REMARK  status: ('A' for Active; 'I' for Inactive)
REMARK    1  A    between atoms: C_1  and  C_2
REMARK    2  A    between atoms: C_2  and  C_4
REMARK    3  A    between atoms: C_2  and  C_31
REMARK    4  A    between atoms: C_4  and  N_5
REMARK    5  A    between atoms: N_13  and  C_30
REMARK    6  A    between atoms: N_20  and  C_23
REMARK    7  A    between atoms: C_31  and  S_32
REMARK    8  A    between atoms: S_32  and  C_33
REMARK                            x       y       z     vdW  Elec       q    Type
REMARK                         _______ _______ _______ _____ _____    ______ ____
ROOT
ATOM      1  N   UNL     1       9.036   1.017   0.005  0.00  0.00    -0.306 N 
ATOM      2  C   UNL     1       9.814   0.562   1.062  0.00  0.00    +0.153 A 
ATOM      3  C   UNL     1       9.675   0.568   2.461  0.00  0.00    +0.280 A 
ATOM      4  O   UNL     1       8.693   1.069   2.980  0.00  0.00    -0.265 OA
ATOM      5  N   UNL     1      10.642   0.018   3.223  0.00  0.00    -0.273 N 
ATOM      6  H   UNL     1      10.548   0.023   4.218  0.00  0.00    +0.173 HD
ATOM      7  C   UNL     1      11.731  -0.539   2.664  0.00  0.00    +0.331 A 
ATOM      8  O   UNL     1      12.583  -1.025   3.383  0.00  0.00    -0.246 OA
ATOM      9  N   UNL     1      11.901  -0.570   1.329  0.00  0.00    -0.280 N 
ATOM     10  C   UNL     1      10.942  -0.021   0.494  0.00  0.00    +0.170 A 
ATOM     11  N   UNL     1      10.832   0.097  -0.830  0.00  0.00    -0.196 NA
ATOM     12  C   UNL     1       9.707   0.710  -1.136  0.00  0.00    +0.201 A 
ATOM     13  N   UNL     1       9.278   0.996  -2.412  0.00  0.00    -0.298 N 
ATOM     14  C   UNL     1       8.179   0.106  -2.810  0.00  0.00    +0.127 C 
ATOM     15  C   UNL     1       7.679   0.507  -4.200  0.00  0.00    +0.124 C 
ATOM     16  N   UNL     1       8.791   0.429  -5.159  0.00  0.00    -0.327 N 
ATOM     17  C   UNL     1       9.890   1.320  -4.760  0.00  0.00    +0.124 C 
ATOM     18  C   UNL     1      10.389   0.918  -3.370  0.00  0.00    +0.127 C 
ATOM     19  C   UNL     1      13.102  -1.186   0.759  0.00  0.00    +0.155 C 
ENDROOT
BRANCH  16  20
ATOM     20  C   UNL     1       8.356   0.719  -6.454  0.00  0.00    +0.031 A 
ATOM     21  C   UNL     1       8.954   1.744  -7.176  0.00  0.00    +0.023 A 
ATOM     22  C   UNL     1       8.526   2.026  -8.458  0.00  0.00    +0.003 A 
ATOM     23  C   UNL     1       7.494   1.296  -9.020  0.00  0.00    +0.020 A 
ATOM     24  C   UNL     1       6.892   0.278  -8.302  0.00  0.00    +0.043 A 
ATOM     25  C   UNL     1       7.320  -0.012  -7.020  0.00  0.00    +0.043 A 
ATOM     26 CL   UNL     1       5.597  -0.635  -9.012  0.00  0.00    -0.083 Cl
ENDBRANCH  16  20
BRANCH   1  27
ATOM     27  C   UNL     1       7.744   1.702   0.103  0.00  0.00    +0.129 C 
BRANCH  27  29
ATOM     28  C   UNL     1       8.735   3.659   1.300  0.00  0.00    +0.010 C 
ATOM     29  C   UNL     1       7.965   3.216   0.054  0.00  0.00    +0.016 C 
BRANCH  29  30
ATOM     30  C   UNL     1       6.611   3.927   0.012  0.00  0.00    +0.082 C 
BRANCH  30  31
ATOM     31  S   UNL     1       6.870   5.706  -0.194  0.00  0.00    -0.086 S 
BRANCH  31  32
ATOM     32  C   UNL     1       5.198   6.260  -0.210  0.00  0.00    +0.188 A 
ATOM     33  N   UNL     1       4.946   7.554  -0.347  0.00  0.00    -0.230 NA
ATOM     34  C   UNL     1       3.701   8.002  -0.363  0.00  0.00    +0.115 A 
ATOM     35  C   UNL     1       2.656   7.101  -0.234  0.00  0.00    +0.039 A 
ATOM     36  C   UNL     1       2.955   5.755  -0.092  0.00  0.00    +0.115 A 
ATOM     37  N   UNL     1       4.221   5.372  -0.084  0.00  0.00    -0.230 NA
ENDBRANCH  31  32
ENDBRANCH  30  31
ENDBRANCH  29  30
ENDBRANCH  27  29
ENDBRANCH   1  27
TORSDOF 6
