REMARK  Name = ZINC00944881
REMARK  4 active torsions:
REMARK  status: ('A' for Active; 'I' for Inactive)
REMARK    1  A    between atoms: C_4  and  N_7
REMARK    2  A    between atoms: N_7  and  C_8
REMARK    3  A    between atoms: C_8  and  N_10
REMARK    4  A    between atoms: N_10  and  N_11
REMARK                            x       y       z     vdW  Elec       q    Type
REMARK                         _______ _______ _______ _____ _____    ______ ____
ROOT
ATOM      1  N   UNL     1      -2.014   6.772  -5.132  0.00  0.00    -0.235 N 
ATOM      2  C   UNL     1      -1.718   5.880  -4.131  0.00  0.00    +0.213 A 
ATOM      3  N   UNL     1      -1.972   4.560  -4.338  0.00  0.00    -0.293 N 
ATOM      4  H   UNL     1      -2.367   4.281  -5.213  0.00  0.00    +0.172 HD
ATOM      5  C   UNL     1      -1.716   3.605  -3.412  0.00  0.00    +0.261 A 
ATOM      6  O   UNL     1      -1.951   2.427  -3.616  0.00  0.00    -0.267 OA
ATOM      7  C   UNL     1      -1.152   4.066  -2.178  0.00  0.00    +0.075 A 
ATOM      8  C   UNL     1      -0.787   3.252  -1.031  0.00  0.00    -0.023 A 
ATOM      9  C   UNL     1      -0.268   3.903   0.035  0.00  0.00    -0.004 A 
ATOM     10  S   UNL     1      -0.239   5.614  -0.434  0.00  0.00    -0.073 S 
ATOM     11  C   UNL     1      -0.922   5.455  -2.053  0.00  0.00    +0.117 A 
ATOM     12  N   UNL     1      -1.197   6.341  -3.003  0.00  0.00    -0.207 NA
ATOM     13  C   UNL     1       0.183   3.305   1.332  0.00  0.00    +0.043 C 
ATOM     14  C   UNL     1      -0.372   1.876   1.427  0.00  0.00    +0.005 C 
ATOM     15  C   UNL     1      -0.091   1.153   0.106  0.00  0.00    +0.005 C 
ATOM     16  C   UNL     1      -0.970   1.737  -1.000  0.00  0.00    +0.037 C 
ATOM     17  H   UNL     1      -2.396   6.456  -5.966  0.00  0.00    +0.173 HD
ENDROOT
BRANCH   1  18
ATOM     18  N   UNL     1      -1.763   8.138  -4.950  0.00  0.00    -0.245 N 
ATOM     19  H   UNL     1      -1.381   8.454  -4.116  0.00  0.00    +0.172 HD
BRANCH  18  20
ATOM     20  C   UNL     1      -2.053   9.014  -5.933  0.00  0.00    +0.151 C 
ATOM     21  S   UNL     1      -1.747  10.683  -5.710  0.00  0.00    -0.017 S 
BRANCH  20  22
ATOM     22  N   UNL     1      -2.585   8.575  -7.091  0.00  0.00    -0.296 N 
ATOM     23  H   UNL     1      -2.700   7.623  -7.242  0.00  0.00    +0.154 HD
BRANCH  22  27
ATOM     24  C   UNL     1      -3.728  11.302 -10.024  0.00  0.00    +0.000 A 
ATOM     25  C   UNL     1      -2.507  11.442  -9.391  0.00  0.00    +0.002 A 
ATOM     26  C   UNL     1      -2.125  10.539  -8.418  0.00  0.00    +0.023 A 
ATOM     27  C   UNL     1      -2.969   9.491  -8.076  0.00  0.00    +0.033 A 
ATOM     28  C   UNL     1      -4.193   9.350  -8.717  0.00  0.00    +0.023 A 
ATOM     29  C   UNL     1      -4.571  10.259  -9.686  0.00  0.00    +0.002 A 
ENDBRANCH  22  27
ENDBRANCH  20  22
ENDBRANCH  18  20
ENDBRANCH   1  18
TORSDOF 4
