REMARK  Name = ZINC39652589
REMARK  8 active torsions:
REMARK  status: ('A' for Active; 'I' for Inactive)
REMARK    1  A    between atoms: C_1  and  C_2
REMARK    2  A    between atoms: C_2  and  O_3
REMARK    3  A    between atoms: O_3  and  C_4
REMARK    4  A    between atoms: C_9  and  C_10
REMARK    5  A    between atoms: C_10  and  C_11
REMARK    6  A    between atoms: C_11  and  N_12
REMARK    7  A    between atoms: C_13  and  C_15
REMARK    8  A    between atoms: C_26  and  C_28
REMARK                            x       y       z     vdW  Elec       q    Type
REMARK                         _______ _______ _______ _____ _____    ______ ____
ROOT
ATOM      1  C   UNL     1      -7.201   1.179  -2.518  0.00  0.00    +0.100 C 
ATOM      2  C   UNL     1      -6.939   2.427  -1.647  0.00  0.00    +0.121 C 
ATOM      3  N   UNL     1      -6.482   3.463  -2.604  0.00  0.00    -0.296 N 
ATOM      4  C   UNL     1      -7.334   3.260  -3.800  0.00  0.00    +0.115 C 
ATOM      5  C   UNL     1      -7.463   1.730  -3.930  0.00  0.00    -0.004 C 
ATOM      6  C   UNL     1      -8.868   1.355  -4.391  0.00  0.00    -0.010 C 
ATOM      7  C   UNL     1      -9.084   1.863  -5.819  0.00  0.00    -0.082 C 
ATOM      8  N   UNL     1      -8.081   1.268  -6.710  0.00  0.00    +0.379 N 
ATOM      9  C   UNL     1      -6.737   1.709  -6.315  0.00  0.00    -0.082 C 
ATOM     10  C   UNL     1      -6.421   1.194  -4.908  0.00  0.00    -0.010 C 
ATOM     11  C   UNL     1      -5.512   4.381  -2.426  0.00  0.00    +0.248 C 
ATOM     12  O   UNL     1      -4.831   4.359  -1.419  0.00  0.00    -0.270 OA
ATOM     13  H   UNL     1      -8.134   0.263  -6.650  0.00  0.00    -0.086 HD
ATOM     14  H   UNL     1      -8.262   1.556  -7.659  0.00  0.00    -0.086 HD
ENDROOT
BRANCH  11  15
ATOM     15  C   UNL     1      -5.275   5.414  -3.455  0.00  0.00    +0.055 A 
ATOM     16  C   UNL     1      -6.347   5.945  -4.175  0.00  0.00    +0.016 A 
ATOM     17  C   UNL     1      -6.120   6.909  -5.134  0.00  0.00    +0.021 A 
ATOM     18  C   UNL     1      -4.831   7.351  -5.386  0.00  0.00    +0.042 A 
ATOM     19  C   UNL     1      -3.763   6.828  -4.676  0.00  0.00    +0.040 A 
ATOM     20  C   UNL     1      -3.978   5.867  -3.708  0.00  0.00    +0.054 A 
ATOM     21 CL   UNL     1      -2.639   5.218  -2.814  0.00  0.00    -0.083 Cl
ATOM     22 CL   UNL     1      -4.554   8.564  -6.596  0.00  0.00    -0.083 Cl
ENDBRANCH  11  15
BRANCH   1  24
ATOM     23  N   UNL     1      -6.143  -1.053  -2.656  0.00  0.00    -0.315 N 
ATOM     24  C   UNL     1      -5.991   0.279  -2.522  0.00  0.00    +0.218 C 
ATOM     25  O   UNL     1      -4.882   0.755  -2.405  0.00  0.00    -0.275 OA
ATOM     26  H   UNL     1      -7.030  -1.433  -2.751  0.00  0.00    +0.149 HD
BRANCH  23  27
ATOM     27  C   UNL     1      -4.967  -1.927  -2.660  0.00  0.00    +0.109 C 
BRANCH  27  28
ATOM     28  C   UNL     1      -5.414  -3.382  -2.825  0.00  0.00    +0.057 C 
BRANCH  28  34
ATOM     29  C   UNL     1      -3.664  -4.722  -1.631  0.00  0.00    +0.124 A 
ATOM     30  C   UNL     1      -2.554  -5.555  -1.638  0.00  0.00    +0.046 A 
ATOM     31  C   UNL     1      -1.986  -5.937  -2.838  0.00  0.00    +0.004 A 
ATOM     32  C   UNL     1      -2.524  -5.491  -4.032  0.00  0.00    +0.000 A 
ATOM     33  C   UNL     1      -3.630  -4.662  -4.027  0.00  0.00    +0.007 A 
ATOM     34  C   UNL     1      -4.205  -4.281  -2.829  0.00  0.00    -0.004 A 
BRANCH  29  35
ATOM     35  O   UNL     1      -4.224  -4.345  -0.452  0.00  0.00    -0.492 OA
BRANCH  35  37
ATOM     36  C   UNL     1      -4.378  -4.311   1.960  0.00  0.00    +0.048 C 
ATOM     37  C   UNL     1      -3.614  -4.838   0.743  0.00  0.00    +0.225 C 
ENDBRANCH  35  37
ENDBRANCH  29  35
ENDBRANCH  28  34
ENDBRANCH  27  28
ENDBRANCH  23  27
ENDBRANCH   1  24
TORSDOF 7
