REMARK  Name = ZINC10395610
REMARK  4 active torsions:
REMARK  status: ('A' for Active; 'I' for Inactive)
REMARK    1  A    between atoms: C_7  and  C_11
REMARK    2  A    between atoms: C_14  and  S_16
REMARK    3  A    between atoms: S_16  and  C_17
REMARK    4  A    between atoms: C_17  and  C_18
REMARK                            x       y       z     vdW  Elec       q    Type
REMARK                         _______ _______ _______ _____ _____    ______ ____
ROOT
ATOM      1  C   UNL     1      -0.110   6.424   0.023  0.00  0.00    +0.155 C 
ENDROOT
BRANCH   1   2
ATOM      2  C   UNL     1       0.661   7.718   0.029  0.00  0.00    +0.143 A 
ATOM      3  N   UNL     1       0.928   8.305   1.182  0.00  0.00    -0.216 NA
ATOM      4  C   UNL     1       1.606   9.439   1.255  0.00  0.00    +0.128 A 
ATOM      5  C   UNL     1       2.054  10.055   0.053  0.00  0.00    +0.051 A 
ATOM      6  C   UNL     1       2.812  11.302  -0.106  0.00  0.00    -0.025 A 
ATOM      7  C   UNL     1       3.109  11.672  -1.368  0.00  0.00    -0.004 A 
ATOM      8  S   UNL     1       2.419  10.404  -2.401  0.00  0.00    -0.073 S 
ATOM      9  C   UNL     1       1.726   9.375  -1.135  0.00  0.00    +0.114 A 
ATOM     10  N   UNL     1       1.049   8.243  -1.117  0.00  0.00    -0.224 NA
ATOM     11  C   UNL     1       3.848  12.895  -1.815  0.00  0.00    +0.043 C 
ATOM     12  C   UNL     1       5.139  13.035  -0.999  0.00  0.00    +0.005 C 
ATOM     13  C   UNL     1       4.832  13.860   0.247  0.00  0.00    +0.001 C 
ATOM     14  C   UNL     1       3.403  13.588   0.714  0.00  0.00    +0.005 C 
ATOM     15  C   UNL     1       3.240  12.124   1.106  0.00  0.00    +0.037 C 
ATOM     16  N   UNL     1       1.871  10.021   2.482  0.00  0.00    -0.343 N 
ATOM     17  H   UNL     1       1.281   9.855   3.234  0.00  0.00    +0.144 HD
ATOM     18  H   UNL     1       2.646  10.594   2.590  0.00  0.00    +0.144 HD
ENDBRANCH   1   2
BRANCH   1  19
ATOM     19  S   UNL     1       1.044   5.033   0.117  0.00  0.00    -0.058 S 
BRANCH  19  23
ATOM     20  C   UNL     1      -0.954   1.707   0.100  0.00  0.00    +0.251 A 
ATOM     21  N   UNL     1      -1.913   2.599   0.024  0.00  0.00    -0.106 NA
ATOM     22  N   UNL     1      -1.400   3.779   0.025  0.00  0.00    -0.101 NA
ATOM     23  C   UNL     1      -0.094   3.688   0.093  0.00  0.00    +0.278 A 
ATOM     24  O   UNL     1       0.219   2.378   0.142  0.00  0.00    -0.411 OA
BRANCH  20  31
ATOM     25  C   UNL     1      -4.713  -1.072  -0.018  0.00  0.00    +0.001 A 
ATOM     26  C   UNL     1      -4.383  -2.419   0.032  0.00  0.00    +0.002 A 
ATOM     27  C   UNL     1      -3.066  -2.817   0.108  0.00  0.00    +0.026 A 
ATOM     28  C   UNL     1      -2.055  -1.860   0.134  0.00  0.00    +0.047 A 
ATOM     29  C   UNL     1      -2.396  -0.498   0.083  0.00  0.00    +0.012 A 
ATOM     30  C   UNL     1      -3.735  -0.117   0.007  0.00  0.00    +0.011 A 
ATOM     31  C   UNL     1      -1.123   0.241   0.128  0.00  0.00    +0.063 A 
ATOM     32  C   UNL     1      -0.135  -0.689   0.195  0.00  0.00    +0.097 A 
ATOM     33  N   UNL     1      -0.681  -1.939   0.205  0.00  0.00    -0.360 N 
ATOM     34  H   UNL     1      -0.174  -2.765   0.251  0.00  0.00    +0.165 HD
ENDBRANCH  20  31
ENDBRANCH  19  23
ENDBRANCH   1  19
TORSDOF 4
