REMARK  Name = ZINC39674740
REMARK  8 active torsions:
REMARK  status: ('A' for Active; 'I' for Inactive)
REMARK    1  A    between atoms: C_1  and  C_2
REMARK    2  A    between atoms: C_4  and  C_9
REMARK    3  A    between atoms: C_13  and  C_22
REMARK    4  A    between atoms: N_24  and  C_25
REMARK    5  A    between atoms: C_25  and  C_26
REMARK    6  A    between atoms: C_26  and  C_27
REMARK    7  A    between atoms: C_30  and  C_38
REMARK    8  A    between atoms: C_35  and  C_37
REMARK                            x       y       z     vdW  Elec       q    Type
REMARK                         _______ _______ _______ _____ _____    ______ ____
ROOT
ATOM      1  C   UNL     1       0.028  -2.817  -2.481  0.00  0.00    +0.247 C 
ATOM      2  O   UNL     1      -0.094  -2.212  -3.529  0.00  0.00    -0.270 OA
ATOM      3  N   UNL     1       0.149  -4.159  -2.488  0.00  0.00    -0.296 N 
ATOM      4  C   UNL     1       0.178  -5.074  -1.322  0.00  0.00    +0.121 C 
ATOM      5  C   UNL     1      -0.643  -6.304  -1.771  0.00  0.00    +0.100 C 
ATOM      6  C   UNL     1      -0.569  -6.286  -3.307  0.00  0.00    -0.004 C 
ATOM      7  C   UNL     1       0.276  -5.054  -3.663  0.00  0.00    +0.115 C 
ATOM      8  C   UNL     1      -1.967  -6.148  -3.902  0.00  0.00    -0.010 C 
ATOM      9  C   UNL     1      -1.873  -6.191  -5.429  0.00  0.00    -0.082 C 
ATOM     10  N   UNL     1      -1.264  -7.458  -5.849  0.00  0.00    +0.379 N 
ATOM     11  C   UNL     1       0.114  -7.541  -5.350  0.00  0.00    -0.082 C 
ATOM     12  C   UNL     1       0.104  -7.556  -3.819  0.00  0.00    -0.010 C 
ATOM     13  H   UNL     1      -1.801  -8.227  -5.478  0.00  0.00    -0.086 HD
ATOM     14  H   UNL     1      -1.258  -7.510  -6.857  0.00  0.00    -0.086 HD
ENDROOT
BRANCH   1  18
ATOM     15  C   UNL     1      -1.212   1.205   0.197  0.00  0.00    +0.047 C 
ATOM     16  C   UNL     1      -0.552  -0.145   0.092  0.00  0.00    -0.015 A 
ATOM     17  C   UNL     1      -0.569  -0.829  -1.105  0.00  0.00    +0.019 A 
ATOM     18  C   UNL     1       0.044  -2.080  -1.201  0.00  0.00    +0.037 A 
ATOM     19  C   UNL     1       0.671  -2.632  -0.082  0.00  0.00    +0.016 A 
ATOM     20  C   UNL     1       0.682  -1.941   1.110  0.00  0.00    +0.039 A 
ATOM     21  C   UNL     1       0.077  -0.696   1.198  0.00  0.00    +0.126 A 
ATOM     22  F   UNL     1       0.096  -0.020   2.368  0.00  0.00    -0.205 F 
ENDBRANCH   1  18
BRANCH   5  23
ATOM     23  C   UNL     1      -0.031  -7.569  -1.228  0.00  0.00    +0.218 C 
ATOM     24  O   UNL     1       1.150  -7.603  -0.954  0.00  0.00    -0.275 OA
ATOM     25  N   UNL     1      -0.795  -8.665  -1.049  0.00  0.00    -0.315 N 
ATOM     26  H   UNL     1      -1.740  -8.638  -1.268  0.00  0.00    +0.149 HD
BRANCH  25  27
ATOM     27  C   UNL     1      -0.200  -9.895  -0.521  0.00  0.00    +0.108 C 
BRANCH  27  28
ATOM     28  C   UNL     1      -1.277 -10.977  -0.415  0.00  0.00    +0.052 C 
BRANCH  28  29
ATOM     29  C   UNL     1      -0.664 -12.243   0.127  0.00  0.00    -0.037 C 
ATOM     30  C   UNL     1       0.631 -12.435   0.485  0.00  0.00    +0.000 A 
ATOM     31  C   UNL     1       1.757 -11.570   0.467  0.00  0.00    +0.028 A 
ATOM     32  C   UNL     1       2.983 -12.026   0.891  0.00  0.00    +0.052 A 
ATOM     33  C   UNL     1       3.161 -13.394   1.366  0.00  0.00    +0.021 A 
ATOM     34  C   UNL     1       2.127 -14.260   1.406  0.00  0.00    +0.027 A 
ATOM     35  C   UNL     1       0.797 -13.825   0.964  0.00  0.00    +0.043 A 
ATOM     36  N   UNL     1      -0.345 -14.466   0.907  0.00  0.00    -0.378 N 
ATOM     37  C   UNL     1      -1.370 -13.554   0.389  0.00  0.00    +0.103 C 
ATOM     38  C   UNL     1      -1.955 -14.108  -0.911  0.00  0.00    +0.035 C 
ATOM     39  H   UNL     1      -0.488 -15.390   1.167  0.00  0.00    +0.160 HD
BRANCH  32  40
ATOM     40  C   UNL     1       4.108 -11.140   0.866  0.00  0.00    +0.099 C 
ATOM     41  N   UNL     1       5.000 -10.437   0.846  0.00  0.00    -0.191 NA
ENDBRANCH  32  40
ENDBRANCH  28  29
ENDBRANCH  27  28
ENDBRANCH  25  27
ENDBRANCH   5  23
TORSDOF 6
