REMARK  Name = ZINC19720110
REMARK  8 active torsions:
REMARK  status: ('A' for Active; 'I' for Inactive)
REMARK    1  A    between atoms: C_1  and  C_2
REMARK    2  A    between atoms: C_3  and  C_27
REMARK    3  A    between atoms: C_4  and  C_16
REMARK    4  A    between atoms: C_9  and  C_13
REMARK    5  A    between atoms: C_9  and  C_14
REMARK    6  A    between atoms: C_27  and  O_29
REMARK    7  A    between atoms: O_29  and  C_30
REMARK    8  A    between atoms: C_30  and  C_31
REMARK                            x       y       z     vdW  Elec       q    Type
REMARK                         _______ _______ _______ _____ _____    ______ ____
ROOT
ATOM      1  C   UNL     1      -0.018   1.503   0.010  0.00  0.00    +0.066 C 
ATOM      2  C   UNL     1       0.002  -0.004   0.002  0.00  0.00    +0.049 C 
ATOM      3  C   UNL     1      -1.185  -0.673   0.004  0.00  0.00    +0.070 C 
ATOM      4  C   UNL     1      -1.133  -2.190  -0.005  0.00  0.00    +0.099 C 
ATOM      5  C   UNL     1       0.255  -2.801  -0.016  0.00  0.00    +0.028 C 
ATOM      6  C   UNL     1       0.406  -4.137  -0.028  0.00  0.00    +0.162 C 
ATOM      7  C   UNL     1       1.773  -4.769  -0.038  0.00  0.00    +0.086 C 
ATOM      8  C   UNL     1       2.757  -3.832  -0.743  0.00  0.00    -0.023 C 
ATOM      9  C   UNL     1       2.756  -2.480  -0.024  0.00  0.00    +0.062 C 
ATOM     10  C   UNL     1       1.352  -1.924  -0.015  0.00  0.00    +0.049 C 
ATOM     11  N   UNL     1       1.174  -0.623  -0.013  0.00  0.00    -0.256 NA
ATOM     12  C   UNL     1       2.329  -3.639  -2.199  0.00  0.00    +0.011 C 
ATOM     13  C   UNL     1       4.163  -4.436  -0.696  0.00  0.00    +0.011 C 
ATOM     14  O   UNL     1      -0.686  -4.925  -0.030  0.00  0.00    -0.292 OA
ENDROOT
BRANCH   4  15
ATOM     15  C   UNL     1      -1.856  -2.694   1.218  0.00  0.00    +0.047 A 
ATOM     16  C   UNL     1      -2.926  -3.499   1.088  0.00  0.00    +0.204 A 
ATOM     17  O   UNL     1      -3.606  -3.976   2.136  0.00  0.00    -0.462 OA
ATOM     18  C   UNL     1      -3.270  -3.685   3.409  0.00  0.00    +0.138 A 
ATOM     19  C   UNL     1      -3.998  -4.198   4.476  0.00  0.00    +0.047 A 
ATOM     20  C   UNL     1      -3.634  -3.887   5.769  0.00  0.00    +0.004 A 
ATOM     21  C   UNL     1      -2.545  -3.064   6.020  0.00  0.00    +0.001 A 
ATOM     22  C   UNL     1      -1.810  -2.546   4.976  0.00  0.00    +0.015 A 
ATOM     23  C   UNL     1      -2.168  -2.853   3.665  0.00  0.00    +0.064 A 
ATOM     24  C   UNL     1      -1.408  -2.327   2.514  0.00  0.00    +0.197 A 
ATOM     25  O   UNL     1      -0.439  -1.603   2.671  0.00  0.00    -0.287 OA
ENDBRANCH   4  15
BRANCH   3  26
ATOM     26  C   UNL     1      -2.414   0.017   0.015  0.00  0.00    +0.338 C 
ATOM     27  O   UNL     1      -2.428   1.235   0.022  0.00  0.00    -0.245 OA
BRANCH  26  28
ATOM     28  O   UNL     1      -3.575  -0.671   0.017  0.00  0.00    -0.459 OA
BRANCH  28  29
ATOM     29  C   UNL     1      -4.782   0.093   0.028  0.00  0.00    +0.264 C 
BRANCH  29  30
ATOM     30  C   UNL     1      -5.985  -0.854   0.028  0.00  0.00    +0.156 C 
ATOM     31  C   UNL     1      -7.292  -0.040  -0.082  0.00  0.00    +0.037 C 
ATOM     32  C   UNL     1      -8.240  -0.806   0.881  0.00  0.00    +0.031 C 
ATOM     33  C   UNL     1      -7.240  -1.270   1.970  0.00  0.00    +0.160 C 
ATOM     34  O   UNL     1      -6.029  -1.582   1.261  0.00  0.00    -0.373 OA
ENDBRANCH  29  30
ENDBRANCH  28  29
ENDBRANCH  26  28
ENDBRANCH   3  26
TORSDOF 5
