REMARK  Name = ZINC49158864
REMARK  7 active torsions:
REMARK  status: ('A' for Active; 'I' for Inactive)
REMARK    1  A    between atoms: C_1  and  C_2
REMARK    2  A    between atoms: C_2  and  C_3
REMARK    3  A    between atoms: C_4  and  C_18
REMARK    4  A    between atoms: N_8  and  S_9
REMARK    5  A    between atoms: S_9  and  C_12
REMARK    6  A    between atoms: C_12  and  C_14
REMARK    7  A    between atoms: C_12  and  C_15
REMARK                            x       y       z     vdW  Elec       q    Type
REMARK                         _______ _______ _______ _____ _____    ______ ____
ROOT
ATOM      1  C   UNL     1      -1.412  -0.526   0.013  0.00  0.00    +0.027 A 
ATOM      2  C   UNL     1      -2.009  -0.849  -1.134  0.00  0.00    +0.009 A 
ATOM      3  S   UNL     1      -3.617  -1.394  -0.579  0.00  0.00    -0.053 S 
ATOM      4  C   UNL     1      -3.367  -1.146   1.172  0.00  0.00    +0.191 A 
ATOM      5  N   UNL     1      -2.074  -0.671   1.196  0.00  0.00    -0.336 N 
ATOM      6  N   UNL     1      -4.192  -1.363   2.167  0.00  0.00    -0.107 NA
ATOM      7  C   UNL     1      -1.468  -0.772  -2.538  0.00  0.00    +0.053 C 
ATOM      8  H   UNL     1      -1.645  -0.442   2.036  0.00  0.00    +0.168 HD
ENDROOT
BRANCH   6   9
ATOM      9  S   UNL     1      -5.711  -1.952   1.871  0.00  0.00    +0.085 S 
ATOM     10  O   UNL     1      -6.352  -0.936   1.112  0.00  0.00    -0.151 OA
ATOM     11  O   UNL     1      -5.497  -3.243   1.318  0.00  0.00    -0.151 OA
BRANCH   9  12
ATOM     12  C   UNL     1      -6.483  -2.092   3.506  0.00  0.00    +0.264 C 
ATOM     13  C   UNL     1      -5.600  -2.948   4.416  0.00  0.00    +0.046 C 
BRANCH  12  14
ATOM     14  C   UNL     1      -7.838  -2.739   3.368  0.00  0.00    +0.382 C 
ATOM     15  O   UNL     1      -8.071  -3.469   2.420  0.00  0.00    -0.244 OA
ATOM     16  O   UNL     1      -8.700  -2.532   4.205  0.00  0.00    -0.244 OA
ENDBRANCH  12  14
ENDBRANCH   9  12
ENDBRANCH   6   9
BRANCH   1  18
ATOM     17  C   UNL     1      -0.019   1.526   0.010  0.00  0.00    +0.010 C 
ATOM     18  C   UNL     1       0.002  -0.004   0.002  0.00  0.00    +0.050 C 
ENDBRANCH   1  18
TORSDOF 4
