REMARK  Name = ZINC02922750
REMARK  11 active torsions:
REMARK  status: ('A' for Active; 'I' for Inactive)
REMARK    1  A    between atoms: C_1  and  C_2
REMARK    2  A    between atoms: C_2  and  O_3
REMARK    3  A    between atoms: O_3  and  C_4
REMARK    4  A    between atoms: C_4  and  C_6
REMARK    5  A    between atoms: C_6  and  C_8
REMARK    6  A    between atoms: C_6  and  N_20
REMARK    7  A    between atoms: C_8  and  C_10
REMARK    8  A    between atoms: C_8  and  O_19
REMARK    9  A    between atoms: C_14  and  N_16
REMARK   10  A    between atoms: N_20  and  S_21
REMARK   11  A    between atoms: S_21  and  C_24
REMARK                            x       y       z     vdW  Elec       q    Type
REMARK                         _______ _______ _______ _____ _____    ______ ____
ROOT
ATOM      1  N   UNL     1       4.134   4.948  -1.458  0.00  0.00    -0.173 NA
ATOM      2  H   UNL     1       4.772   4.904  -0.728  0.00  0.00    +0.149 HD
ENDROOT
BRANCH   1   3
ATOM      3  S   UNL     1       4.393   5.983  -2.724  0.00  0.00    +0.059 S 
ATOM      4  O   UNL     1       5.600   6.677  -2.439  0.00  0.00    -0.153 OA
ATOM      5  O   UNL     1       4.211   5.226  -3.912  0.00  0.00    -0.153 OA
BRANCH   3   6
ATOM      6  C   UNL     1       3.103   7.183  -2.688  0.00  0.00    +0.106 A 
ATOM      7  C   UNL     1       3.266   8.349  -1.966  0.00  0.00    +0.029 A 
ATOM      8  C   UNL     1       2.259   9.300  -1.931  0.00  0.00    +0.011 A 
ATOM      9  C   UNL     1       1.075   9.084  -2.623  0.00  0.00    -0.006 A 
ATOM     10  C   UNL     1       0.910   7.899  -3.358  0.00  0.00    +0.032 A 
ATOM     11  C   UNL     1       1.930   6.955  -3.389  0.00  0.00    +0.040 A 
ATOM     12  C   UNL     1      -0.432   7.938  -3.987  0.00  0.00    +0.194 C 
ATOM     13  O   UNL     1      -0.921   7.083  -4.696  0.00  0.00    -0.287 OA
ATOM     14  C   UNL     1      -1.062   9.218  -3.587  0.00  0.00    +0.030 A 
ATOM     15  C   UNL     1      -0.154   9.907  -2.767  0.00  0.00    -0.006 A 
ATOM     16  C   UNL     1      -0.503  11.148  -2.252  0.00  0.00    +0.009 A 
ATOM     17  C   UNL     1      -1.739  11.700  -2.550  0.00  0.00    +0.001 A 
ATOM     18  C   UNL     1      -2.632  11.022  -3.357  0.00  0.00    +0.001 A 
ATOM     19  C   UNL     1      -2.299   9.782  -3.878  0.00  0.00    +0.012 A 
ENDBRANCH   3   6
ENDBRANCH   1   3
BRANCH   1  20
ATOM     20  C   UNL     1       2.941   4.098  -1.440  0.00  0.00    +0.217 C 
BRANCH  20  21
ATOM     21  C   UNL     1       3.280   2.744  -2.009  0.00  0.00    +0.329 C 
ATOM     22  O   UNL     1       4.402   2.513  -2.391  0.00  0.00    -0.249 OA
BRANCH  21  23
ATOM     23  O   UNL     1       2.334   1.795  -2.092  0.00  0.00    -0.464 OA
BRANCH  23  25
ATOM     24  C   UNL     1       1.530  -0.431  -2.664  0.00  0.00    +0.048 C 
ATOM     25  C   UNL     1       2.732   0.515  -2.651  0.00  0.00    +0.229 C 
ENDBRANCH  23  25
ENDBRANCH  21  23
ENDBRANCH  20  21
BRANCH  20  26
ATOM     26  C   UNL     1       2.451   3.937   0.001  0.00  0.00    +0.174 C 
BRANCH  26  27
ATOM     27  C   UNL     1       1.156   3.166   0.008  0.00  0.00    -0.015 A 
ATOM     28  C   UNL     1       1.175   1.783   0.000  0.00  0.00    +0.006 A 
ATOM     29  C   UNL     1      -0.013   1.076   0.008  0.00  0.00    +0.003 A 
ATOM     30  C   UNL     1      -1.219   1.751   0.017  0.00  0.00    +0.033 A 
ATOM     31  C   UNL     1      -1.238   3.133   0.029  0.00  0.00    +0.127 A 
ATOM     32  C   UNL     1      -0.050   3.840   0.023  0.00  0.00    +0.039 A 
BRANCH  31  33
ATOM     33  N   UNL     1      -2.530   3.855   0.044  0.00  0.00    +0.056 N 
ATOM     34  O   UNL     1      -2.546   5.073   0.051  0.00  0.00    -0.126 OA
ATOM     35  O   UNL     1      -3.576   3.232   0.050  0.00  0.00    -0.126 OA
ENDBRANCH  31  33
ENDBRANCH  26  27
BRANCH  26  36
ATOM     36  O   UNL     1       3.432   3.228   0.761  0.00  0.00    -0.385 OA
ATOM     37  H   UNL     1       3.625   2.342   0.425  0.00  0.00    +0.210 HD
ENDBRANCH  26  36
ENDBRANCH  20  26
ENDBRANCH   1  20
TORSDOF 10
