REMARK  Name = ZINC05381576
REMARK  6 active torsions:
REMARK  status: ('A' for Active; 'I' for Inactive)
REMARK    1  A    between atoms: C_1  and  C_2
REMARK    2  A    between atoms: C_2  and  C_17
REMARK    3  A    between atoms: N_3  and  N_4
REMARK    4  A    between atoms: C_5  and  C_7
REMARK    5  A    between atoms: C_7  and  C_8
REMARK    6  A    between atoms: C_11  and  N_14
REMARK                            x       y       z     vdW  Elec       q    Type
REMARK                         _______ _______ _______ _____ _____    ______ ____
ROOT
ATOM      1  N   UNL     1       1.143   1.899   0.001  0.00  0.00    -0.206 N 
ATOM      2  C   UNL     1      -0.014   1.209   0.009  0.00  0.00    +0.237 C 
ATOM      3  O   UNL     1       0.002  -0.004   0.002  0.00  0.00    -0.274 OA
ATOM      4  H   UNL     1       1.130   2.869   0.007  0.00  0.00    +0.177 HD
ENDROOT
BRANCH   1   7
ATOM      5  C   UNL     1       3.461   3.386  -0.013  0.00  0.00    +0.068 C 
ATOM      6  C   UNL     1       3.481   1.879  -0.021  0.00  0.00    +0.063 C 
ATOM      7  N   UNL     1       2.366   1.215  -0.014  0.00  0.00    -0.185 NA
BRANCH   6   8
ATOM      8  C   UNL     1       4.768   1.159  -0.037  0.00  0.00    +0.001 A 
ATOM      9  C   UNL     1       5.969   1.872  -0.045  0.00  0.00    +0.013 A 
ATOM     10  C   UNL     1       7.171   1.197  -0.060  0.00  0.00    +0.050 A 
ATOM     11  C   UNL     1       7.193  -0.190  -0.068  0.00  0.00    +0.166 A 
ATOM     12  C   UNL     1       5.997  -0.908  -0.061  0.00  0.00    +0.167 A 
ATOM     13  C   UNL     1       4.789  -0.238  -0.039  0.00  0.00    +0.059 A 
ATOM     14  O   UNL     1       6.290  -2.242  -0.071  0.00  0.00    -0.453 OA
ATOM     15  C   UNL     1       7.670  -2.336   0.327  0.00  0.00    +0.466 C 
ATOM     16  O   UNL     1       8.232  -1.076  -0.084  0.00  0.00    -0.453 OA
ENDBRANCH   6   8
ENDBRANCH   1   7
BRANCH   2  17
ATOM     17  C   UNL     1      -1.330   1.945   0.019  0.00  0.00    +0.132 C 
BRANCH  17  18
ATOM     18  C   UNL     1      -2.462   0.950   0.019  0.00  0.00    -0.038 A 
ATOM     19  C   UNL     1      -2.990   0.504  -1.178  0.00  0.00    +0.006 A 
ATOM     20  C   UNL     1      -4.026  -0.411  -1.178  0.00  0.00    +0.033 A 
ATOM     21  C   UNL     1      -4.539  -0.875   0.019  0.00  0.00    +0.126 A 
ATOM     22  C   UNL     1      -4.013  -0.425   1.216  0.00  0.00    +0.033 A 
ATOM     23  C   UNL     1      -2.975   0.487   1.216  0.00  0.00    +0.006 A 
BRANCH  21  24
ATOM     24  N   UNL     1      -5.651  -1.852   0.019  0.00  0.00    +0.056 N 
ATOM     25  O   UNL     1      -6.103  -2.260   1.074  0.00  0.00    -0.126 OA
ATOM     26  O   UNL     1      -6.114  -2.247  -1.036  0.00  0.00    -0.126 OA
ENDBRANCH  21  24
ENDBRANCH  17  18
ENDBRANCH   2  17
TORSDOF 5
