REMARK  Name = ZINC58961177
REMARK  9 active torsions:
REMARK  status: ('A' for Active; 'I' for Inactive)
REMARK    1  A    between atoms: C_1  and  C_2
REMARK    2  A    between atoms: C_5  and  C_8
REMARK    3  A    between atoms: C_10  and  C_29
REMARK    4  A    between atoms: C_12  and  S_14
REMARK    5  A    between atoms: S_14  and  C_15
REMARK    6  A    between atoms: C_15  and  C_17
REMARK    7  A    between atoms: C_15  and  C_18
REMARK    8  A    between atoms: N_20  and  C_21
REMARK    9  A    between atoms: C_26  and  O_27
REMARK                            x       y       z     vdW  Elec       q    Type
REMARK                         _______ _______ _______ _____ _____    ______ ____
ROOT
ATOM      1  C   UNL     1       0.117  -4.268  -0.007  0.00  0.00    +0.076 A 
ATOM      2  C   UNL     1       0.129  -4.987   1.191  0.00  0.00    +0.060 A 
ATOM      3  C   UNL     1       0.139  -6.369   1.131  0.00  0.00    +0.148 A 
ATOM      4  N   UNL     1       0.137  -6.965  -0.051  0.00  0.00    -0.218 NA
ATOM      5  C   UNL     1       0.125  -6.258  -1.172  0.00  0.00    +0.190 A 
ATOM      6  N   UNL     1       0.110  -4.934  -1.159  0.00  0.00    -0.222 NA
ENDROOT
BRANCH   1  11
ATOM      7  C   UNL     1       0.072   1.491   0.040  0.00  0.00    +0.044 C 
ATOM      8  C   UNL     1       0.084  -0.016   0.028  0.00  0.00    -0.050 A 
ATOM      9  C   UNL     1       0.077  -0.695  -1.177  0.00  0.00    +0.004 A 
ATOM     10  C   UNL     1       0.088  -2.075  -1.194  0.00  0.00    +0.010 A 
ATOM     11  C   UNL     1       0.106  -2.785   0.005  0.00  0.00    +0.001 A 
ATOM     12  C   UNL     1       0.113  -2.095   1.216  0.00  0.00    +0.010 A 
ATOM     13  C   UNL     1       0.107  -0.715   1.222  0.00  0.00    +0.004 A 
ENDBRANCH   1  11
BRANCH   3  14
ATOM     14  C   UNL     1       0.153  -7.187   2.396  0.00  0.00    +0.434 C 
ATOM     15  F   UNL     1      -1.161  -7.450   2.796  0.00  0.00    -0.164 F 
ATOM     16  F   UNL     1       0.820  -8.394   2.164  0.00  0.00    -0.164 F 
ATOM     17  F   UNL     1       0.814  -6.475   3.404  0.00  0.00    -0.164 F 
ENDBRANCH   3  14
BRANCH   5  18
ATOM     18  S   UNL     1       0.123  -7.101  -2.719  0.00  0.00    -0.074 S 
BRANCH  18  19
ATOM     19  C   UNL     1       0.139  -8.857  -2.262  0.00  0.00    +0.137 C 
ATOM     20  C   UNL     1       1.453  -9.186  -1.551  0.00  0.00    +0.029 C 
BRANCH  19  21
ATOM     21  C   UNL     1       0.015  -9.700  -3.505  0.00  0.00    +0.230 C 
ATOM     22  O   UNL     1       0.370  -9.258  -4.577  0.00  0.00    -0.274 OA
ATOM     23  N   UNL     1      -0.491 -10.947  -3.425  0.00  0.00    -0.282 N 
ATOM     24  H   UNL     1      -0.715 -11.325  -2.560  0.00  0.00    +0.155 HD
BRANCH  23  25
ATOM     25  C   UNL     1      -0.693 -11.697  -4.591  0.00  0.00    +0.077 A 
ATOM     26  C   UNL     1       0.183 -11.572  -5.659  0.00  0.00    +0.047 A 
ATOM     27  C   UNL     1      -0.019 -12.314  -6.809  0.00  0.00    +0.043 A 
ATOM     28  C   UNL     1      -1.094 -13.180  -6.897  0.00  0.00    +0.023 A 
ATOM     29  C   UNL     1      -1.971 -13.309  -5.836  0.00  0.00    +0.049 A 
ATOM     30  C   UNL     1      -1.772 -12.574  -4.679  0.00  0.00    +0.138 A 
ATOM     31 CL   UNL     1       1.079 -12.157  -8.145  0.00  0.00    -0.083 Cl
BRANCH  30  32
ATOM     32  O   UNL     1      -2.631 -12.704  -3.633  0.00  0.00    -0.505 OA
ATOM     33  H   UNL     1      -3.380 -12.093  -3.660  0.00  0.00    +0.292 HD
ENDBRANCH  30  32
ENDBRANCH  23  25
ENDBRANCH  19  21
ENDBRANCH  18  19
ENDBRANCH   5  18
TORSDOF 7
