REMARK  Name = ZINC39710579
REMARK  13 active torsions:
REMARK  status: ('A' for Active; 'I' for Inactive)
REMARK    1  A    between atoms: C_1  and  C_2
REMARK    2  A    between atoms: C_2  and  C_3
REMARK    3  A    between atoms: C_10  and  C_15
REMARK    4  A    between atoms: C_15  and  C_17
REMARK    5  A    between atoms: C_15  and  N_26
REMARK    6  A    between atoms: N_21  and  C_22
REMARK    7  A    between atoms: C_22  and  C_23
REMARK    8  A    between atoms: C_23  and  O_24
REMARK    9  A    between atoms: O_24  and  C_25
REMARK   10  A    between atoms: N_26  and  C_27
REMARK   11  A    between atoms: N_26  and  C_35
REMARK   12  A    between atoms: C_27  and  C_28
REMARK   13  A    between atoms: C_35  and  C_36
REMARK                            x       y       z     vdW  Elec       q    Type
REMARK                         _______ _______ _______ _____ _____    ______ ____
ROOT
ATOM      1  C   UNL     1      -6.452  -1.013  -2.793  0.00  0.00    +0.019 C 
ENDROOT
BRANCH   1   9
ATOM      2  C   UNL     1      -1.814  -0.224   0.660  0.00  0.00    -0.047 A 
ATOM      3  C   UNL     1      -2.576  -0.427   1.811  0.00  0.00    +0.005 A 
ATOM      4  C   UNL     1      -3.838  -0.927   1.775  0.00  0.00    +0.024 A 
ATOM      5  C   UNL     1      -4.437  -1.267   0.548  0.00  0.00    +0.040 A 
ATOM      6  N   UNL     1      -5.677  -1.757   0.526  0.00  0.00    -0.285 N 
ATOM      7  C   UNL     1      -6.298  -2.098  -0.591  0.00  0.00    +0.223 C 
ATOM      8  O   UNL     1      -7.431  -2.540  -0.549  0.00  0.00    -0.275 OA
ATOM      9  C   UNL     1      -5.596  -1.934  -1.920  0.00  0.00    +0.092 C 
ATOM     10  C   UNL     1      -4.186  -1.377  -1.900  0.00  0.00    -0.006 C 
ATOM     11  C   UNL     1      -3.656  -1.064  -0.683  0.00  0.00    -0.007 A 
ATOM     12  C   UNL     1      -2.303  -0.516  -0.573  0.00  0.00    +0.013 A 
ATOM     13  H   UNL     1      -6.145  -1.870   1.368  0.00  0.00    +0.155 HD
BRANCH   2  15
ATOM     14  C   UNL     1      -0.478   1.864   0.723  0.00  0.00    +0.009 C 
ATOM     15  C   UNL     1      -0.421   0.337   0.786  0.00  0.00    +0.032 C 
ENDBRANCH   2  15
ENDBRANCH   1   9
BRANCH   1  16
ATOM     16  C   UNL     1      -6.705   0.279  -2.061  0.00  0.00    +0.139 A 
ATOM     17  N   UNL     1      -7.530   0.462  -1.058  0.00  0.00    -0.115 NA
ATOM     18  N   UNL     1      -7.463   1.700  -0.709  0.00  0.00    -0.023 NA
ATOM     19  N   UNL     1      -6.618   2.312  -1.463  0.00  0.00    -0.044 NA
ATOM     20  N   UNL     1      -6.125   1.469  -2.306  0.00  0.00    -0.229 N 
BRANCH  20  21
ATOM     21  C   UNL     1      -5.125   1.753  -3.338  0.00  0.00    +0.175 C 
BRANCH  21  22
ATOM     22  C   UNL     1      -5.830   2.174  -4.629  0.00  0.00    +0.183 C 
BRANCH  22  23
ATOM     23  O   UNL     1      -4.854   2.451  -5.636  0.00  0.00    -0.381 OA
ATOM     24  C   UNL     1      -5.410   2.854  -6.889  0.00  0.00    +0.194 C 
ENDBRANCH  22  23
ENDBRANCH  21  22
ENDBRANCH  20  21
ENDBRANCH   1  16
BRANCH   1  25
ATOM     25  N   UNL     1      -7.733  -1.669  -3.087  0.00  0.00    +0.394 N 
ATOM     26  H   UNL     1      -8.212  -1.874  -2.224  0.00  0.00    -0.080 HD
BRANCH  25  27
ATOM     27  C   UNL     1      -7.486  -2.919  -3.819  0.00  0.00    -0.041 C 
BRANCH  27  28
ATOM     28  C   UNL     1      -6.659  -2.628  -5.045  0.00  0.00    -0.064 A 
ATOM     29  C   UNL     1      -7.275  -2.220  -6.213  0.00  0.00    +0.004 A 
ATOM     30  C   UNL     1      -6.518  -1.953  -7.338  0.00  0.00    +0.038 A 
ATOM     31  C   UNL     1      -5.141  -2.094  -7.294  0.00  0.00    +0.123 A 
ATOM     32  C   UNL     1      -4.525  -2.502  -6.123  0.00  0.00    +0.038 A 
ATOM     33  C   UNL     1      -5.284  -2.764  -4.998  0.00  0.00    +0.004 A 
ATOM     34  F   UNL     1      -4.399  -1.833  -8.393  0.00  0.00    -0.205 F 
ENDBRANCH  27  28
ENDBRANCH  25  27
BRANCH  25  35
ATOM     35  C   UNL     1      -8.562  -0.777  -3.908  0.00  0.00    -0.002 C 
BRANCH  35  36
ATOM     36  C   UNL     1      -9.930  -1.384  -4.084  0.00  0.00    +0.089 A 
ATOM     37  C   UNL     1     -11.011  -1.121  -3.328  0.00  0.00    +0.042 A 
ATOM     38  C   UNL     1     -12.071  -1.904  -3.842  0.00  0.00    +0.041 A 
ATOM     39  C   UNL     1     -11.574  -2.598  -4.881  0.00  0.00    +0.195 A 
ATOM     40  O   UNL     1     -10.278  -2.275  -5.027  0.00  0.00    -0.470 OA
ENDBRANCH  35  36
ENDBRANCH  25  35
ENDBRANCH   1  25
TORSDOF 11
