REMARK  Name = ZINC05413147
REMARK  6 active torsions:
REMARK  status: ('A' for Active; 'I' for Inactive)
REMARK    1  A    between atoms: C_7  and  C_11
REMARK    2  A    between atoms: C_11  and  N_12
REMARK    3  A    between atoms: N_12  and  C_13
REMARK    4  A    between atoms: C_23  and  N_25
REMARK    5  A    between atoms: C_27  and  C_30
REMARK    6  A    between atoms: C_30  and  C_31
REMARK                            x       y       z     vdW  Elec       q    Type
REMARK                         _______ _______ _______ _____ _____    ______ ____
ROOT
ATOM      1  C   UNL     1      -0.754  -4.653  -1.378  0.00  0.00    -0.013 C 
ATOM      2  C   UNL     1      -2.045  -4.315  -0.601  0.00  0.00    +0.147 C 
ATOM      3  O   UNL     1      -3.103  -4.963  -1.342  0.00  0.00    -0.373 OA
ATOM      4  C   UNL     1      -2.779  -4.745  -2.729  0.00  0.00    +0.172 C 
ATOM      5  C   UNL     1      -1.240  -4.962  -2.813  0.00  0.00    +0.137 C 
ATOM      6  O   UNL     1      -1.032  -6.352  -3.076  0.00  0.00    -0.373 OA
ATOM      7  C   UNL     1      -2.232  -6.973  -3.534  0.00  0.00    +0.189 C 
ATOM      8  C   UNL     1      -3.357  -5.894  -3.578  0.00  0.00    +0.165 C 
ENDROOT
BRANCH   8   9
ATOM      9  N   UNL     1      -3.592  -5.448  -4.954  0.00  0.00    -0.244 N 
ATOM     10  C   UNL     1      -2.676  -5.433  -5.949  0.00  0.00    +0.134 A 
ATOM     11  C   UNL     1      -3.315  -4.950  -7.041  0.00  0.00    +0.083 A 
ATOM     12  N   UNL     1      -4.573  -4.697  -6.665  0.00  0.00    -0.134 NA
ATOM     13  N   UNL     1      -4.707  -5.008  -5.424  0.00  0.00    -0.065 NA
BRANCH  11  14
ATOM     14  C   UNL     1      -2.724  -4.739  -8.411  0.00  0.00    +0.062 C 
BRANCH  14  15
ATOM     15  C   UNL     1      -3.564  -5.485  -9.450  0.00  0.00    -0.005 C 
ATOM     16  C   UNL     1      -3.470  -6.991  -9.196  0.00  0.00    +0.004 C 
ATOM     17  C   UNL     1      -4.311  -7.737 -10.234  0.00  0.00    +0.000 C 
ATOM     18  C   UNL     1      -3.786  -7.422 -11.636  0.00  0.00    +0.000 C 
ATOM     19  C   UNL     1      -3.880  -5.916 -11.890  0.00  0.00    +0.000 C 
ATOM     20  C   UNL     1      -3.039  -5.171 -10.852  0.00  0.00    +0.004 C 
ENDBRANCH  14  15
ENDBRANCH  11  14
ENDBRANCH   8   9
BRANCH   1  21
ATOM     21  N   UNL     1       0.160  -3.502  -1.381  0.00  0.00    +0.387 N 
ATOM     22  H   UNL     1      -0.335  -2.681  -1.697  0.00  0.00    -0.085 HD
ATOM     23  H   UNL     1       0.933  -3.689  -2.002  0.00  0.00    -0.085 HD
BRANCH  21  24
ATOM     24  C   UNL     1       0.666  -3.275  -0.021  0.00  0.00    -0.044 C 
BRANCH  24  31
ATOM     25  C   UNL     1      -0.017   1.362   0.009  0.00  0.00    +0.001 A 
ATOM     26  C   UNL     1       1.170   2.083   0.002  0.00  0.00    +0.002 A 
ATOM     27  C   UNL     1       2.386   1.436  -0.013  0.00  0.00    +0.026 A 
ATOM     28  C   UNL     1       2.428   0.046  -0.021  0.00  0.00    +0.047 A 
ATOM     29  C   UNL     1       1.223  -0.681  -0.013  0.00  0.00    +0.001 A 
ATOM     30  C   UNL     1       0.002  -0.004   0.002  0.00  0.00    +0.010 A 
ATOM     31  C   UNL     1       1.604  -2.095  -0.025  0.00  0.00    -0.039 A 
ATOM     32  C   UNL     1       2.945  -2.141  -0.038  0.00  0.00    +0.085 A 
ATOM     33  N   UNL     1       3.455  -0.871  -0.036  0.00  0.00    -0.360 N 
ATOM     34  H   UNL     1       4.399  -0.650  -0.044  0.00  0.00    +0.165 HD
ENDBRANCH  24  31
ENDBRANCH  21  24
ENDBRANCH   1  21
TORSDOF 6
