REMARK  Name = ZINC05957200
REMARK  4 active torsions:
REMARK  status: ('A' for Active; 'I' for Inactive)
REMARK    1  A    between atoms: C_4  and  C_7
REMARK    2  A    between atoms: N_9  and  C_29
REMARK    3  A    between atoms: C_12  and  C_14
REMARK    4  A    between atoms: C_17  and  C_22
REMARK                            x       y       z     vdW  Elec       q    Type
REMARK                         _______ _______ _______ _____ _____    ______ ____
ROOT
ATOM      1  C   UNL     1       0.004   5.415   0.074  0.00  0.00    +0.080 C 
ATOM      2  N   UNL     1       0.993   6.245   0.175  0.00  0.00    -0.176 NA
ATOM      3  N   UNL     1       0.586   7.575   0.124  0.00  0.00    -0.160 N 
ATOM      4  C   UNL     1      -0.753   7.673  -0.009  0.00  0.00    +0.249 C 
ATOM      5  O   UNL     1      -1.413   8.688  -0.078  0.00  0.00    -0.273 OA
ATOM      6  C   UNL     1      -1.257   6.244  -0.054  0.00  0.00    +0.140 C 
ENDROOT
BRANCH   6   7
ATOM      7  C   UNL     1      -2.202   5.969   1.118  0.00  0.00    +0.100 C 
ATOM      8  C   UNL     1      -3.540   6.669   0.870  0.00  0.00    +0.071 C 
ATOM      9  C   UNL     1      -3.378   8.154   1.055  0.00  0.00    +0.067 C 
ATOM     10  N   UNL     1      -2.552   8.633   1.926  0.00  0.00    -0.184 NA
ATOM     11  N   UNL     1      -1.755   7.800   2.714  0.00  0.00    -0.206 N 
ATOM     12  C   UNL     1      -1.593   6.501   2.392  0.00  0.00    +0.237 C 
ATOM     13  O   UNL     1      -0.963   5.763   3.120  0.00  0.00    -0.274 OA
ATOM     14  H   UNL     1      -1.253   8.201   3.607  0.00  0.00    +0.177 HD
BRANCH   9  15
ATOM     15  C   UNL     1      -4.176   9.079   0.228  0.00  0.00    -0.002 A 
ATOM     16  C   UNL     1      -5.161   8.581  -0.628  0.00  0.00    +0.011 A 
ATOM     17  C   UNL     1      -5.908   9.451  -1.394  0.00  0.00    +0.020 A 
ATOM     18  C   UNL     1      -5.674  10.815  -1.325  0.00  0.00    +0.041 A 
ATOM     19  C   UNL     1      -4.695  11.314  -0.482  0.00  0.00    +0.020 A 
ATOM     20  C   UNL     1      -3.946  10.455   0.294  0.00  0.00    +0.011 A 
ATOM     21 CL   UNL     1      -6.613  11.903  -2.299  0.00  0.00    -0.084 Cl
ENDBRANCH   9  15
ENDBRANCH   6   7
BRANCH   1  25
ATOM     22  C   UNL     1       0.250   1.178   0.114  0.00  0.00    +0.000 A 
ATOM     23  C   UNL     1      -0.957   1.795  -0.163  0.00  0.00    +0.001 A 
ATOM     24  C   UNL     1      -1.045   3.172  -0.173  0.00  0.00    +0.010 A 
ATOM     25  C   UNL     1       0.090   3.943   0.088  0.00  0.00    -0.001 A 
ATOM     26  C   UNL     1       1.306   3.313   0.361  0.00  0.00    +0.010 A 
ATOM     27  C   UNL     1       1.379   1.936   0.372  0.00  0.00    +0.001 A 
ENDBRANCH   1  25
BRANCH   3  28
ATOM     28  C   UNL     1       1.454   8.670   0.206  0.00  0.00    +0.060 A 
ATOM     29  C   UNL     1       0.950   9.963   0.146  0.00  0.00    +0.025 A 
ATOM     30  C   UNL     1       1.809  11.042   0.232  0.00  0.00    +0.002 A 
ATOM     31  C   UNL     1       3.170  10.835   0.367  0.00  0.00    +0.000 A 
ATOM     32  C   UNL     1       3.675   9.549   0.423  0.00  0.00    +0.002 A 
ATOM     33  C   UNL     1       2.821   8.466   0.343  0.00  0.00    +0.025 A 
ENDBRANCH   3  28
TORSDOF 4
