REMARK  Name = ZINC39668201
REMARK  6 active torsions:
REMARK  status: ('A' for Active; 'I' for Inactive)
REMARK    1  A    between atoms: C_3  and  O_33
REMARK    2  A    between atoms: C_6  and  C_7
REMARK    3  A    between atoms: C_11  and  C_20
REMARK    4  A    between atoms: N_22  and  C_23
REMARK    5  A    between atoms: C_23  and  C_24
REMARK    6  A    between atoms: O_33  and  C_34
REMARK                            x       y       z     vdW  Elec       q    Type
REMARK                         _______ _______ _______ _____ _____    ______ ____
ROOT
ATOM      1  C   UNL     1      -1.272  -0.762   0.013  0.00  0.00    +0.247 C 
ATOM      2  O   UNL     1      -2.331  -0.178   0.136  0.00  0.00    -0.270 OA
ATOM      3  N   UNL     1      -1.252  -2.106  -0.097  0.00  0.00    -0.296 N 
ATOM      4  C   UNL     1      -0.069  -2.997  -0.126  0.00  0.00    +0.121 C 
ATOM      5  C   UNL     1      -0.488  -4.229   0.708  0.00  0.00    +0.100 C 
ATOM      6  C   UNL     1      -2.025  -4.242   0.643  0.00  0.00    -0.004 C 
ATOM      7  C   UNL     1      -2.410  -3.025  -0.210  0.00  0.00    +0.115 C 
ATOM      8  C   UNL     1      -2.514  -5.528  -0.017  0.00  0.00    -0.010 C 
ATOM      9  C   UNL     1      -4.045  -5.545  -0.018  0.00  0.00    -0.082 C 
ATOM     10  N   UNL     1      -4.538  -5.461   1.363  0.00  0.00    +0.379 N 
ATOM     11  C   UNL     1      -4.141  -4.180   1.959  0.00  0.00    -0.082 C 
ATOM     12  C   UNL     1      -2.614  -4.106   2.044  0.00  0.00    -0.010 C 
ATOM     13  H   UNL     1      -5.545  -5.533   1.364  0.00  0.00    -0.086 HD
ATOM     14  H   UNL     1      -4.148  -6.218   1.904  0.00  0.00    -0.086 HD
ENDROOT
BRANCH   1  20
ATOM     15  C   UNL     1       1.118  -0.537  -0.646  0.00  0.00    +0.016 A 
ATOM     16  C   UNL     1       2.296   0.177  -0.672  0.00  0.00    +0.047 A 
ATOM     17  C   UNL     1       2.365   1.429  -0.072  0.00  0.00    +0.130 A 
ATOM     18  C   UNL     1       1.247   1.965   0.556  0.00  0.00    +0.047 A 
ATOM     19  C   UNL     1       0.066   1.258   0.586  0.00  0.00    +0.016 A 
ATOM     20  C   UNL     1      -0.008  -0.001  -0.016  0.00  0.00    +0.037 A 
BRANCH  17  21
ATOM     21  O   UNL     1       3.527   2.129  -0.099  0.00  0.00    -0.406 OA
BRANCH  21  22
ATOM     22  C   UNL     1       3.528   3.409   0.537  0.00  0.00    +0.575 C 
ATOM     23  F   UNL     1       3.212   3.257   1.891  0.00  0.00    -0.133 F 
ATOM     24  F   UNL     1       4.796   3.988   0.416  0.00  0.00    -0.133 F 
ATOM     25  F   UNL     1       2.578   4.234  -0.074  0.00  0.00    -0.133 F 
ENDBRANCH  21  22
ENDBRANCH  17  21
ENDBRANCH   1  20
BRANCH   5  26
ATOM     26  C   UNL     1      -0.022  -4.080   2.134  0.00  0.00    +0.218 C 
ATOM     27  O   UNL     1      -0.004  -2.985   2.655  0.00  0.00    -0.275 OA
ATOM     28  N   UNL     1       0.374  -5.165   2.830  0.00  0.00    -0.311 N 
ATOM     29  H   UNL     1       0.359  -6.040   2.413  0.00  0.00    +0.149 HD
BRANCH  28  30
ATOM     30  C   UNL     1       0.827  -5.020   4.215  0.00  0.00    +0.139 C 
BRANCH  30  31
ATOM     31  C   UNL     1       1.210  -6.371   4.762  0.00  0.00    -0.030 A 
ATOM     32  C   UNL     1       0.264  -7.159   5.391  0.00  0.00    +0.009 A 
ATOM     33  C   UNL     1       0.609  -8.398   5.889  0.00  0.00    +0.046 A 
ATOM     34  C   UNL     1       1.915  -8.867   5.762  0.00  0.00    +0.124 A 
ATOM     35  C   UNL     1       2.858  -8.063   5.135  0.00  0.00    -0.002 A 
ATOM     36  C   UNL     1       2.509  -6.830   4.630  0.00  0.00    +0.012 A 
ATOM     37  C   UNL     1       4.174  -8.815   5.166  0.00  0.00    +0.080 C 
ATOM     38  C   UNL     1       3.892  -9.910   6.222  0.00  0.00    +0.234 C 
ATOM     39  O   UNL     1       2.462 -10.047   6.164  0.00  0.00    -0.491 OA
ENDBRANCH  30  31
ENDBRANCH  28  30
ENDBRANCH   5  26
TORSDOF 6
