REMARK  Name = ZINC59856199
REMARK  9 active torsions:
REMARK  status: ('A' for Active; 'I' for Inactive)
REMARK    1  A    between atoms: C_1  and  C_2
REMARK    2  A    between atoms: C_4  and  C_24
REMARK    3  A    between atoms: C_5  and  C_9
REMARK    4  A    between atoms: C_6  and  C_8
REMARK    5  A    between atoms: C_9  and  S_10
REMARK    6  A    between atoms: S_10  and  C_11
REMARK    7  A    between atoms: C_14  and  C_17
REMARK    8  A    between atoms: N_15  and  C_16
REMARK    9  A    between atoms: C_20  and  N_23
REMARK                            x       y       z     vdW  Elec       q    Type
REMARK                         _______ _______ _______ _____ _____    ______ ____
ROOT
ATOM      1  C   UNL     1       1.649  -6.619  -0.142  0.00  0.00    +0.192 A 
ATOM      2  N   UNL     1       0.528  -7.280   0.040  0.00  0.00    -0.122 NA
ATOM      3  N   UNL     1       0.764  -8.542   0.101  0.00  0.00    -0.128 NA
ATOM      4  C   UNL     1       2.050  -8.764  -0.039  0.00  0.00    +0.165 A 
ATOM      5  N   UNL     1       2.656  -7.540  -0.205  0.00  0.00    -0.305 N 
ATOM      6  C   UNL     1       4.084  -7.279  -0.405  0.00  0.00    +0.153 C 
ENDROOT
BRANCH   4   7
ATOM      7  C   UNL     1       2.720 -10.082  -0.028  0.00  0.00    +0.019 A 
ATOM      8  C   UNL     1       4.096 -10.165   0.193  0.00  0.00    +0.013 A 
ATOM      9  C   UNL     1       4.718 -11.395   0.203  0.00  0.00    +0.023 A 
ATOM     10  C   UNL     1       3.976 -12.552  -0.006  0.00  0.00    +0.025 A 
ATOM     11  C   UNL     1       2.606 -12.473  -0.226  0.00  0.00    +0.023 A 
ATOM     12  C   UNL     1       1.977 -11.246  -0.231  0.00  0.00    +0.013 A 
BRANCH  10  13
ATOM     13  N   UNL     1       4.609 -13.796   0.005  0.00  0.00    -0.358 N 
ATOM     14  H   UNL     1       5.565 -13.853   0.158  0.00  0.00    +0.142 HD
ATOM     15  H   UNL     1       4.092 -14.604  -0.141  0.00  0.00    +0.142 HD
ENDBRANCH  10  13
ENDBRANCH   4   7
BRANCH   1  16
ATOM     16  S   UNL     1       1.820  -4.872  -0.286  0.00  0.00    -0.081 S 
BRANCH  16  17
ATOM     17  C   UNL     1       0.125  -4.249  -0.115  0.00  0.00    +0.113 C 
BRANCH  17  22
ATOM     18  C   UNL     1       0.137   1.516  -0.520  0.00  0.00    +0.044 C 
ATOM     19  C   UNL     1       0.134   0.012  -0.414  0.00  0.00    -0.050 A 
ATOM     20  C   UNL     1      -0.016  -0.760  -1.551  0.00  0.00    +0.007 A 
ATOM     21  C   UNL     1      -0.019  -2.139  -1.454  0.00  0.00    -0.046 A 
ATOM     22  C   UNL     1       0.129  -2.745  -0.221  0.00  0.00    -0.031 A 
ATOM     23  C   UNL     1       0.281  -1.973   0.916  0.00  0.00    -0.046 A 
ATOM     24  C   UNL     1       0.288  -0.594   0.818  0.00  0.00    +0.007 A 
ATOM     25  C   UNL     1       0.441  -2.634   2.260  0.00  0.00    +0.044 C 
ATOM     26  C   UNL     1      -0.184  -2.981  -2.693  0.00  0.00    +0.044 C 
ENDBRANCH  17  22
ENDBRANCH  16  17
ENDBRANCH   1  16
TORSDOF 5
