REMARK  Name = ZINC62563981
REMARK  9 active torsions:
REMARK  status: ('A' for Active; 'I' for Inactive)
REMARK    1  A    between atoms: C_1  and  O_2
REMARK    2  A    between atoms: O_2  and  C_3
REMARK    3  A    between atoms: C_3  and  C_5
REMARK    4  A    between atoms: C_12  and  C_17
REMARK    5  A    between atoms: C_17  and  S_18
REMARK    6  A    between atoms: S_18  and  C_19
REMARK    7  A    between atoms: C_22  and  C_31
REMARK    8  A    between atoms: N_23  and  C_24
REMARK    9  A    between atoms: C_31  and  N_32
REMARK                            x       y       z     vdW  Elec       q    Type
REMARK                         _______ _______ _______ _____ _____    ______ ____
ROOT
ATOM      1  C   UNL     1      -7.865  -6.723  -0.092  0.00  0.00    +0.196 A 
ATOM      2  N   UNL     1      -8.084  -8.015  -0.009  0.00  0.00    -0.122 NA
ATOM      3  N   UNL     1      -9.345  -8.240   0.087  0.00  0.00    -0.135 NA
ATOM      4  C   UNL     1     -10.004  -7.115   0.071  0.00  0.00    +0.122 A 
ATOM      5  N   UNL     1      -9.084  -6.106  -0.038  0.00  0.00    -0.276 N 
ENDROOT
BRANCH   5   6
ATOM      6  C   UNL     1      -9.340  -4.728  -0.088  0.00  0.00    +0.050 A 
ATOM      7  C   UNL     1      -9.849  -4.075   1.026  0.00  0.00    +0.029 A 
ATOM      8  C   UNL     1     -10.100  -2.718   0.975  0.00  0.00    +0.040 A 
ATOM      9  C   UNL     1      -9.844  -2.008  -0.186  0.00  0.00    +0.124 A 
ATOM     10  C   UNL     1      -9.336  -2.658  -1.299  0.00  0.00    +0.040 A 
ATOM     11  C   UNL     1      -9.079  -4.014  -1.250  0.00  0.00    +0.029 A 
ATOM     12  F   UNL     1     -10.091  -0.681  -0.234  0.00  0.00    -0.205 F 
ENDBRANCH   5   6
BRANCH   1  13
ATOM     13  S   UNL     1      -6.296  -5.933  -0.238  0.00  0.00    -0.078 S 
BRANCH  13  14
ATOM     14  C   UNL     1      -5.113  -7.308  -0.253  0.00  0.00    +0.151 C 
BRANCH  14  22
ATOM     15  C   UNL     1      -0.880  -3.002  -0.751  0.00  0.00    +0.061 A 
ATOM     16  C   UNL     1       0.237  -3.846  -0.786  0.00  0.00    +0.016 A 
ATOM     17  C   UNL     1       0.085  -5.201  -0.710  0.00  0.00    +0.016 A 
ATOM     18  C   UNL     1      -1.190  -5.752  -0.596  0.00  0.00    +0.065 A 
ATOM     19  C   UNL     1      -2.327  -4.914  -0.559  0.00  0.00    +0.079 A 
ATOM     20  C   UNL     1      -2.160  -3.530  -0.632  0.00  0.00    +0.043 A 
ATOM     21  N   UNL     1      -3.556  -5.477  -0.448  0.00  0.00    -0.233 NA
ATOM     22  C   UNL     1      -3.713  -6.763  -0.375  0.00  0.00    +0.121 A 
ATOM     23  N   UNL     1      -2.679  -7.644  -0.403  0.00  0.00    -0.310 N 
ATOM     24  H   UNL     1      -2.857  -8.596  -0.345  0.00  0.00    +0.170 HD
ATOM     25  C   UNL     1      -1.403  -7.207  -0.511  0.00  0.00    +0.259 A 
ATOM     26  O   UNL     1      -0.468  -7.985  -0.537  0.00  0.00    -0.267 OA
BRANCH  15  27
ATOM     27  C   UNL     1      -0.695  -1.536  -0.835  0.00  0.00    +0.339 C 
ATOM     28  O   UNL     1      -1.660  -0.799  -0.800  0.00  0.00    -0.245 OA
BRANCH  27  30
ATOM     29  C   UNL     1       0.647   0.404  -1.027  0.00  0.00    +0.280 C 
ATOM     30  O   UNL     1       0.543  -1.019  -0.951  0.00  0.00    -0.464 OA
ENDBRANCH  27  30
ENDBRANCH  15  27
ENDBRANCH  14  22
ENDBRANCH  13  14
ENDBRANCH   1  13
BRANCH   4  31
ATOM     31  C   UNL     1     -11.500  -6.955   0.163  0.00  0.00    -0.001 C 
BRANCH  31  32
ATOM     32  N   UNL     1     -12.064  -6.845  -1.189  0.00  0.00    +0.384 N 
ATOM     33  C   UNL     1     -11.859  -8.108  -1.908  0.00  0.00    -0.078 C 
ATOM     34  C   UNL     1     -12.372  -7.972  -3.343  0.00  0.00    -0.019 C 
ATOM     35  C   UNL     1     -13.866  -7.634  -3.316  0.00  0.00    -0.004 C 
ATOM     36  C   UNL     1     -14.075  -6.354  -2.501  0.00  0.00    -0.019 C 
ATOM     37  C   UNL     1     -13.499  -6.551  -1.097  0.00  0.00    -0.078 C 
ATOM     38  H   UNL     1     -11.600  -6.099  -1.686  0.00  0.00    -0.081 HD
ENDBRANCH  31  32
ENDBRANCH   4  31
TORSDOF 8
