REMARK  Name = ZINC61920869
REMARK  5 active torsions:
REMARK  status: ('A' for Active; 'I' for Inactive)
REMARK    1  A    between atoms: C_1  and  C_2
REMARK    2  A    between atoms: C_2  and  C_3
REMARK    3  A    between atoms: C_2  and  C_4
REMARK    4  A    between atoms: C_7  and  N_12
REMARK    5  A    between atoms: C_8  and  C_10
REMARK                            x       y       z     vdW  Elec       q    Type
REMARK                         _______ _______ _______ _____ _____    ______ ____
ROOT
ATOM      1  C   UNL     1       0.707  -0.490  -1.238  0.00  0.00    +0.132 A 
ATOM      2  N   UNL     1       0.228  -0.156  -2.419  0.00  0.00    -0.238 NA
ATOM      3  C   UNL     1       0.818  -0.562  -3.531  0.00  0.00    +0.137 A 
ATOM      4  C   UNL     1       1.960  -1.353  -3.440  0.00  0.00    +0.071 A 
ATOM      5  C   UNL     1       2.433  -1.683  -2.172  0.00  0.00    +0.080 A 
ATOM      6  N   UNL     1       1.788  -1.232  -1.109  0.00  0.00    -0.234 NA
ENDROOT
BRANCH   4   7
ATOM      7  N   UNL     1       2.614  -1.804  -4.589  0.00  0.00    -0.325 N 
ATOM      8  C   UNL     1       2.206  -3.094  -5.178  0.00  0.00    +0.107 C 
ATOM      9  C   UNL     1       2.147  -3.005  -6.710  0.00  0.00    +0.047 C 
ATOM     10  C   UNL     1       1.556  -1.671  -7.120  0.00  0.00    +0.161 C 
ATOM     11  O   UNL     1       2.613  -0.737  -7.292  0.00  0.00    -0.378 OA
ATOM     12  C   UNL     1       3.066  -0.017  -6.204  0.00  0.00    +0.178 C 
ATOM     13  C   UNL     1       3.665  -0.984  -5.162  0.00  0.00    +0.133 C 
ENDBRANCH   4   7
BRANCH   1  15
ATOM     14  C   UNL     1      -0.019   1.526   0.010  0.00  0.00    +0.015 C 
ATOM     15  C   UNL     1       0.002  -0.004   0.002  0.00  0.00    +0.051 C 
ATOM     16  C   UNL     1      -1.433  -0.534   0.013  0.00  0.00    +0.015 C 
ENDBRANCH   1  15
BRANCH   5  17
ATOM     17  C   UNL     1       3.665  -2.537  -2.015  0.00  0.00    +0.166 C 
ATOM     18 CL   UNL     1       5.125  -1.480  -1.949  0.00  0.00    -0.119 Cl
ENDBRANCH   5  17
TORSDOF 3
