REMARK  Name = ZINC38975139
REMARK  9 active torsions:
REMARK  status: ('A' for Active; 'I' for Inactive)
REMARK    1  A    between atoms: C_1  and  C_2
REMARK    2  A    between atoms: C_5  and  O_32
REMARK    3  A    between atoms: C_6  and  N_8
REMARK    4  A    between atoms: N_8  and  C_9
REMARK    5  A    between atoms: N_12  and  S_13
REMARK    6  A    between atoms: S_13  and  C_16
REMARK    7  A    between atoms: C_18  and  C_23
REMARK    8  A    between atoms: C_21  and  C_22
REMARK    9  A    between atoms: O_32  and  C_33
REMARK                            x       y       z     vdW  Elec       q    Type
REMARK                         _______ _______ _______ _____ _____    ______ ____
ROOT
ATOM      1  C   UNL     1       0.159  -2.072   3.668  0.00  0.00    +0.237 C 
ATOM      2  C   UNL     1       1.329  -2.650   4.431  0.00  0.00    +0.192 C 
ATOM      3  N   UNL     1       2.521  -2.651   3.909  0.00  0.00    -0.110 NA
ATOM      4  N   UNL     1       1.121  -3.162   5.654  0.00  0.00    -0.226 NA
ATOM      5  C   UNL     1      -0.075  -3.172   6.204  0.00  0.00    +0.089 A 
ATOM      6  C   UNL     1      -0.259  -3.721   7.498  0.00  0.00    +0.030 A 
ATOM      7  C   UNL     1      -1.484  -3.735   8.066  0.00  0.00    +0.002 A 
ATOM      8  C   UNL     1      -2.624  -3.220   7.427  0.00  0.00    +0.002 A 
ATOM      9  C   UNL     1      -2.561  -2.674   6.193  0.00  0.00    +0.027 A 
ATOM     10  C   UNL     1      -1.262  -2.621   5.505  0.00  0.00    +0.063 A 
ATOM     11  N   UNL     1      -1.163  -2.102   4.314  0.00  0.00    -0.359 N 
ATOM     12  H   UNL     1      -1.943  -1.742   3.863  0.00  0.00    +0.162 HD
ENDROOT
BRANCH   3  13
ATOM     13  S   UNL     1       3.794  -3.287   4.755  0.00  0.00    +0.101 S 
ATOM     14  O   UNL     1       3.990  -2.448   5.886  0.00  0.00    -0.146 OA
ATOM     15  O   UNL     1       3.547  -4.681   4.875  0.00  0.00    -0.146 OA
BRANCH  13  16
ATOM     16  C   UNL     1       5.228  -3.115   3.746  0.00  0.00    +0.116 A 
ATOM     17  C   UNL     1       6.266  -2.298   4.153  0.00  0.00    +0.032 A 
ATOM     18  C   UNL     1       7.391  -2.163   3.361  0.00  0.00    -0.049 A 
ATOM     19  C   UNL     1       7.478  -2.845   2.162  0.00  0.00    +0.004 A 
ATOM     20  C   UNL     1       6.441  -3.663   1.755  0.00  0.00    +0.005 A 
ATOM     21  C   UNL     1       5.317  -3.801   2.549  0.00  0.00    -0.024 A 
ATOM     22  C   UNL     1       4.188  -4.696   2.108  0.00  0.00    +0.046 C 
ATOM     23  C   UNL     1       8.523  -1.272   3.805  0.00  0.00    +0.044 C 
ENDBRANCH  13  16
ENDBRANCH   3  13
BRANCH   1  24
ATOM     24  N   UNL     1       0.052  -2.794   2.398  0.00  0.00    -0.315 N 
ATOM     25  H   UNL     1       0.029  -3.764   2.392  0.00  0.00    +0.149 HD
BRANCH  24  31
ATOM     26  C   UNL     1      -0.300   1.499   0.029  0.00  0.00    +0.044 C 
ATOM     27  C   UNL     1      -0.187  -0.003   0.014  0.00  0.00    -0.048 A 
ATOM     28  C   UNL     1      -0.151  -0.680  -1.191  0.00  0.00    +0.007 A 
ATOM     29  C   UNL     1      -0.047  -2.059  -1.211  0.00  0.00    +0.048 A 
ATOM     30  C   UNL     1       0.021  -2.766  -0.021  0.00  0.00    +0.141 A 
ATOM     31  C   UNL     1      -0.016  -2.085   1.193  0.00  0.00    +0.071 A 
ATOM     32  C   UNL     1      -0.115  -0.701   1.205  0.00  0.00    +0.030 A 
BRANCH  30  33
ATOM     33  O   UNL     1       0.122  -4.122  -0.040  0.00  0.00    -0.493 OA
ATOM     34  C   UNL     1       0.153  -4.754  -1.321  0.00  0.00    +0.277 C 
ENDBRANCH  30  33
ENDBRANCH  24  31
ENDBRANCH   1  24
TORSDOF 5
