REMARK  Name = ZINC13063719
REMARK  12 active torsions:
REMARK  status: ('A' for Active; 'I' for Inactive)
REMARK    1  A    between atoms: C_1  and  C_2
REMARK    2  A    between atoms: C_2  and  C_3
REMARK    3  A    between atoms: C_10  and  C_15
REMARK    4  A    between atoms: C_15  and  N_72
REMARK    5  A    between atoms: C_16  and  C_17
REMARK    6  A    between atoms: C_16  and  N_72
REMARK    7  A    between atoms: C_20  and  C_23
REMARK    8  A    between atoms: C_24  and  C_26
REMARK    9  A    between atoms: C_24  and  C_28
REMARK   10  A    between atoms: C_24  and  N_72
REMARK   11  A    between atoms: C_26  and  C_27
REMARK   12  A    between atoms: N_32  and  C_33
REMARK                            x       y       z     vdW  Elec       q    Type
REMARK                         _______ _______ _______ _____ _____    ______ ____
ROOT
ATOM      1  N   UNL     1      -2.944   4.581   1.836  0.00  0.00    +0.392 N 
ATOM      2  H   UNL     1      -2.977   3.877   2.583  0.00  0.00    -0.080 HD
ENDROOT
BRANCH   1   3
ATOM      3  C   UNL     1      -2.808   3.893   0.535  0.00  0.00    -0.036 C 
BRANCH   3  11
ATOM      4  C   UNL     1      -0.176  -1.632   1.445  0.00  0.00    -0.047 A 
ATOM      5  C   UNL     1       1.131  -1.220   1.224  0.00  0.00    +0.005 A 
ATOM      6  C   UNL     1       1.413   0.093   0.916  0.00  0.00    +0.026 A 
ATOM      7  C   UNL     1       0.377   1.017   0.824  0.00  0.00    +0.049 A 
ATOM      8  C   UNL     1      -0.947   0.596   1.049  0.00  0.00    -0.001 A 
ATOM      9  C   UNL     1      -1.209  -0.742   1.361  0.00  0.00    +0.013 A 
ATOM     10  C   UNL     1      -2.030   1.578   0.957  0.00  0.00    +0.017 A 
ATOM     11  C   UNL     1      -1.716   2.859   0.645  0.00  0.00    +0.001 A 
ATOM     12  C   UNL     1      -0.372   3.230   0.428  0.00  0.00    +0.251 A 
ATOM     13  O   UNL     1      -0.112   4.389   0.155  0.00  0.00    -0.268 OA
ATOM     14  N   UNL     1       0.629   2.337   0.517  0.00  0.00    -0.322 N 
ATOM     15  H   UNL     1       1.542   2.626   0.361  0.00  0.00    +0.169 HD
BRANCH   4  17
ATOM     16  C   UNL     1      -0.697  -3.861   0.491  0.00  0.00    +0.009 C 
ATOM     17  C   UNL     1      -0.458  -3.074   1.781  0.00  0.00    +0.032 C 
ENDBRANCH   4  17
ENDBRANCH   3  11
ENDBRANCH   1   3
BRANCH   1  18
ATOM     18  C   UNL     1      -1.782   5.467   2.063  0.00  0.00    -0.042 C 
BRANCH  18  19
ATOM     19  C   UNL     1      -1.792   5.920   3.500  0.00  0.00    -0.064 A 
ATOM     20  C   UNL     1      -2.348   7.140   3.837  0.00  0.00    +0.002 A 
ATOM     21  C   UNL     1      -2.361   7.554   5.155  0.00  0.00    +0.003 A 
ATOM     22  C   UNL     1      -1.809   6.752   6.137  0.00  0.00    -0.050 A 
ATOM     23  C   UNL     1      -1.249   5.534   5.800  0.00  0.00    +0.003 A 
ATOM     24  C   UNL     1      -1.240   5.118   4.482  0.00  0.00    +0.002 A 
ATOM     25  C   UNL     1      -1.819   7.206   7.574  0.00  0.00    +0.044 C 
ENDBRANCH  18  19
ENDBRANCH   1  18
BRANCH   1  26
ATOM     26  C   UNL     1      -4.193   5.369   1.863  0.00  0.00    +0.003 C 
BRANCH  26  27
ATOM     27  C   UNL     1      -5.325   4.462   2.271  0.00  0.00    +0.138 A 
ATOM     28  N   UNL     1      -5.524   3.230   1.871  0.00  0.00    -0.115 NA
ATOM     29  N   UNL     1      -6.593   2.794   2.443  0.00  0.00    -0.023 NA
ATOM     30  N   UNL     1      -7.082   3.716   3.197  0.00  0.00    -0.044 NA
ATOM     31  N   UNL     1      -6.325   4.758   3.122  0.00  0.00    -0.228 N 
BRANCH  31  32
ATOM     32  C   UNL     1      -6.520   6.027   3.829  0.00  0.00    +0.111 C 
ATOM     33  C   UNL     1      -6.552   5.785   5.352  0.00  0.00    +0.027 C 
ATOM     34  C   UNL     1      -7.619   6.781   5.872  0.00  0.00    +0.002 C 
ATOM     35  C   UNL     1      -8.694   6.744   4.758  0.00  0.00    +0.002 C 
ATOM     36  C   UNL     1      -7.881   6.637   3.451  0.00  0.00    +0.027 C 
ENDBRANCH  31  32
ENDBRANCH  26  27
BRANCH  26  37
ATOM     37  C   UNL     1      -4.484   5.956   0.480  0.00  0.00    -0.011 C 
ATOM     38  C   UNL     1      -3.404   6.980   0.123  0.00  0.00    +0.002 C 
ENDBRANCH  26  37
ENDBRANCH   1  26
TORSDOF 9
