REMARK  Name = ZINC34747561
REMARK  6 active torsions:
REMARK  status: ('A' for Active; 'I' for Inactive)
REMARK    1  A    between atoms: C_1  and  C_2
REMARK    2  A    between atoms: C_2  and  C_3
REMARK    3  A    between atoms: C_3  and  N_4
REMARK    4  A    between atoms: N_17  and  C_20
REMARK    5  A    between atoms: C_20  and  C_21
REMARK    6  A    between atoms: N_23  and  C_24
REMARK                            x       y       z     vdW  Elec       q    Type
REMARK                         _______ _______ _______ _____ _____    ______ ____
ROOT
ATOM      1  N   UNL     1      -2.512  -3.144   0.662  0.00  0.00    -0.280 N 
ATOM      2  C   UNL     1      -2.540  -3.918  -0.439  0.00  0.00    +0.264 A 
ATOM      3  O   UNL     1      -3.593  -4.381  -0.843  0.00  0.00    -0.267 OA
ATOM      4  C   UNL     1      -1.316  -4.189  -1.129  0.00  0.00    +0.076 A 
ATOM      5  C   UNL     1      -1.113  -4.997  -2.333  0.00  0.00    -0.023 A 
ATOM      6  C   UNL     1       0.150  -5.101  -2.794  0.00  0.00    -0.004 A 
ATOM      7  S   UNL     1       1.131  -4.144  -1.670  0.00  0.00    -0.073 S 
ATOM      8  C   UNL     1      -0.162  -3.606  -0.580  0.00  0.00    +0.117 A 
ATOM      9  N   UNL     1      -0.203  -2.851   0.512  0.00  0.00    -0.208 NA
ATOM     10  C   UNL     1      -1.345  -2.613   1.125  0.00  0.00    +0.202 A 
ATOM     11  N   UNL     1      -1.358  -1.824   2.248  0.00  0.00    -0.304 N 
ATOM     12  C   UNL     1      -1.565  -0.371   2.149  0.00  0.00    +0.089 C 
ATOM     13  C   UNL     1      -0.461   0.332   2.945  0.00  0.00    -0.059 C 
ATOM     14  N   UNL     1      -0.444  -0.185   4.319  0.00  0.00    +0.387 N 
ATOM     15  C   UNL     1      -0.082  -1.608   4.313  0.00  0.00    -0.059 C 
ATOM     16  C   UNL     1      -1.173  -2.408   3.585  0.00  0.00    +0.089 C 
ATOM     17  C   UNL     1       0.618  -5.863  -3.997  0.00  0.00    +0.043 C 
ATOM     18  C   UNL     1      -0.501  -6.822  -4.427  0.00  0.00    +0.005 C 
ATOM     19  C   UNL     1      -1.822  -6.049  -4.470  0.00  0.00    +0.005 C 
ATOM     20  C   UNL     1      -2.264  -5.698  -3.049  0.00  0.00    +0.037 C 
ATOM     21  H   UNL     1      -1.359  -0.074   4.730  0.00  0.00    -0.081 HD
ENDROOT
BRANCH   1  22
ATOM     22  C   UNL     1      -3.761  -2.863   1.374  0.00  0.00    +0.128 C 
BRANCH  22  24
ATOM     23  C   UNL     1      -5.737  -1.339   1.502  0.00  0.00    +0.005 C 
ATOM     24  C   UNL     1      -4.432  -1.633   0.759  0.00  0.00    +0.018 C 
ENDBRANCH  22  24
ENDBRANCH   1  22
BRANCH  14  25
ATOM     25  C   UNL     1       0.540   0.565   5.111  0.00  0.00    +0.019 C 
BRANCH  25  26
ATOM     26  C   UNL     1       0.472   0.120   6.549  0.00  0.00    +0.201 C 
ATOM     27  O   UNL     1      -0.318  -0.738   6.881  0.00  0.00    -0.278 OA
ATOM     28  N   UNL     1       1.289   0.675   7.466  0.00  0.00    -0.287 N 
ATOM     29  H   UNL     1       1.869   1.412   7.216  0.00  0.00    +0.155 HD
BRANCH  28  30
ATOM     30  C   UNL     1       1.301   0.189   8.778  0.00  0.00    +0.033 A 
ATOM     31  C   UNL     1       2.489   0.160   9.498  0.00  0.00    +0.023 A 
ATOM     32  C   UNL     1       2.497  -0.321  10.793  0.00  0.00    +0.002 A 
ATOM     33  C   UNL     1       1.326  -0.772  11.372  0.00  0.00    +0.000 A 
ATOM     34  C   UNL     1       0.142  -0.744  10.658  0.00  0.00    +0.002 A 
ATOM     35  C   UNL     1       0.126  -0.259   9.365  0.00  0.00    +0.023 A 
ENDBRANCH  28  30
ENDBRANCH  25  26
ENDBRANCH  14  25
TORSDOF 5
