REMARK  Name = ZINC63098862
REMARK  6 active torsions:
REMARK  status: ('A' for Active; 'I' for Inactive)
REMARK    1  A    between atoms: N_10  and  C_13
REMARK    2  A    between atoms: C_13  and  C_14
REMARK    3  A    between atoms: N_16  and  C_17
REMARK    4  A    between atoms: C_17  and  C_18
REMARK    5  A    between atoms: C_18  and  C_20
REMARK    6  A    between atoms: C_18  and  C_25
REMARK                            x       y       z     vdW  Elec       q    Type
REMARK                         _______ _______ _______ _____ _____    ______ ____
ROOT
ATOM      1  C   UNL     1       5.376  -3.027   1.355  0.00  0.00    +0.235 C 
ATOM      2  O   UNL     1       4.706  -2.633   2.285  0.00  0.00    -0.274 OA
ATOM      3  N   UNL     1       6.521  -3.699   1.587  0.00  0.00    -0.313 N 
ATOM      4  H   UNL     1       7.058  -4.014   0.842  0.00  0.00    +0.149 HD
ENDROOT
BRANCH   1   5
ATOM      5  C   UNL     1       4.930  -2.765  -0.060  0.00  0.00    +0.243 C 
BRANCH   5  15
ATOM      6  C   UNL     1      -0.017   1.373   0.010  0.00  0.00    +0.001 A 
ATOM      7  C   UNL     1       1.167   2.099   0.002  0.00  0.00    +0.001 A 
ATOM      8  C   UNL     1       2.386   1.457  -0.013  0.00  0.00    +0.014 A 
ATOM      9  C   UNL     1       2.428   0.064  -0.021  0.00  0.00    +0.053 A 
ATOM     10  C   UNL     1       1.225  -0.676  -0.013  0.00  0.00    +0.055 A 
ATOM     11  C   UNL     1       0.002  -0.004   0.002  0.00  0.00    +0.014 A 
ATOM     12  C   UNL     1       1.302  -2.141  -0.022  0.00  0.00    +0.295 A 
ATOM     13  O   UNL     1       0.164  -2.881  -0.016  0.00  0.00    -0.264 OA
ATOM     14  N   UNL     1       2.464  -2.731  -0.037  0.00  0.00    -0.125 NA
ATOM     15  N   UNL     1       3.667  -2.023  -0.044  0.00  0.00    -0.217 N 
ATOM     16  C   UNL     1       3.698  -0.675  -0.037  0.00  0.00    +0.276 A 
ATOM     17  O   UNL     1       4.761  -0.079  -0.044  0.00  0.00    -0.266 OA
ENDBRANCH   5  15
ENDBRANCH   1   5
BRANCH   3  18
ATOM     18  C   UNL     1       6.955  -3.954   2.962  0.00  0.00    +0.117 C 
BRANCH  18  19
ATOM     19  C   UNL     1       8.275  -4.729   2.946  0.00  0.00    +0.071 C 
BRANCH  19  20
ATOM     20  C   UNL     1       8.659  -5.097   4.356  0.00  0.00    -0.032 C 
ATOM     21  C   UNL     1       8.844  -6.343   4.848  0.00  0.00    -0.000 A 
ATOM     22  C   UNL     1       8.746  -7.677   4.243  0.00  0.00    +0.010 A 
ATOM     23  C   UNL     1       8.994  -8.764   5.008  0.00  0.00    +0.001 A 
ATOM     24  C   UNL     1       9.341  -8.650   6.361  0.00  0.00    +0.002 A 
ATOM     25  C   UNL     1       9.451  -7.459   6.988  0.00  0.00    +0.026 A 
ATOM     26  C   UNL     1       9.213  -6.249   6.279  0.00  0.00    +0.043 A 
ATOM     27  N   UNL     1       9.254  -4.994   6.656  0.00  0.00    -0.380 N 
ATOM     28  C   UNL     1       8.921  -4.149   5.504  0.00  0.00    +0.145 C 
ATOM     29  H   UNL     1       9.472  -4.678   7.546  0.00  0.00    +0.160 HD
ENDBRANCH  19  20
BRANCH  19  30
ATOM     30  C   UNL     1       9.354  -3.869   2.340  0.00  0.00    -0.002 A 
ATOM     31  C   UNL     1      10.107  -4.097   1.236  0.00  0.00    +0.012 A 
ATOM     32  C   UNL     1      11.049  -3.157   0.861  0.00  0.00    +0.008 A 
ATOM     33  C   UNL     1      11.193  -2.036   1.609  0.00  0.00    +0.045 A 
ATOM     34  S   UNL     1       9.968  -2.284   2.885  0.00  0.00    -0.101 S 
ENDBRANCH  19  30
ENDBRANCH  18  19
ENDBRANCH   3  18
TORSDOF 6
