REMARK  Name = ZINC02725399
REMARK  5 active torsions:
REMARK  status: ('A' for Active; 'I' for Inactive)
REMARK    1  A    between atoms: C_4  and  C_7
REMARK    2  A    between atoms: C_7  and  C_8
REMARK    3  A    between atoms: C_7  and  N_14
REMARK    4  A    between atoms: N_17  and  C_18
REMARK    5  A    between atoms: C_18  and  C_28
REMARK                            x       y       z     vdW  Elec       q    Type
REMARK                         _______ _______ _______ _____ _____    ______ ____
ROOT
ATOM      1  N   UNL     1      -2.602   2.498  -3.988  0.00  0.00    -0.288 N 
ATOM      2  C   UNL     1      -2.429   2.492  -2.651  0.00  0.00    +0.306 C 
ATOM      3  O   UNL     1      -1.309   2.542  -2.182  0.00  0.00    -0.253 OA
ATOM      4  N   UNL     1      -3.500   2.432  -1.834  0.00  0.00    -0.220 N 
ATOM      5  H   UNL     1      -3.496   2.458  -4.362  0.00  0.00    +0.151 HD
ATOM      6  H   UNL     1      -4.394   2.393  -2.208  0.00  0.00    +0.158 HD
ENDROOT
BRANCH   4   7
ATOM      7  C   UNL     1      -3.313   2.427  -0.381  0.00  0.00    +0.436 C 
ATOM      8  O   UNL     1      -2.510   1.301   0.021  0.00  0.00    -0.426 OA
ATOM      9  C   UNL     1      -1.222   1.752   0.017  0.00  0.00    +0.169 A 
ATOM     10  C   UNL     1      -0.013   1.076   0.008  0.00  0.00    +0.051 A 
ATOM     11  C   UNL     1       1.175   1.783   0.000  0.00  0.00    +0.024 A 
ATOM     12  C   UNL     1       1.160   3.166   0.008  0.00  0.00    +0.045 A 
ATOM     13  C   UNL     1      -0.044   3.847   0.024  0.00  0.00    +0.069 A 
ATOM     14  C   UNL     1      -1.238   3.144   0.031  0.00  0.00    +0.170 A 
ATOM     15  O   UNL     1      -2.536   3.566   0.046  0.00  0.00    -0.426 OA
ATOM     16 CL   UNL     1       2.655   4.049  -0.001  0.00  0.00    -0.083 Cl
BRANCH   7  17
ATOM     17  C   UNL     1      -4.666   2.405   0.333  0.00  0.00    +0.490 C 
ATOM     18  F   UNL     1      -4.463   2.448   1.717  0.00  0.00    -0.162 F 
ATOM     19  F   UNL     1      -5.419   3.516  -0.062  0.00  0.00    -0.162 F 
ATOM     20  F   UNL     1      -5.352   1.233  -0.002  0.00  0.00    -0.162 F 
ENDBRANCH   7  17
ENDBRANCH   4   7
BRANCH   1  21
ATOM     21  C   UNL     1      -1.438   2.563  -4.876  0.00  0.00    +0.135 C 
BRANCH  21  25
ATOM     22  C   UNL     1      -2.437   0.849  -8.659  0.00  0.00    +0.000 A 
ATOM     23  C   UNL     1      -1.196   0.610  -8.098  0.00  0.00    +0.000 A 
ATOM     24  C   UNL     1      -0.873   1.165  -6.874  0.00  0.00    +0.006 A 
ATOM     25  C   UNL     1      -1.790   1.958  -6.211  0.00  0.00    -0.023 A 
ATOM     26  C   UNL     1      -3.033   2.193  -6.769  0.00  0.00    +0.006 A 
ATOM     27  C   UNL     1      -3.354   1.642  -7.996  0.00  0.00    +0.000 A 
ENDBRANCH  21  25
BRANCH  21  28
ATOM     28  C   UNL     1      -1.032   4.002  -5.067  0.00  0.00    -0.023 A 
ATOM     29  C   UNL     1      -1.999   4.978  -5.222  0.00  0.00    +0.006 A 
ATOM     30  C   UNL     1      -1.627   6.298  -5.393  0.00  0.00    +0.000 A 
ATOM     31  C   UNL     1      -0.288   6.641  -5.419  0.00  0.00    +0.000 A 
ATOM     32  C   UNL     1       0.678   5.664  -5.271  0.00  0.00    +0.000 A 
ATOM     33  C   UNL     1       0.306   4.345  -5.095  0.00  0.00    +0.006 A 
ENDBRANCH  21  28
ENDBRANCH   1  21
TORSDOF 5
