REMARK  Name = ZINC20454495
REMARK  8 active torsions:
REMARK  status: ('A' for Active; 'I' for Inactive)
REMARK    1  A    between atoms: C_7  and  C_11
REMARK    2  A    between atoms: C_11  and  C_12
REMARK    3  A    between atoms: C_12  and  N_13
REMARK    4  A    between atoms: N_13  and  C_14
REMARK    5  A    between atoms: C_14  and  C_15
REMARK    6  A    between atoms: C_24  and  N_25
REMARK    7  A    between atoms: C_29  and  C_32
REMARK    8  A    between atoms: C_32  and  O_33
REMARK                            x       y       z     vdW  Elec       q    Type
REMARK                         _______ _______ _______ _____ _____    ______ ____
ROOT
ATOM      1  C   UNL     1       3.663   7.201  -0.466  0.00  0.00    -0.024 A 
ATOM      2  C   UNL     1       4.827   7.803  -0.840  0.00  0.00    +0.015 A 
ATOM      3  C   UNL     1       5.982   7.006  -0.965  0.00  0.00    +0.004 A 
ATOM      4  C   UNL     1       7.213   7.564  -1.345  0.00  0.00    +0.059 A 
ATOM      5  C   UNL     1       8.314   6.765  -1.458  0.00  0.00    +0.167 A 
ATOM      6  C   UNL     1       8.227   5.387  -1.198  0.00  0.00    +0.168 A 
ATOM      7  C   UNL     1       7.042   4.820  -0.826  0.00  0.00    +0.078 A 
ATOM      8  C   UNL     1       5.892   5.617  -0.701  0.00  0.00    +0.077 A 
ATOM      9  N   UNL     1       4.722   5.082  -0.331  0.00  0.00    -0.232 NA
ATOM     10  C   UNL     1       3.638   5.822  -0.217  0.00  0.00    +0.123 A 
ATOM     11  O   UNL     1       9.462   4.835  -1.386  0.00  0.00    -0.453 OA
ATOM     12  C   UNL     1      10.386   5.938  -1.356  0.00  0.00    +0.466 C 
ATOM     13  O   UNL     1       9.602   7.059  -1.804  0.00  0.00    -0.453 OA
ENDROOT
BRANCH  10  14
ATOM     14  N   UNL     1       2.446   5.223   0.165  0.00  0.00    -0.315 N 
ATOM     15  C   UNL     1       2.337   5.152   1.627  0.00  0.00    +0.106 C 
ATOM     16  C   UNL     1       0.954   4.622   2.012  0.00  0.00    +0.019 C 
ATOM     17  C   UNL     1       0.756   3.233   1.399  0.00  0.00    +0.009 C 
ATOM     18  C   UNL     1       0.923   3.326  -0.120  0.00  0.00    +0.032 C 
ATOM     19  C   UNL     1       2.307   3.893  -0.443  0.00  0.00    +0.112 C 
BRANCH  18  20
ATOM     20  C   UNL     1       0.787   1.931  -0.735  0.00  0.00    +0.160 C 
BRANCH  20  21
ATOM     21  O   UNL     1      -0.543   1.450  -0.533  0.00  0.00    -0.395 OA
ATOM     22  H   UNL     1      -0.832   0.457  -0.909  0.00  0.00    +0.209 HD
ENDBRANCH  20  21
ENDBRANCH  18  20
ENDBRANCH  10  14
BRANCH   1  23
ATOM     23  C   UNL     1       2.404   8.016  -0.321  0.00  0.00    -0.043 C 
BRANCH  23  24
ATOM     24  N   UNL     1       2.155   8.285   1.102  0.00  0.00    +0.382 N 
ATOM     25  H   UNL     1       3.015   8.836   1.512  0.00  0.00    -0.085 HD
ATOM     26  H   UNL     1       2.050   7.326   1.629  0.00  0.00    -0.085 HD
BRANCH  24  27
ATOM     27  C   UNL     1       0.933   9.080   1.282  0.00  0.00    -0.077 C 
BRANCH  27  28
ATOM     28  C   UNL     1       0.709   9.340   2.773  0.00  0.00    +0.018 C 
BRANCH  28  35
ATOM     29  C   UNL     1      -3.830   8.213   3.094  0.00  0.00    +0.001 A 
ATOM     30  C   UNL     1      -4.651   9.320   3.265  0.00  0.00    +0.002 A 
ATOM     31  C   UNL     1      -4.117  10.588   3.324  0.00  0.00    +0.026 A 
ATOM     32  C   UNL     1      -2.742  10.765   3.212  0.00  0.00    +0.047 A 
ATOM     33  C   UNL     1      -1.914   9.641   3.040  0.00  0.00    +0.003 A 
ATOM     34  C   UNL     1      -2.477   8.364   2.982  0.00  0.00    +0.010 A 
ATOM     35  C   UNL     1      -0.545  10.155   2.958  0.00  0.00    -0.024 A 
ATOM     36  C   UNL     1      -0.619  11.489   3.084  0.00  0.00    +0.087 A 
ATOM     37  N   UNL     1      -1.924  11.873   3.232  0.00  0.00    -0.360 N 
ATOM     38  H   UNL     1      -2.359  12.876   3.354  0.00  0.00    +0.165 HD
ENDBRANCH  28  35
ENDBRANCH  27  28
ENDBRANCH  24  27
ENDBRANCH  23  24
ENDBRANCH   1  23
TORSDOF 8
