REMARK  Name = ZINC08854896
REMARK  8 active torsions:
REMARK  status: ('A' for Active; 'I' for Inactive)
REMARK    1  A    between atoms: C_1  and  C_2
REMARK    2  A    between atoms: C_2  and  C_3
REMARK    3  A    between atoms: C_3  and  O_4
REMARK    4  A    between atoms: O_4  and  C_5
REMARK    5  A    between atoms: C_10  and  C_11
REMARK    6  A    between atoms: C_14  and  C_25
REMARK    7  A    between atoms: C_20  and  N_24
REMARK    8  A    between atoms: C_21  and  C_22
REMARK                            x       y       z     vdW  Elec       q    Type
REMARK                         _______ _______ _______ _____ _____    ______ ____
ROOT
ATOM      1  C   UNL     1       0.848  -4.760  -1.173  0.00  0.00    +0.105 C 
ATOM      2  C   UNL     1       1.863  -5.706  -0.585  0.00  0.00    +0.054 A 
ATOM      3  C   UNL     1       2.919  -5.438   0.291  0.00  0.00    +0.102 A 
ATOM      4  N   UNL     1       3.544  -6.574   0.534  0.00  0.00    -0.171 NA
ATOM      5  N   UNL     1       2.900  -7.595  -0.182  0.00  0.00    -0.246 N 
ATOM      6  H   UNL     1       3.149  -8.532  -0.188  0.00  0.00    +0.192 HD
ATOM      7  C   UNL     1       1.872  -7.043  -0.861  0.00  0.00    +0.223 A 
ATOM      8  O   UNL     1       0.966  -7.627  -1.684  0.00  0.00    -0.423 OA
ATOM      9  C   UNL     1      -0.126  -6.910  -2.020  0.00  0.00    +0.200 C 
ATOM     10  C   UNL     1      -0.247  -5.580  -1.809  0.00  0.00    +0.098 C 
ENDROOT
BRANCH   3  11
ATOM     11  C   UNL     1       3.275  -4.109   0.848  0.00  0.00    +0.021 A 
ATOM     12  C   UNL     1       2.288  -3.297   1.404  0.00  0.00    +0.013 A 
ATOM     13  C   UNL     1       2.624  -2.063   1.921  0.00  0.00    +0.021 A 
ATOM     14  C   UNL     1       3.939  -1.630   1.890  0.00  0.00    +0.042 A 
ATOM     15  C   UNL     1       4.923  -2.432   1.339  0.00  0.00    +0.040 A 
ATOM     16  C   UNL     1       4.599  -3.672   0.823  0.00  0.00    +0.052 A 
ATOM     17 CL   UNL     1       5.835  -4.680   0.140  0.00  0.00    -0.083 Cl
ATOM     18 CL   UNL     1       4.354  -0.076   2.542  0.00  0.00    -0.083 Cl
ENDBRANCH   3  11
BRANCH   1  24
ATOM     19  C   UNL     1       1.398  -2.512  -2.136  0.00  0.00    +0.125 A 
ATOM     20  C   UNL     1       2.008  -1.715  -3.094  0.00  0.00    +0.046 A 
ATOM     21  C   UNL     1       2.716  -2.298  -4.126  0.00  0.00    +0.004 A 
ATOM     22  C   UNL     1       2.817  -3.675  -4.206  0.00  0.00    +0.001 A 
ATOM     23  C   UNL     1       2.210  -4.471  -3.253  0.00  0.00    +0.008 A 
ATOM     24  C   UNL     1       1.505  -3.892  -2.215  0.00  0.00    +0.007 A 
BRANCH  19  25
ATOM     25  O   UNL     1       0.701  -1.940  -1.119  0.00  0.00    -0.492 OA
BRANCH  25  26
ATOM     26  C   UNL     1       0.535  -0.521  -1.163  0.00  0.00    +0.229 C 
BRANCH  26  28
ATOM     27  C   UNL     1      -0.329   1.467   0.079  0.00  0.00    +0.007 C 
ATOM     28  C   UNL     1      -0.252  -0.061   0.066  0.00  0.00    +0.038 C 
ENDBRANCH  26  28
ENDBRANCH  25  26
ENDBRANCH  19  25
ENDBRANCH   1  24
BRANCH   9  29
ATOM     29  N   UNL     1      -1.175  -7.569  -2.611  0.00  0.00    -0.328 N 
ATOM     30  H   UNL     1      -1.118  -8.523  -2.775  0.00  0.00    +0.145 HD
ATOM     31  H   UNL     1      -1.974  -7.080  -2.865  0.00  0.00    +0.145 HD
ENDBRANCH   9  29
BRANCH  10  32
ATOM     32  C   UNL     1      -1.458  -4.925  -2.205  0.00  0.00    +0.101 C 
ATOM     33  N   UNL     1      -2.418  -4.405  -2.518  0.00  0.00    -0.191 NA
ENDBRANCH  10  32
TORSDOF 7
