REMARK  Name = ZINC27532929
REMARK  8 active torsions:
REMARK  status: ('A' for Active; 'I' for Inactive)
REMARK    1  A    between atoms: C_1  and  C_2
REMARK    2  A    between atoms: C_2  and  C_3
REMARK    3  A    between atoms: C_3  and  C_4
REMARK    4  A    between atoms: C_8  and  C_32
REMARK    5  A    between atoms: N_21  and  C_24
REMARK    6  A    between atoms: C_24  and  C_25
REMARK    7  A    between atoms: C_32  and  C_33
REMARK    8  A    between atoms: C_33  and  C_34
REMARK                            x       y       z     vdW  Elec       q    Type
REMARK                         _______ _______ _______ _____ _____    ______ ____
ROOT
ATOM      1  C   UNL     1      -3.751  -1.151   6.136  0.00  0.00    +0.028 C 
ATOM      2  C   UNL     1      -4.795  -1.207   5.008  0.00  0.00    -0.059 C 
ATOM      3  N   UNL     1      -4.108  -1.372   3.719  0.00  0.00    +0.402 N 
ATOM      4  C   UNL     1      -3.380  -2.647   3.642  0.00  0.00    -0.059 C 
ATOM      5  C   UNL     1      -2.268  -2.662   4.704  0.00  0.00    +0.028 C 
ATOM      6  C   UNL     1      -2.953  -2.447   6.048  0.00  0.00    +0.144 C 
ATOM      7  O   UNL     1      -2.871  -3.232   6.962  0.00  0.00    -0.296 OA
ATOM      8  C   UNL     1      -1.359  -1.446   4.470  0.00  0.00    +0.096 C 
ATOM      9  N   UNL     1      -2.166  -0.218   4.512  0.00  0.00    -0.299 NA
ATOM     10  C   UNL     1      -2.771  -0.006   5.835  0.00  0.00    +0.096 C 
ATOM     11  C   UNL     1      -3.201  -0.246   3.473  0.00  0.00    +0.095 C 
ATOM     12  C   UNL     1      -3.948   1.048   3.420  0.00  0.00    -0.013 A 
ATOM     13  C   UNL     1      -4.718   1.698   4.360  0.00  0.00    +0.021 A 
ATOM     14  C   UNL     1      -5.283   2.913   3.983  0.00  0.00    +0.018 A 
ATOM     15  C   UNL     1      -5.078   3.440   2.723  0.00  0.00    +0.017 A 
ATOM     16  C   UNL     1      -4.304   2.792   1.773  0.00  0.00    +0.025 A 
ATOM     17  C   UNL     1      -3.732   1.572   2.139  0.00  0.00    +0.040 A 
ATOM     18  N   UNL     1      -2.927   0.722   1.401  0.00  0.00    -0.267 N 
ATOM     19  C   UNL     1      -2.571  -0.375   2.103  0.00  0.00    +0.228 C 
ATOM     20  O   UNL     1      -1.877  -1.288   1.711  0.00  0.00    -0.275 OA
ATOM     21 BR   UNL     1      -6.352   3.861   5.221  0.00  0.00    -0.050 Br
ATOM     22  H   UNL     1      -4.878  -1.385   2.933  0.00  0.00    -0.078 HD
ENDROOT
BRANCH   1  23
ATOM     23  C   UNL     1      -4.415  -0.971   7.502  0.00  0.00    +0.013 C 
BRANCH  23  25
ATOM     24  C   UNL     1      -4.005  -0.740   9.956  0.00  0.00    +0.004 C 
ATOM     25  C   UNL     1      -3.340  -0.921   8.590  0.00  0.00    -0.002 C 
ENDBRANCH  23  25
ENDBRANCH   1  23
BRANCH  18  26
ATOM     26  C   UNL     1      -2.514   0.980   0.019  0.00  0.00    +0.148 C 
BRANCH  26  27
ATOM     27  C   UNL     1      -1.219   1.751   0.017  0.00  0.00    -0.030 A 
ATOM     28  C   UNL     1      -0.013   1.076   0.008  0.00  0.00    +0.005 A 
ATOM     29  C   UNL     1       1.175   1.783   0.000  0.00  0.00    +0.000 A 
ATOM     30  C   UNL     1       1.156   3.165   0.008  0.00  0.00    +0.000 A 
ATOM     31  C   UNL     1      -0.050   3.840   0.022  0.00  0.00    +0.000 A 
ATOM     32  C   UNL     1      -1.238   3.133   0.030  0.00  0.00    +0.005 A 
ENDBRANCH  26  27
ENDBRANCH  18  26
BRANCH   5  33
ATOM     33  C   UNL     1      -1.473  -3.969   4.661  0.00  0.00    +0.013 C 
BRANCH  33  34
ATOM     34  C   UNL     1      -2.418  -5.149   4.899  0.00  0.00    -0.002 C 
ATOM     35  C   UNL     1      -1.624  -6.455   4.855  0.00  0.00    +0.004 C 
ENDBRANCH  33  34
ENDBRANCH   5  33
TORSDOF 6
