REMARK  Name = ZINC09615153
REMARK  8 active torsions:
REMARK  status: ('A' for Active; 'I' for Inactive)
REMARK    1  A    between atoms: C_1  and  C_2
REMARK    2  A    between atoms: C_6  and  N_9
REMARK    3  A    between atoms: C_7  and  C_8
REMARK    4  A    between atoms: C_15  and  C_17
REMARK    5  A    between atoms: C_21  and  N_23
REMARK    6  A    between atoms: C_30  and  C_40
REMARK    7  A    between atoms: C_37  and  O_38
REMARK    8  A    between atoms: O_38  and  C_39
REMARK                            x       y       z     vdW  Elec       q    Type
REMARK                         _______ _______ _______ _____ _____    ______ ____
ROOT
ATOM      1  C   UNL     1      -0.924   7.866   1.674  0.00  0.00    +0.039 A 
ATOM      2  C   UNL     1      -0.718   7.084   2.812  0.00  0.00    +0.013 A 
ATOM      3  C   UNL     1      -1.503   7.273   3.931  0.00  0.00    +0.003 A 
ATOM      4  C   UNL     1      -2.503   8.228   3.926  0.00  0.00    +0.024 A 
ATOM      5  C   UNL     1      -2.719   9.008   2.796  0.00  0.00    +0.042 A 
ATOM      6  C   UNL     1      -1.932   8.829   1.669  0.00  0.00    +0.036 A 
ENDROOT
BRANCH   5   7
ATOM      7  N   UNL     1      -3.732   9.974   2.796  0.00  0.00    -0.216 N 
ATOM      8  C   UNL     1      -3.484  11.177   3.336  0.00  0.00    +0.310 C 
ATOM      9  O   UNL     1      -2.410  11.367   3.875  0.00  0.00    -0.252 OA
ATOM     10  N   UNL     1      -4.380  12.177   3.310  0.00  0.00    -0.292 N 
ATOM     11  C   UNL     1      -5.658  11.994   2.602  0.00  0.00    +0.114 C 
ATOM     12  C   UNL     1      -6.108  10.546   2.822  0.00  0.00    +0.096 C 
ATOM     13  C   UNL     1      -5.029   9.640   2.213  0.00  0.00    +0.185 C 
ATOM     14  O   UNL     1      -5.017   9.837   0.802  0.00  0.00    -0.464 OA
ATOM     15  C   UNL     1      -5.076  11.106   0.319  0.00  0.00    +0.170 A 
ATOM     16  C   UNL     1      -5.388  12.183   1.126  0.00  0.00    +0.018 A 
ATOM     17  C   UNL     1      -5.449  13.458   0.592  0.00  0.00    +0.009 A 
ATOM     18  C   UNL     1      -5.191  13.665  -0.750  0.00  0.00    +0.004 A 
ATOM     19  C   UNL     1      -4.871  12.594  -1.564  0.00  0.00    +0.049 A 
ATOM     20  C   UNL     1      -4.813  11.316  -1.036  0.00  0.00    +0.162 A 
ATOM     21  C   UNL     1      -5.361   8.178   2.519  0.00  0.00    +0.079 C 
ATOM     22  H   UNL     1      -4.186  13.017   3.755  0.00  0.00    +0.151 HD
BRANCH  20  23
ATOM     23  O   UNL     1      -4.498  10.264  -1.838  0.00  0.00    -0.491 OA
ATOM     24  C   UNL     1      -4.241  10.551  -3.214  0.00  0.00    +0.277 C 
ENDBRANCH  20  23
ENDBRANCH   5   7
BRANCH   1  31
ATOM     25  N   UNL     1       3.975   7.471   0.817  0.00  0.00    -0.327 N 
ATOM     26  C   UNL     1       3.335   7.738  -0.477  0.00  0.00    +0.124 C 
ATOM     27  C   UNL     1       2.022   6.953  -0.566  0.00  0.00    +0.127 C 
ATOM     28  N   UNL     1       1.203   7.278   0.612  0.00  0.00    -0.295 N 
ATOM     29  C   UNL     1       1.821   7.167   1.942  0.00  0.00    +0.127 C 
ATOM     30  C   UNL     1       3.142   7.943   1.931  0.00  0.00    +0.124 C 
ATOM     31  C   UNL     1      -0.080   7.668   0.476  0.00  0.00    +0.247 C 
ATOM     32  O   UNL     1      -0.544   7.857  -0.632  0.00  0.00    -0.270 OA
BRANCH  25  38
ATOM     33  C   UNL     1       8.845   6.902   1.162  0.00  0.00    +0.044 C 
ATOM     34  C   UNL     1       7.630   7.785   1.039  0.00  0.00    -0.046 A 
ATOM     35  C   UNL     1       7.778   9.159   0.978  0.00  0.00    +0.004 A 
ATOM     36  C   UNL     1       6.666   9.973   0.865  0.00  0.00    +0.002 A 
ATOM     37  C   UNL     1       5.403   9.416   0.811  0.00  0.00    +0.023 A 
ATOM     38  C   UNL     1       5.251   8.037   0.871  0.00  0.00    +0.033 A 
ATOM     39  C   UNL     1       6.370   7.222   0.986  0.00  0.00    -0.027 A 
ATOM     40  C   UNL     1       6.210   5.725   1.051  0.00  0.00    +0.046 C 
ENDBRANCH  25  38
ENDBRANCH   1  31
TORSDOF 4
