REMARK  Name = ZINC13065215
REMARK  12 active torsions:
REMARK  status: ('A' for Active; 'I' for Inactive)
REMARK    1  A    between atoms: C_1  and  C_2
REMARK    2  A    between atoms: C_2  and  C_3
REMARK    3  A    between atoms: C_3  and  C_5
REMARK    4  A    between atoms: C_3  and  N_70
REMARK    5  A    between atoms: N_9  and  C_10
REMARK    6  A    between atoms: C_10  and  C_11
REMARK    7  A    between atoms: C_17  and  C_18
REMARK    8  A    between atoms: C_17  and  N_70
REMARK    9  A    between atoms: C_25  and  C_26
REMARK   10  A    between atoms: C_25  and  N_70
REMARK   11  A    between atoms: C_29  and  C_39
REMARK   12  A    between atoms: C_32  and  C_38
REMARK                            x       y       z     vdW  Elec       q    Type
REMARK                         _______ _______ _______ _____ _____    ______ ____
ROOT
ATOM      1  N   UNL     1       1.093   4.114   1.543  0.00  0.00    +0.392 N 
ATOM      2  H   UNL     1       2.007   3.816   1.904  0.00  0.00    -0.080 HD
ENDROOT
BRANCH   1   3
ATOM      3  C   UNL     1       0.028   3.451   2.324  0.00  0.00    +0.003 C 
BRANCH   3   4
ATOM      4  C   UNL     1      -1.323   4.008   1.955  0.00  0.00    +0.138 A 
ATOM      5  N   UNL     1      -1.615   5.265   1.730  0.00  0.00    -0.115 NA
ATOM      6  N   UNL     1      -2.870   5.336   1.444  0.00  0.00    -0.023 NA
ATOM      7  N   UNL     1      -3.384   4.157   1.481  0.00  0.00    -0.044 NA
ATOM      8  N   UNL     1      -2.461   3.309   1.787  0.00  0.00    -0.228 N 
BRANCH   8   9
ATOM      9  C   UNL     1      -2.622   1.860   1.929  0.00  0.00    +0.178 C 
BRANCH   9  10
ATOM     10  C   UNL     1      -3.075   1.535   3.354  0.00  0.00    +0.140 C 
ATOM     11  C   UNL     1      -3.136   0.005   3.548  0.00  0.00    +0.035 C 
ATOM     12  C   UNL     1      -4.416  -0.167   4.412  0.00  0.00    +0.031 C 
ATOM     13  C   UNL     1      -5.301   0.977   3.856  0.00  0.00    +0.160 C 
ATOM     14  O   UNL     1      -4.392   2.053   3.576  0.00  0.00    -0.375 OA
ENDBRANCH   9  10
ENDBRANCH   8   9
ENDBRANCH   3   4
BRANCH   3  16
ATOM     15  C   UNL     1       1.595   3.002   4.218  0.00  0.00    +0.002 C 
ATOM     16  C   UNL     1       0.288   3.687   3.813  0.00  0.00    -0.011 C 
ENDBRANCH   3  16
ENDBRANCH   1   3
BRANCH   1  17
ATOM     17  C   UNL     1       0.991   3.729   0.120  0.00  0.00    -0.042 C 
BRANCH  17  18
ATOM     18  C   UNL     1       1.488   2.315  -0.036  0.00  0.00    -0.064 A 
ATOM     19  C   UNL     1       0.589   1.265  -0.060  0.00  0.00    +0.004 A 
ATOM     20  C   UNL     1       1.044  -0.032  -0.203  0.00  0.00    +0.038 A 
ATOM     21  C   UNL     1       2.401  -0.280  -0.321  0.00  0.00    +0.123 A 
ATOM     22  C   UNL     1       3.301   0.773  -0.297  0.00  0.00    +0.038 A 
ATOM     23  C   UNL     1       2.843   2.069  -0.154  0.00  0.00    +0.004 A 
ATOM     24  F   UNL     1       2.847  -1.547  -0.461  0.00  0.00    -0.205 F 
ENDBRANCH  17  18
ENDBRANCH   1  17
BRANCH   1  25
ATOM     25  C   UNL     1       0.980   5.582   1.679  0.00  0.00    -0.036 C 
BRANCH  25  26
ATOM     26  C   UNL     1       2.299   6.205   1.301  0.00  0.00    +0.001 A 
ATOM     27  C   UNL     1       2.491   6.667   0.041  0.00  0.00    +0.017 A 
ATOM     28  C   UNL     1       3.784   7.267  -0.294  0.00  0.00    +0.002 A 
ATOM     29  C   UNL     1       4.042   7.761  -1.577  0.00  0.00    -0.041 A 
ATOM     30  C   UNL     1       5.258   8.315  -1.858  0.00  0.00    +0.004 A 
ATOM     31  C   UNL     1       6.241   8.393  -0.881  0.00  0.00    +0.005 A 
ATOM     32  C   UNL     1       6.009   7.913   0.390  0.00  0.00    -0.026 A 
ATOM     33  C   UNL     1       4.778   7.344   0.699  0.00  0.00    +0.052 A 
ATOM     34  N   UNL     1       4.519   6.856   1.962  0.00  0.00    -0.322 N 
ATOM     35  H   UNL     1       5.205   6.910   2.646  0.00  0.00    +0.169 HD
ATOM     36  C   UNL     1       3.327   6.311   2.262  0.00  0.00    +0.251 A 
ATOM     37  O   UNL     1       3.131   5.895   3.390  0.00  0.00    -0.268 OA
ATOM     38  C   UNL     1       7.085   8.005   1.441  0.00  0.00    +0.046 C 
ATOM     39  C   UNL     1       2.981   7.682  -2.646  0.00  0.00    +0.044 C 
ENDBRANCH  25  26
ENDBRANCH   1  25
TORSDOF 9
