REMARK  Name = ZINC09330118
REMARK  8 active torsions:
REMARK  status: ('A' for Active; 'I' for Inactive)
REMARK    1  A    between atoms: C_1  and  C_2
REMARK    2  A    between atoms: C_2  and  C_3
REMARK    3  A    between atoms: C_3  and  N_4
REMARK    4  A    between atoms: C_15  and  C_16
REMARK    5  A    between atoms: C_15  and  O_25
REMARK    6  A    between atoms: N_30  and  C_31
REMARK    7  A    between atoms: C_31  and  C_32
REMARK    8  A    between atoms: C_32  and  N_67
REMARK                            x       y       z     vdW  Elec       q    Type
REMARK                         _______ _______ _______ _____ _____    ______ ____
ROOT
ATOM      1  N   UNL     1       1.790   4.976   1.356  0.00  0.00    -0.269 N 
ATOM      2  C   UNL     1       2.005   5.233   0.001  0.00  0.00    +0.042 A 
ATOM      3  C   UNL     1       2.747   6.229  -0.631  0.00  0.00    +0.024 A 
ATOM      4  C   UNL     1       2.811   6.279  -2.008  0.00  0.00    +0.002 A 
ATOM      5  C   UNL     1       2.140   5.342  -2.772  0.00  0.00    +0.000 A 
ATOM      6  C   UNL     1       1.400   4.350  -2.153  0.00  0.00    +0.008 A 
ATOM      7  C   UNL     1       1.333   4.298  -0.779  0.00  0.00    +0.011 A 
ATOM      8  C   UNL     1       0.636   3.376   0.186  0.00  0.00    +0.174 C 
ATOM      9  C   UNL     1       0.999   3.905   1.550  0.00  0.00    +0.253 C 
ATOM     10  O   UNL     1       0.647   3.451   2.619  0.00  0.00    -0.272 OA
ATOM     11  C   UNL     1      -0.855   3.398  -0.022  0.00  0.00    +0.086 C 
ATOM     12  C   UNL     1      -1.690   4.502   0.043  0.00  0.00    +0.169 C 
ATOM     13  C   UNL     1      -1.224   2.074  -0.302  0.00  0.00    +0.250 C 
ATOM     14  O   UNL     1      -2.353   1.681  -0.535  0.00  0.00    -0.282 OA
ATOM     15  C   UNL     1       0.002   1.232  -0.262  0.00  0.00    +0.288 C 
ATOM     16  O   UNL     1       0.031   0.034  -0.457  0.00  0.00    -0.266 OA
ATOM     17  N   UNL     1       1.076   1.994   0.018  0.00  0.00    -0.275 N 
ENDROOT
BRANCH  12  18
ATOM     18  C   UNL     1      -3.139   4.329  -0.055  0.00  0.00    +0.171 A 
ATOM     19  C   UNL     1      -3.967   5.061  -0.852  0.00  0.00    +0.061 A 
ATOM     20  C   UNL     1      -5.280   4.568  -0.642  0.00  0.00    +0.021 A 
ATOM     21  C   UNL     1      -6.535   4.905  -1.162  0.00  0.00    +0.011 A 
ATOM     22  C   UNL     1      -7.644   4.225  -0.750  0.00  0.00    +0.001 A 
ATOM     23  C   UNL     1      -7.537   3.201   0.181  0.00  0.00    +0.004 A 
ATOM     24  C   UNL     1      -6.311   2.852   0.706  0.00  0.00    +0.047 A 
ATOM     25  C   UNL     1      -5.168   3.530   0.302  0.00  0.00    +0.136 A 
ATOM     26  O   UNL     1      -3.864   3.415   0.626  0.00  0.00    -0.452 OA
ENDBRANCH  12  18
BRANCH  12  27
ATOM     27  O   UNL     1      -1.166   5.738   0.197  0.00  0.00    -0.503 OA
ATOM     28  H   UNL     1      -1.904   6.412   0.224  0.00  0.00    +0.292 HD
ENDBRANCH  12  27
BRANCH   1  29
ATOM     29  C   UNL     1       2.358   5.781   2.440  0.00  0.00    +0.113 C 
BRANCH  29  31
ATOM     30  C   UNL     1       4.312   6.048   3.974  0.00  0.00    +0.005 C 
ATOM     31  C   UNL     1       3.719   5.208   2.841  0.00  0.00    +0.016 C 
ENDBRANCH  29  31
ENDBRANCH   1  29
BRANCH  17  32
ATOM     32  C   UNL     1       2.456   1.517   0.134  0.00  0.00    +0.091 C 
BRANCH  32  33
ATOM     33  C   UNL     1       3.136   1.586  -1.235  0.00  0.00    -0.059 C 
BRANCH  33  39
ATOM     34  C   UNL     1       5.325   2.016  -0.289  0.00  0.00    -0.050 C 
ATOM     35  C   UNL     1       6.740   1.450  -0.145  0.00  0.00    +0.141 C 
ATOM     36  O   UNL     1       7.306   1.259  -1.445  0.00  0.00    -0.383 OA
ATOM     37  C   UNL     1       6.548   0.378  -2.279  0.00  0.00    +0.141 C 
ATOM     38  C   UNL     1       5.131   0.934  -2.444  0.00  0.00    -0.050 C 
ATOM     39  N   UNL     1       4.521   1.083  -1.107  0.00  0.00    +0.384 N 
ATOM     40  H   UNL     1       4.502   0.166  -0.644  0.00  0.00    -0.082 HD
ENDBRANCH  33  39
ENDBRANCH  32  33
ENDBRANCH  17  32
TORSDOF 7
