REMARK  Name = ZINC44611844
REMARK  5 active torsions:
REMARK  status: ('A' for Active; 'I' for Inactive)
REMARK    1  A    between atoms: C_1  and  C_2
REMARK    2  A    between atoms: C_4  and  C_7
REMARK    3  A    between atoms: C_7  and  N_13
REMARK    4  A    between atoms: C_14  and  C_16
REMARK    5  A    between atoms: C_16  and  C_17
REMARK                            x       y       z     vdW  Elec       q    Type
REMARK                         _______ _______ _______ _____ _____    ______ ____
ROOT
ATOM      1  C   UNL     1      -1.588  -3.254  -0.008  0.00  0.00    +0.097 C 
ATOM      2  C   UNL     1      -2.464  -3.221   1.246  0.00  0.00    +0.034 C 
ATOM      3  C   UNL     1      -3.403  -4.428   1.244  0.00  0.00    +0.003 C 
ATOM      4  C   UNL     1      -2.578  -5.717   1.233  0.00  0.00    +0.000 C 
ATOM      5  C   UNL     1      -1.702  -5.750  -0.021  0.00  0.00    +0.003 C 
ATOM      6  C   UNL     1      -0.762  -4.542  -0.019  0.00  0.00    +0.034 C 
ENDROOT
BRANCH   1  10
ATOM      7  C   UNL     1      -0.018   1.503   0.010  0.00  0.00    +0.112 C 
ATOM      8  C   UNL     1       0.002  -0.004   0.002  0.00  0.00    +0.224 A 
ATOM      9  N   UNL     1      -1.044  -0.783   0.003  0.00  0.00    -0.194 NA
ATOM     10  C   UNL     1      -0.663  -2.065  -0.006  0.00  0.00    +0.195 A 
ATOM     11  N   UNL     1       0.638  -2.118  -0.012  0.00  0.00    -0.059 NA
ATOM     12  O   UNL     1       1.097  -0.774  -0.013  0.00  0.00    -0.338 OA
ENDBRANCH   1  10
BRANCH   1  13
ATOM     13  N   UNL     1      -2.439  -3.209  -1.200  0.00  0.00    -0.302 N 
ATOM     14  C   UNL     1      -3.258  -2.159  -1.403  0.00  0.00    +0.222 C 
ATOM     15  O   UNL     1      -3.292  -1.251  -0.600  0.00  0.00    -0.275 OA
ATOM     16  H   UNL     1      -2.412  -3.936  -1.842  0.00  0.00    +0.150 HD
BRANCH  14  17
ATOM     17  C   UNL     1      -4.133  -2.113  -2.629  0.00  0.00    +0.208 C 
BRANCH  17  18
ATOM     18  C   UNL     1      -4.959  -0.825  -2.618  0.00  0.00    +0.398 C 
ATOM     19  F   UNL     1      -4.100   0.279  -2.617  0.00  0.00    -0.170 F 
ATOM     20  F   UNL     1      -5.772  -0.782  -3.756  0.00  0.00    -0.170 F 
ATOM     21  F   UNL     1      -5.760  -0.794  -1.472  0.00  0.00    -0.170 F 
ENDBRANCH  17  18
ENDBRANCH  14  17
ENDBRANCH   1  13
TORSDOF 4
