REMARK  Name = ZINC38796918
REMARK  7 active torsions:
REMARK  status: ('A' for Active; 'I' for Inactive)
REMARK    1  A    between atoms: C_1  and  C_2
REMARK    2  A    between atoms: C_2  and  C_4
REMARK    3  A    between atoms: C_2  and  N_17
REMARK    4  A    between atoms: N_17  and  C_18
REMARK    5  A    between atoms: N_17  and  C_19
REMARK    6  A    between atoms: C_19  and  C_20
REMARK    7  A    between atoms: N_22  and  C_23
REMARK                            x       y       z     vdW  Elec       q    Type
REMARK                         _______ _______ _______ _____ _____    ______ ____
ROOT
ATOM      1  C   UNL     1       1.456   0.521  -0.494  0.00  0.00    -0.004 C 
ATOM      2  C   UNL     1       0.544  -0.503   0.185  0.00  0.00    +0.017 C 
ENDROOT
BRANCH   2   3
ATOM      3  C   UNL     1       0.690  -0.392   1.681  0.00  0.00    +0.203 C 
ATOM      4  O   UNL     1       1.499  -1.082   2.264  0.00  0.00    -0.277 OA
ATOM      5  N   UNL     1      -0.077   0.475   2.370  0.00  0.00    -0.287 N 
ATOM      6  C   UNL     1       0.486   1.388   3.138  0.00  0.00    +0.035 C 
ATOM      7  C   UNL     1       1.948   1.506   3.186  0.00  0.00    +0.025 C 
ATOM      8  C   UNL     1       2.530   2.436   3.968  0.00  0.00    +0.032 C 
ATOM      9  C   UNL     1       1.705   3.338   4.778  0.00  0.00    +0.095 C 
ATOM     10  N   UNL     1       1.968   4.320   5.618  0.00  0.00    -0.190 NA
ATOM     11  C   UNL     1       0.814   4.819   6.092  0.00  0.00    +0.369 C 
ATOM     12  O   UNL     1       0.732   5.840   6.977  0.00  0.00    -0.243 OA
ATOM     13  N   UNL     1      -0.224   4.192   5.588  0.00  0.00    -0.190 NA
ATOM     14  C   UNL     1       0.234   3.228   4.738  0.00  0.00    +0.097 C 
ATOM     15  C   UNL     1      -0.356   2.296   3.947  0.00  0.00    +0.053 C 
ATOM     16  H   UNL     1      -1.044   0.428   2.302  0.00  0.00    +0.155 HD
ENDBRANCH   2   3
BRANCH   2  17
ATOM     17  N   UNL     1       0.921  -1.856  -0.245  0.00  0.00    +0.391 N 
ATOM     18  C   UNL     1       0.835  -1.947  -1.708  0.00  0.00    -0.094 C 
ATOM     19  H   UNL     1       1.867  -2.050   0.049  0.00  0.00    -0.080 HD
BRANCH  17  20
ATOM     20  C   UNL     1       0.009  -2.835   0.362  0.00  0.00    +0.020 C 
BRANCH  20  21
ATOM     21  C   UNL     1       0.492  -4.229   0.055  0.00  0.00    +0.201 C 
ATOM     22  O   UNL     1       1.498  -4.391  -0.604  0.00  0.00    -0.278 OA
ATOM     23  N   UNL     1      -0.193  -5.296   0.513  0.00  0.00    -0.286 N 
ATOM     24  H   UNL     1      -1.036  -5.168   0.974  0.00  0.00    +0.155 HD
BRANCH  23  25
ATOM     25  C   UNL     1       0.314  -6.587   0.324  0.00  0.00    +0.047 A 
ATOM     26  C   UNL     1       1.666  -6.773   0.068  0.00  0.00    +0.024 A 
ATOM     27  C   UNL     1       2.163  -8.048  -0.118  0.00  0.00    +0.002 A 
ATOM     28  C   UNL     1       1.316  -9.139  -0.051  0.00  0.00    +0.001 A 
ATOM     29  C   UNL     1      -0.031  -8.958   0.204  0.00  0.00    +0.017 A 
ATOM     30  C   UNL     1      -0.534  -7.685   0.397  0.00  0.00    +0.039 A 
ATOM     31 BR   UNL     1      -2.374  -7.438   0.752  0.00  0.00    -0.048 Br
ENDBRANCH  23  25
ENDBRANCH  20  21
ENDBRANCH  17  20
ENDBRANCH   2  17
TORSDOF 5
