REMARK  Name = ZINC64657141
REMARK  9 active torsions:
REMARK  status: ('A' for Active; 'I' for Inactive)
REMARK    1  A    between atoms: C_1  and  O_2
REMARK    2  A    between atoms: O_2  and  C_3
REMARK    3  A    between atoms: C_7  and  C_12
REMARK    4  A    between atoms: C_12  and  C_13
REMARK    5  A    between atoms: C_13  and  N_14
REMARK    6  A    between atoms: C_15  and  C_17
REMARK    7  A    between atoms: C_17  and  S_18
REMARK    8  A    between atoms: S_18  and  C_19
REMARK    9  A    between atoms: N_24  and  C_25
REMARK                            x       y       z     vdW  Elec       q    Type
REMARK                         _______ _______ _______ _____ _____    ______ ____
ROOT
ATOM      1  N   UNL     1       2.943  -1.863   7.779  0.00  0.00    -0.314 N 
ATOM      2  C   UNL     1       2.282  -1.801   8.952  0.00  0.00    +0.223 C 
ATOM      3  O   UNL     1       1.101  -2.072   8.997  0.00  0.00    -0.275 OA
ATOM      4  H   UNL     1       3.888  -1.647   7.743  0.00  0.00    +0.149 HD
ENDROOT
BRANCH   1   5
ATOM      5  C   UNL     1       2.235  -2.258   6.559  0.00  0.00    +0.108 C 
BRANCH   5   6
ATOM      6  C   UNL     1       3.208  -2.249   5.379  0.00  0.00    +0.052 C 
BRANCH   6  11
ATOM      7  C   UNL     1       0.624  -0.617   1.039  0.00  0.00    +0.122 A 
ATOM      8  C   UNL     1       1.200   0.178   2.049  0.00  0.00    +0.046 A 
ATOM      9  C   UNL     1       1.834  -0.371   3.107  0.00  0.00    +0.013 A 
ATOM     10  C   UNL     1       1.923  -1.834   3.206  0.00  0.00    -0.001 A 
ATOM     11  C   UNL     1       2.479  -2.655   4.124  0.00  0.00    -0.040 C 
ATOM     12  C   UNL     1       2.224  -4.064   3.638  0.00  0.00    +0.144 C 
ATOM     13  N   UNL     1       1.482  -3.928   2.379  0.00  0.00    -0.380 N 
ATOM     14  C   UNL     1       1.310  -2.649   2.133  0.00  0.00    +0.046 A 
ATOM     15  C   UNL     1       0.664  -1.974   1.067  0.00  0.00    +0.071 A 
ATOM     16  H   UNL     1       1.170  -4.659   1.823  0.00  0.00    +0.160 HD
BRANCH   7  18
ATOM     17  C   UNL     1      -0.017   1.425   0.010  0.00  0.00    +0.277 C 
ATOM     18  O   UNL     1       0.002  -0.004   0.002  0.00  0.00    -0.495 OA
ENDBRANCH   7  18
ENDBRANCH   6  11
ENDBRANCH   5   6
ENDBRANCH   1   5
BRANCH   2  19
ATOM     19  C   UNL     1       3.010  -1.394  10.207  0.00  0.00    +0.167 C 
BRANCH  19  20
ATOM     20  S   UNL     1       1.857  -1.406  11.607  0.00  0.00    -0.114 S 
BRANCH  20  21
ATOM     21  C   UNL     1       2.876  -0.901  13.020  0.00  0.00    +0.203 C 
ATOM     22  N   UNL     1       4.025  -1.827  13.179  0.00  0.00    -0.320 NA
ATOM     23  N   UNL     1       5.125  -0.916  13.543  0.00  0.00    +0.411 N 
ATOM     24  N   UNL     1       4.830   0.284  12.749  0.00  0.00    -0.265 NA
ATOM     25  N   UNL     1       3.462   0.427  12.775  0.00  0.00    -0.251 N 
ATOM     26  H   UNL     1       3.851  -2.495  13.914  0.00  0.00    +0.106 HD
ATOM     27  H   UNL     1       5.103  -0.706  14.529  0.00  0.00    -0.031 HD
ATOM     28  H   UNL     1       5.165   0.183  11.802  0.00  0.00    +0.125 HD
ATOM     29  H   UNL     1       6.016  -1.309  13.279  0.00  0.00    -0.031 HD
BRANCH  25  30
ATOM     30  C   UNL     1       2.753   1.620  12.601  0.00  0.00    +0.080 A 
ATOM     31  C   UNL     1       1.847   2.039  13.566  0.00  0.00    +0.027 A 
ATOM     32  C   UNL     1       1.148   3.218  13.391  0.00  0.00    +0.002 A 
ATOM     33  C   UNL     1       1.350   3.982  12.257  0.00  0.00    +0.003 A 
ATOM     34  C   UNL     1       2.252   3.570  11.292  0.00  0.00    +0.040 A 
ATOM     35  C   UNL     1       2.959   2.394  11.463  0.00  0.00    +0.146 A 
ATOM     36  F   UNL     1       3.844   1.994  10.524  0.00  0.00    -0.204 F 
ENDBRANCH  25  30
ENDBRANCH  20  21
ENDBRANCH  19  20
ENDBRANCH   2  19
TORSDOF 8
