REMARK  Name = ZINC64131228
REMARK  6 active torsions:
REMARK  status: ('A' for Active; 'I' for Inactive)
REMARK    1  A    between atoms: C_1  and  C_2
REMARK    2  A    between atoms: C_3  and  C_18
REMARK    3  A    between atoms: C_5  and  C_8
REMARK    4  A    between atoms: C_11  and  C_14
REMARK    5  A    between atoms: N_20  and  C_21
REMARK    6  A    between atoms: C_25  and  C_27
REMARK                            x       y       z     vdW  Elec       q    Type
REMARK                         _______ _______ _______ _____ _____    ______ ____
ROOT
ATOM      1  C   UNL     1      -0.081   1.467   0.686  0.00  0.00    +0.061 C 
ATOM      2  C   UNL     1      -0.097  -0.037   0.782  0.00  0.00    +0.020 C 
ATOM      3  C   UNL     1      -1.260  -0.691   0.565  0.00  0.00    +0.089 C 
ATOM      4  S   UNL     1      -0.814  -2.408   0.778  0.00  0.00    -0.092 S 
ATOM      5  C   UNL     1       0.968  -2.156   1.161  0.00  0.00    +0.164 C 
ATOM      6  N   UNL     1       1.050  -0.682   1.076  0.00  0.00    -0.331 N 
ATOM      7  H   UNL     1       1.881  -0.206   1.226  0.00  0.00    +0.147 HD
ENDROOT
BRANCH   3   8
ATOM      8  C   UNL     1      -2.528  -0.146   0.245  0.00  0.00    +0.259 C 
ATOM      9  O   UNL     1      -2.696   1.060   0.269  0.00  0.00    -0.269 OA
ATOM     10  N   UNL     1      -3.549  -0.962  -0.086  0.00  0.00    -0.256 N 
ATOM     11  C   UNL     1      -3.352  -2.414  -0.095  0.00  0.00    +0.140 C 
ATOM     12  C   UNL     1      -4.772  -0.433  -0.413  0.00  0.00    +0.132 C 
ATOM     13  N   UNL     1      -5.096   0.830  -0.455  0.00  0.00    -0.138 NA
ATOM     14  N   UNL     1      -6.423   1.022  -0.826  0.00  0.00    -0.152 NA
ATOM     15  C   UNL     1      -7.042  -0.104  -1.048  0.00  0.00    +0.078 C 
ATOM     16  C   UNL     1      -6.021  -1.197  -0.807  0.00  0.00    +0.131 C 
BRANCH  15  17
ATOM     17  C   UNL     1      -8.446  -0.277  -1.456  0.00  0.00    -0.002 A 
ATOM     18  C   UNL     1      -8.968  -1.559  -1.651  0.00  0.00    +0.010 A 
ATOM     19  C   UNL     1     -10.284  -1.713  -2.032  0.00  0.00    +0.001 A 
ATOM     20  C   UNL     1     -11.088  -0.603  -2.223  0.00  0.00    +0.000 A 
ATOM     21  C   UNL     1     -10.578   0.670  -2.032  0.00  0.00    +0.001 A 
ATOM     22  C   UNL     1      -9.266   0.840  -1.645  0.00  0.00    +0.010 A 
ENDBRANCH  15  17
ENDBRANCH   3   8
BRANCH   5  23
ATOM     23  C   UNL     1       1.847  -2.809   0.125  0.00  0.00    -0.017 A 
ATOM     24  C   UNL     1       2.224  -2.105  -1.004  0.00  0.00    +0.007 A 
ATOM     25  C   UNL     1       3.030  -2.704  -1.954  0.00  0.00    +0.013 A 
ATOM     26  C   UNL     1       3.459  -4.006  -1.775  0.00  0.00    +0.055 A 
ATOM     27  C   UNL     1       3.082  -4.709  -0.646  0.00  0.00    +0.013 A 
ATOM     28  C   UNL     1       2.280  -4.109   0.306  0.00  0.00    +0.007 A 
BRANCH  26  29
ATOM     29  C   UNL     1       4.337  -4.659  -2.811  0.00  0.00    +0.417 C 
ATOM     30  F   UNL     1       5.680  -4.422  -2.501  0.00  0.00    -0.166 F 
ATOM     31  F   UNL     1       4.098  -6.038  -2.823  0.00  0.00    -0.166 F 
ATOM     32  F   UNL     1       4.048  -4.125  -4.071  0.00  0.00    -0.166 F 
ENDBRANCH  26  29
ENDBRANCH   5  23
TORSDOF 4
