REMARK  Name = ZINC38989384
REMARK  6 active torsions:
REMARK  status: ('A' for Active; 'I' for Inactive)
REMARK    1  A    between atoms: C_4  and  C_8
REMARK    2  A    between atoms: C_8  and  S_9
REMARK    3  A    between atoms: S_9  and  C_10
REMARK    4  A    between atoms: C_14  and  C_18
REMARK    5  A    between atoms: N_16  and  N_17
REMARK    6  A    between atoms: C_21  and  C_24
REMARK                            x       y       z     vdW  Elec       q    Type
REMARK                         _______ _______ _______ _____ _____    ______ ____
ROOT
ATOM      1  C   UNL     1       5.833  -1.892   1.471  0.00  0.00    +0.214 C 
ATOM      2  N   UNL     1       5.629  -3.128   0.682  0.00  0.00    -0.228 NA
ATOM      3  N   UNL     1       5.972  -2.744  -0.697  0.00  0.00    -0.234 NA
ATOM      4  C   UNL     1       7.125  -1.824  -0.513  0.00  0.00    +0.185 C 
ATOM      5  N   UNL     1       6.788  -1.059   0.711  0.00  0.00    -0.197 NA
ATOM      6  H   UNL     1       6.229  -3.869   1.010  0.00  0.00    +0.143 HD
ATOM      7  H   UNL     1       5.200  -2.272  -1.143  0.00  0.00    +0.143 HD
ENDROOT
BRANCH   4   8
ATOM      8  C   UNL     1       7.258  -0.887  -1.715  0.00  0.00    +0.187 C 
ATOM      9  C   UNL     1       7.448  -1.680  -2.995  0.00  0.00    +0.034 C 
ATOM     10  C   UNL     1       8.657  -1.288  -3.441  0.00  0.00    +0.091 C 
ATOM     11  N   UNL     1       9.201  -0.373  -2.596  0.00  0.00    -0.154 NA
ATOM     12  N   UNL     1       8.495  -0.093  -1.620  0.00  0.00    -0.176 NA
BRANCH  10  13
ATOM     13  C   UNL     1       9.304  -1.785  -4.680  0.00  0.00    +0.002 A 
ATOM     14  C   UNL     1       8.655  -2.723  -5.481  0.00  0.00    +0.011 A 
ATOM     15  C   UNL     1       9.261  -3.182  -6.632  0.00  0.00    +0.020 A 
ATOM     16  C   UNL     1      10.512  -2.713  -6.992  0.00  0.00    +0.041 A 
ATOM     17  C   UNL     1      11.162  -1.781  -6.201  0.00  0.00    +0.020 A 
ATOM     18  C   UNL     1      10.562  -1.311  -5.051  0.00  0.00    +0.011 A 
ATOM     19 CL   UNL     1      11.270  -3.296  -8.442  0.00  0.00    -0.084 Cl
ENDBRANCH  10  13
ENDBRANCH   4   8
BRANCH   5  20
ATOM     20  N   UNL     1       7.979  -0.783   1.498  0.00  0.00    -0.264 NA
ATOM     21  H   UNL     1       7.746  -0.293   2.348  0.00  0.00    +0.137 HD
ATOM     22  H   UNL     1       8.485  -1.633   1.698  0.00  0.00    +0.137 HD
ENDBRANCH   5  20
BRANCH   1  23
ATOM     23  S   UNL     1       4.258  -1.011   1.665  0.00  0.00    -0.119 S 
BRANCH  23  24
ATOM     24  C   UNL     1       3.713  -0.707  -0.038  0.00  0.00    +0.110 C 
BRANCH  24  28
ATOM     25  C   UNL     1      -0.017   1.378   0.010  0.00  0.00    +0.003 A 
ATOM     26  C   UNL     1       1.171   2.086   0.002  0.00  0.00    +0.020 A 
ATOM     27  C   UNL     1       2.378   1.411  -0.013  0.00  0.00    +0.046 A 
ATOM     28  C   UNL     1       2.398   0.028  -0.021  0.00  0.00    -0.001 A 
ATOM     29  C   UNL     1       1.209  -0.680  -0.013  0.00  0.00    +0.046 A 
ATOM     30  C   UNL     1       0.002  -0.004   0.002  0.00  0.00    +0.020 A 
ATOM     31 CL   UNL     1       1.233  -2.416  -0.023  0.00  0.00    -0.083 Cl
ATOM     32 CL   UNL     1       3.869   2.300  -0.024  0.00  0.00    -0.083 Cl
ENDBRANCH  24  28
ENDBRANCH  23  24
ENDBRANCH   1  23
TORSDOF 6
