REMARK  Name = ZINC65330971
REMARK  8 active torsions:
REMARK  status: ('A' for Active; 'I' for Inactive)
REMARK    1  A    between atoms: C_1  and  O_2
REMARK    2  A    between atoms: O_2  and  C_3
REMARK    3  A    between atoms: C_6  and  C_9
REMARK    4  A    between atoms: C_13  and  S_15
REMARK    5  A    between atoms: S_15  and  C_16
REMARK    6  A    between atoms: C_16  and  C_17
REMARK    7  A    between atoms: C_19  and  C_22
REMARK    8  A    between atoms: C_25  and  C_28
REMARK                            x       y       z     vdW  Elec       q    Type
REMARK                         _______ _______ _______ _____ _____    ______ ____
ROOT
ATOM      1  S   UNL     1       4.335  -1.296  -7.623  0.00  0.00    -0.078 S 
ENDROOT
BRANCH   1   6
ATOM      2  C   UNL     1       2.494  -2.493  -4.363  0.00  0.00    +0.079 A 
ATOM      3  C   UNL     1       2.545  -3.878  -4.440  0.00  0.00    +0.098 A 
ATOM      4  C   UNL     1       3.175  -4.468  -5.545  0.00  0.00    +0.253 A 
ATOM      5  N   UNL     1       3.707  -3.671  -6.494  0.00  0.00    -0.302 N 
ATOM      6  C   UNL     1       3.630  -2.316  -6.371  0.00  0.00    +0.170 A 
ATOM      7  N   UNL     1       3.036  -1.753  -5.340  0.00  0.00    -0.223 NA
ATOM      8  O   UNL     1       3.240  -5.683  -5.646  0.00  0.00    -0.268 OA
ATOM      9  H   UNL     1       4.146  -4.063  -7.265  0.00  0.00    +0.171 HD
BRANCH   2  13
ATOM     10  C   UNL     1       0.605  -0.607  -1.055  0.00  0.00    +0.120 A 
ATOM     11  C   UNL     1       1.172   0.165  -2.061  0.00  0.00    +0.046 A 
ATOM     12  C   UNL     1       1.785  -0.443  -3.135  0.00  0.00    +0.013 A 
ATOM     13  C   UNL     1       1.836  -1.836  -3.211  0.00  0.00    +0.001 A 
ATOM     14  C   UNL     1       1.266  -2.608  -2.198  0.00  0.00    +0.013 A 
ATOM     15  C   UNL     1       0.659  -1.993  -1.124  0.00  0.00    +0.046 A 
BRANCH  10  17
ATOM     16  C   UNL     1      -0.017   1.425   0.010  0.00  0.00    +0.277 C 
ATOM     17  O   UNL     1       0.002  -0.004   0.002  0.00  0.00    -0.495 OA
ENDBRANCH  10  17
ENDBRANCH   2  13
ENDBRANCH   1   6
BRANCH   1  18
ATOM     18  C   UNL     1       4.001   0.394  -7.052  0.00  0.00    +0.176 C 
BRANCH  18  19
ATOM     19  C   UNL     1       4.560   1.379  -8.046  0.00  0.00    +0.238 A 
ATOM     20  N   UNL     1       3.920   1.876  -9.066  0.00  0.00    -0.191 NA
ATOM     21  C   UNL     1       4.718   2.724  -9.741  0.00  0.00    +0.202 A 
ATOM     22  N   UNL     1       5.882   2.769  -9.143  0.00  0.00    -0.056 NA
ATOM     23  O   UNL     1       5.795   1.897  -8.025  0.00  0.00    -0.337 OA
BRANCH  21  24
ATOM     24  C   UNL     1       4.341   3.481 -10.960  0.00  0.00    +0.022 A 
ATOM     25  C   UNL     1       3.062   3.349 -11.498  0.00  0.00    +0.012 A 
ATOM     26  C   UNL     1       2.717   4.056 -12.632  0.00  0.00    +0.013 A 
ATOM     27  C   UNL     1       3.638   4.894 -13.235  0.00  0.00    +0.055 A 
ATOM     28  C   UNL     1       4.909   5.029 -12.705  0.00  0.00    +0.013 A 
ATOM     29  C   UNL     1       5.262   4.332 -11.568  0.00  0.00    +0.012 A 
BRANCH  27  30
ATOM     30  C   UNL     1       3.256   5.662 -14.474  0.00  0.00    +0.417 C 
ATOM     31  F   UNL     1       2.718   6.901 -14.107  0.00  0.00    -0.166 F 
ATOM     32  F   UNL     1       4.391   5.863 -15.267  0.00  0.00    -0.166 F 
ATOM     33  F   UNL     1       2.304   4.936 -15.198  0.00  0.00    -0.166 F 
ENDBRANCH  27  30
ENDBRANCH  21  24
ENDBRANCH  18  19
ENDBRANCH   1  18
TORSDOF 7
