REMARK  Name = ZINC15015559
REMARK  5 active torsions:
REMARK  status: ('A' for Active; 'I' for Inactive)
REMARK    1  A    between atoms: N_6  and  C_7
REMARK    2  A    between atoms: C_7  and  C_9
REMARK    3  A    between atoms: C_7  and  C_20
REMARK    4  A    between atoms: C_18  and  O_19
REMARK    5  A    between atoms: C_22  and  O_27
REMARK                            x       y       z     vdW  Elec       q    Type
REMARK                         _______ _______ _______ _____ _____    ______ ____
ROOT
ATOM      1  C   UNL     1       0.002  -0.004   0.002  0.00  0.00    +0.137 C 
ENDROOT
BRANCH   1   2
ATOM      2  C   UNL     1       0.232   1.485  -0.018  0.00  0.00    +0.021 A 
ATOM      3  C   UNL     1       0.562   2.112  -1.217  0.00  0.00    +0.010 A 
ATOM      4  C   UNL     1       0.776   3.455  -1.269  0.00  0.00    +0.010 A 
ATOM      5  C   UNL     1       0.663   4.224  -0.099  0.00  0.00    +0.004 A 
ATOM      6  C   UNL     1       0.878   5.616  -0.114  0.00  0.00    +0.011 A 
ATOM      7  C   UNL     1       0.751   6.299   1.062  0.00  0.00    +0.020 A 
ATOM      8  C   UNL     1       0.419   5.617   2.231  0.00  0.00    +0.111 A 
ATOM      9  N   UNL     1       0.221   4.321   2.239  0.00  0.00    -0.251 NA
ATOM     10  C   UNL     1       0.329   3.594   1.124  0.00  0.00    +0.113 A 
ATOM     11  C   UNL     1       0.109   2.200   1.139  0.00  0.00    +0.148 A 
BRANCH  11  12
ATOM     12  O   UNL     1      -0.219   1.573   2.298  0.00  0.00    -0.504 OA
ATOM     13  H   UNL     1       0.543   1.261   2.805  0.00  0.00    +0.292 HD
ENDBRANCH  11  12
ENDBRANCH   1   2
BRANCH   1  19
ATOM     14  C   UNL     1      -0.295  -3.863   1.622  0.00  0.00    +0.005 A 
ATOM     15  C   UNL     1       0.839  -4.454   2.162  0.00  0.00    +0.018 A 
ATOM     16  C   UNL     1       2.032  -3.760   2.153  0.00  0.00    +0.084 A 
ATOM     17  C   UNL     1       1.047  -1.950   1.115  0.00  0.00    +0.097 A 
ATOM     18  C   UNL     1      -0.188  -2.591   1.090  0.00  0.00    +0.041 A 
ATOM     19  N   UNL     1       1.170  -0.671   0.584  0.00  0.00    -0.320 N 
ATOM     20  H   UNL     1       2.028  -0.220   0.598  0.00  0.00    +0.148 HD
ATOM     21  N   UNL     1       2.177  -2.511   1.634  0.00  0.00    -0.350 N 
ATOM     22  H   UNL     1       3.079  -2.022   1.633  0.00  0.00    +0.166 HD
ENDBRANCH   1  19
BRANCH   1  23
ATOM     23  C   UNL     1      -0.210  -0.499  -1.406  0.00  0.00    -0.005 A 
ATOM     24  C   UNL     1       0.861  -0.975  -2.138  0.00  0.00    +0.052 A 
ATOM     25  C   UNL     1       0.664  -1.435  -3.432  0.00  0.00    +0.117 A 
ATOM     26  C   UNL     1      -0.605  -1.406  -3.992  0.00  0.00    +0.046 A 
ATOM     27  C   UNL     1      -1.671  -0.924  -3.258  0.00  0.00    +0.019 A 
ATOM     28  C   UNL     1      -1.474  -0.471  -1.965  0.00  0.00    +0.023 A 
ATOM     29 BR   UNL     1      -2.936   0.188  -0.963  0.00  0.00    -0.050 Br
BRANCH  25  30
ATOM     30  O   UNL     1       1.715  -1.909  -4.152  0.00  0.00    -0.507 OA
ATOM     31  H   UNL     1       2.174  -1.233  -4.670  0.00  0.00    +0.292 HD
ENDBRANCH  25  30
ENDBRANCH   1  23
TORSDOF 5
