REMARK  Name = ZINC07878766
REMARK  7 active torsions:
REMARK  status: ('A' for Active; 'I' for Inactive)
REMARK    1  A    between atoms: C_1  and  C_2
REMARK    2  A    between atoms: C_3  and  N_14
REMARK    3  A    between atoms: C_4  and  C_13
REMARK    4  A    between atoms: N_5  and  C_7
REMARK    5  A    between atoms: C_15  and  C_17
REMARK    6  A    between atoms: C_17  and  N_18
REMARK    7  A    between atoms: C_26  and  C_28
REMARK                            x       y       z     vdW  Elec       q    Type
REMARK                         _______ _______ _______ _____ _____    ______ ____
ROOT
ATOM      1  N   UNL     1      -0.023  -0.286  -2.452  0.00  0.00    -0.284 N 
ATOM      2  C   UNL     1       0.594   0.875  -2.748  0.00  0.00    +0.201 C 
ATOM      3  O   UNL     1       1.242   1.452  -1.900  0.00  0.00    -0.278 OA
ATOM      4  H   UNL     1      -0.506  -0.768  -3.142  0.00  0.00    +0.155 HD
ENDROOT
BRANCH   1   7
ATOM      5  C   UNL     1      -1.069   1.205   0.075  0.00  0.00    +0.069 C 
ATOM      6  C   UNL     1      -0.427  -0.157   0.017  0.00  0.00    +0.082 A 
ATOM      7  C   UNL     1       0.034  -0.799  -1.143  0.00  0.00    +0.078 A 
ATOM      8  C   UNL     1       0.544  -2.003  -0.777  0.00  0.00    +0.063 A 
ATOM      9  N   UNL     1       0.407  -2.113   0.572  0.00  0.00    -0.235 N 
ATOM     10  N   UNL     1      -0.199  -0.940   1.040  0.00  0.00    -0.170 NA
ATOM     11  C   UNL     1       1.150  -3.030  -1.698  0.00  0.00    +0.068 C 
BRANCH   9  12
ATOM     12  C   UNL     1       0.805  -3.205   1.355  0.00  0.00    +0.066 A 
ATOM     13  C   UNL     1       2.048  -3.790   1.152  0.00  0.00    +0.028 A 
ATOM     14  C   UNL     1       2.438  -4.866   1.925  0.00  0.00    +0.002 A 
ATOM     15  C   UNL     1       1.593  -5.360   2.901  0.00  0.00    +0.000 A 
ATOM     16  C   UNL     1       0.354  -4.780   3.106  0.00  0.00    +0.002 A 
ATOM     17  C   UNL     1      -0.039  -3.700   2.340  0.00  0.00    +0.028 A 
ENDBRANCH   9  12
ENDBRANCH   1   7
BRANCH   2  18
ATOM     18  C   UNL     1       0.479   1.458  -4.133  0.00  0.00    +0.020 C 
BRANCH  18  19
ATOM     19  N   UNL     1       1.235   2.716  -4.200  0.00  0.00    +0.390 N 
ATOM     20  C   UNL     1       0.630   3.692  -3.283  0.00  0.00    -0.072 C 
ATOM     21  C   UNL     1       1.600   4.873  -3.104  0.00  0.00    +0.024 C 
ATOM     22  C   UNL     1       2.067   5.282  -4.463  0.00  0.00    -0.010 A 
ATOM     23  C   UNL     1       1.917   4.572  -5.617  0.00  0.00    -0.051 A 
ATOM     24  C   UNL     1       2.430   5.153  -6.774  0.00  0.00    +0.010 A 
ATOM     25  C   UNL     1       3.041   6.359  -6.713  0.00  0.00    +0.045 A 
ATOM     26  S   UNL     1       2.921   6.746  -4.972  0.00  0.00    -0.101 S 
ATOM     27  C   UNL     1       1.219   3.217  -5.579  0.00  0.00    -0.039 C 
ATOM     28  C   UNL     1       1.956   2.234  -6.491  0.00  0.00    -0.008 C 
ATOM     29  H   UNL     1       2.189   2.545  -3.920  0.00  0.00    -0.080 HD
ENDBRANCH  18  19
ENDBRANCH   2  18
TORSDOF 4
