REMARK  Name = ZINC63122375
REMARK  7 active torsions:
REMARK  status: ('A' for Active; 'I' for Inactive)
REMARK    1  A    between atoms: C_7  and  C_10
REMARK    2  A    between atoms: C_10  and  C_12
REMARK    3  A    between atoms: C_10  and  C_31
REMARK    4  A    between atoms: C_12  and  N_13
REMARK    5  A    between atoms: C_14  and  C_16
REMARK    6  A    between atoms: C_20  and  N_22
REMARK    7  A    between atoms: C_23  and  C_25
REMARK                            x       y       z     vdW  Elec       q    Type
REMARK                         _______ _______ _______ _____ _____    ______ ____
ROOT
ATOM      1  N   UNL     1      -0.315  -4.887  -1.534  0.00  0.00    -0.310 N 
ATOM      2  C   UNL     1      -0.304  -5.763  -2.558  0.00  0.00    +0.244 C 
ATOM      3  O   UNL     1       0.427  -5.575  -3.511  0.00  0.00    -0.270 OA
ATOM      4  H   UNL     1      -0.898  -5.037  -0.774  0.00  0.00    +0.149 HD
ENDROOT
BRANCH   2   5
ATOM      5  C   UNL     1      -1.181  -6.953  -2.523  0.00  0.00    +0.038 A 
ATOM      6  C   UNL     1      -2.025  -7.169  -1.432  0.00  0.00    +0.013 A 
ATOM      7  C   UNL     1      -2.842  -8.280  -1.402  0.00  0.00    +0.003 A 
ATOM      8  C   UNL     1      -2.828  -9.183  -2.448  0.00  0.00    +0.023 A 
ATOM      9  C   UNL     1      -1.991  -8.978  -3.538  0.00  0.00    +0.034 A 
ATOM     10  C   UNL     1      -1.171  -7.861  -3.581  0.00  0.00    +0.036 A 
BRANCH   9  11
ATOM     11  N   UNL     1      -1.981  -9.895  -4.596  0.00  0.00    -0.283 N 
ATOM     12  C   UNL     1      -0.839 -10.132  -5.271  0.00  0.00    +0.246 C 
ATOM     13  O   UNL     1       0.200  -9.625  -4.903  0.00  0.00    -0.273 OA
ATOM     14  H   UNL     1      -2.796 -10.360  -4.842  0.00  0.00    +0.155 HD
BRANCH  12  15
ATOM     15  C   UNL     1      -0.852 -11.028  -6.482  0.00  0.00    +0.204 C 
ATOM     16  C   UNL     1      -1.218 -12.468  -6.065  0.00  0.00    +0.043 C 
ATOM     17  C   UNL     1      -0.280 -13.320  -6.962  0.00  0.00    +0.031 C 
ATOM     18  C   UNL     1       0.970 -12.406  -7.031  0.00  0.00    +0.161 C 
ATOM     19  O   UNL     1       0.452 -11.065  -7.074  0.00  0.00    -0.367 OA
ENDBRANCH  12  15
ENDBRANCH   9  11
ENDBRANCH   2   5
BRANCH   1  20
ATOM     20  C   UNL     1       0.554  -3.708  -1.569  0.00  0.00    +0.117 C 
BRANCH  20  21
ATOM     21  C   UNL     1       0.348  -2.885  -0.296  0.00  0.00    +0.071 C 
BRANCH  21  28
ATOM     22  C   UNL     1      -0.851   1.543  -0.194  0.00  0.00    +0.001 A 
ATOM     23  C   UNL     1       0.234   2.422  -0.313  0.00  0.00    +0.002 A 
ATOM     24  C   UNL     1       1.508   1.995  -0.444  0.00  0.00    +0.026 A 
ATOM     25  C   UNL     1       1.800   0.603  -0.467  0.00  0.00    +0.043 A 
ATOM     26  N   UNL     1       2.932  -0.050  -0.582  0.00  0.00    -0.380 N 
ATOM     27  C   UNL     1       2.648  -1.488  -0.544  0.00  0.00    +0.145 C 
ATOM     28  C   UNL     1       1.149  -1.611  -0.386  0.00  0.00    -0.032 C 
ATOM     29  C   UNL     1       0.671  -0.346  -0.343  0.00  0.00    -0.000 A 
ATOM     30  C   UNL     1      -0.683   0.201  -0.204  0.00  0.00    +0.010 A 
ATOM     31  H   UNL     1       3.810   0.352  -0.677  0.00  0.00    +0.160 HD
ENDBRANCH  21  28
BRANCH  21  32
ATOM     32  C   UNL     1       0.807  -3.683   0.897  0.00  0.00    -0.002 A 
ATOM     33  C   UNL     1       0.096  -4.089   1.978  0.00  0.00    +0.012 A 
ATOM     34  C   UNL     1       0.733  -4.821   2.963  0.00  0.00    +0.008 A 
ATOM     35  C   UNL     1       2.049  -5.111   2.819  0.00  0.00    +0.045 A 
ATOM     36  S   UNL     1       2.427  -4.346   1.251  0.00  0.00    -0.101 S 
ENDBRANCH  21  32
ENDBRANCH  20  21
ENDBRANCH   1  20
TORSDOF 7
