REMARK  Name = ZINC08677383
REMARK  10 active torsions:
REMARK  status: ('A' for Active; 'I' for Inactive)
REMARK    1  A    between atoms: C_1  and  C_2
REMARK    2  A    between atoms: C_7  and  C_13
REMARK    3  A    between atoms: C_8  and  O_12
REMARK    4  A    between atoms: C_13  and  C_15
REMARK    5  A    between atoms: C_13  and  N_64
REMARK    6  A    between atoms: N_19  and  C_20
REMARK    7  A    between atoms: C_25  and  C_26
REMARK    8  A    between atoms: C_25  and  N_64
REMARK    9  A    between atoms: C_31  and  C_32
REMARK   10  A    between atoms: C_31  and  N_64
REMARK                            x       y       z     vdW  Elec       q    Type
REMARK                         _______ _______ _______ _____ _____    ______ ____
ROOT
ATOM      1  C   UNL     1       3.945  -0.931  -0.143  0.00  0.00    +0.040 C 
ENDROOT
BRANCH   1   8
ATOM      2  C   UNL     1      -0.156   5.689   1.339  0.00  0.00    +0.044 C 
ATOM      3  C   UNL     1       0.766   4.568   0.933  0.00  0.00    -0.048 A 
ATOM      4  C   UNL     1       1.870   4.845   0.131  0.00  0.00    +0.004 A 
ATOM      5  C   UNL     1       2.722   3.853  -0.251  0.00  0.00    +0.010 A 
ATOM      6  C   UNL     1       2.484   2.534   0.167  0.00  0.00    +0.001 A 
ATOM      7  C   UNL     1       3.343   1.482  -0.208  0.00  0.00    +0.017 A 
ATOM      8  C   UNL     1       3.054   0.225   0.233  0.00  0.00    +0.008 A 
ATOM      9  C   UNL     1       1.928   0.009   1.037  0.00  0.00    +0.215 A 
ATOM     10  N   UNL     1       1.130   0.996   1.384  0.00  0.00    -0.213 NA
ATOM     11  C   UNL     1       1.362   2.250   0.982  0.00  0.00    +0.075 A 
ATOM     12  C   UNL     1       0.509   3.301   1.361  0.00  0.00    +0.031 A 
BRANCH   9  13
ATOM     13  O   UNL     1       1.653  -1.247   1.468  0.00  0.00    -0.492 OA
ATOM     14  H   UNL     1       1.085  -1.752   0.870  0.00  0.00    +0.294 HD
ENDBRANCH   9  13
ENDBRANCH   1   8
BRANCH   1  15
ATOM     15  C   UNL     1       4.548  -1.527   1.103  0.00  0.00    +0.143 A 
ATOM     16  N   UNL     1       5.054  -0.870   2.118  0.00  0.00    -0.115 NA
ATOM     17  N   UNL     1       5.465  -1.732   2.984  0.00  0.00    -0.023 NA
ATOM     18  N   UNL     1       5.241  -2.921   2.544  0.00  0.00    -0.044 NA
ATOM     19  N   UNL     1       4.677  -2.836   1.387  0.00  0.00    -0.227 N 
BRANCH  19  20
ATOM     20  C   UNL     1       4.255  -3.955   0.541  0.00  0.00    +0.111 C 
ATOM     21  C   UNL     1       3.207  -4.812   1.282  0.00  0.00    +0.027 C 
ATOM     22  C   UNL     1       3.543  -6.266   0.864  0.00  0.00    +0.002 C 
ATOM     23  C   UNL     1       5.091  -6.262   0.825  0.00  0.00    +0.002 C 
ATOM     24  C   UNL     1       5.452  -4.877   0.250  0.00  0.00    +0.027 C 
ENDBRANCH  19  20
ENDBRANCH   1  15
BRANCH   1  25
ATOM     25  N   UNL     1       5.008  -0.431  -1.040  0.00  0.00    +0.397 N 
ATOM     26  H   UNL     1       4.665   0.403  -1.531  0.00  0.00    -0.079 HD
BRANCH  25  27
ATOM     27  C   UNL     1       5.354  -1.466  -2.038  0.00  0.00    -0.001 C 
BRANCH  27  28
ATOM     28  C   UNL     1       4.256  -1.532  -3.067  0.00  0.00    +0.089 A 
ATOM     29  C   UNL     1       4.233  -0.867  -4.237  0.00  0.00    +0.042 A 
ATOM     30  C   UNL     1       3.027  -1.220  -4.885  0.00  0.00    +0.041 A 
ATOM     31  C   UNL     1       2.385  -2.079  -4.073  0.00  0.00    +0.195 A 
ATOM     32  O   UNL     1       3.137  -2.269  -2.976  0.00  0.00    -0.470 OA
ENDBRANCH  27  28
ENDBRANCH  25  27
BRANCH  25  33
ATOM     33  C   UNL     1       6.205  -0.068  -0.253  0.00  0.00    -0.034 C 
BRANCH  33  34
ATOM     34  C   UNL     1       6.033   1.338   0.263  0.00  0.00    -0.027 A 
ATOM     35  C   UNL     1       5.601   1.754   1.478  0.00  0.00    +0.009 A 
ATOM     36  C   UNL     1       5.522   3.111   1.732  0.00  0.00    +0.008 A 
ATOM     37  C   UNL     1       5.880   3.984   0.759  0.00  0.00    +0.045 A 
ATOM     38  S   UNL     1       6.352   2.886  -0.567  0.00  0.00    -0.103 S 
ENDBRANCH  33  34
ENDBRANCH  25  33
ENDBRANCH   1  25
TORSDOF 9
