REMARK  Name = ZINC08185111
REMARK  7 active torsions:
REMARK  status: ('A' for Active; 'I' for Inactive)
REMARK    1  A    between atoms: C_1  and  C_2
REMARK    2  A    between atoms: C_2  and  C_3
REMARK    3  A    between atoms: C_3  and  N_4
REMARK    4  A    between atoms: N_4  and  C_5
REMARK    5  A    between atoms: C_11  and  C_13
REMARK    6  A    between atoms: C_13  and  N_14
REMARK    7  A    between atoms: C_28  and  O_29
REMARK                            x       y       z     vdW  Elec       q    Type
REMARK                         _______ _______ _______ _____ _____    ______ ____
ROOT
ATOM      1  N   UNL     1      -2.094  -3.261   3.186  0.00  0.00    -0.215 N 
ATOM      2  C   UNL     1      -3.111  -3.901   2.568  0.00  0.00    +0.256 C 
ATOM      3  O   UNL     1      -3.534  -3.709   1.448  0.00  0.00    -0.272 OA
ATOM      4  C   UNL     1      -3.607  -4.910   3.581  0.00  0.00    +0.168 C 
ATOM      5  C   UNL     1      -3.442  -6.324   3.038  0.00  0.00    +0.045 C 
ATOM      6  C   UNL     1      -4.484  -6.543   1.934  0.00  0.00    +0.008 C 
ATOM      7  C   UNL     1      -5.868  -6.589   2.578  0.00  0.00    +0.035 C 
ATOM      8  C   UNL     1      -6.082  -5.394   3.470  0.00  0.00    -0.041 A 
ATOM      9  C   UNL     1      -5.039  -4.623   3.936  0.00  0.00    -0.008 A 
ATOM     10  C   UNL     1      -5.302  -3.540   4.764  0.00  0.00    +0.007 A 
ATOM     11  C   UNL     1      -6.598  -3.227   5.119  0.00  0.00    +0.000 A 
ATOM     12  C   UNL     1      -7.644  -3.996   4.646  0.00  0.00    +0.000 A 
ATOM     13  C   UNL     1      -7.385  -5.075   3.826  0.00  0.00    +0.004 A 
ATOM     14  N   UNL     1      -2.741  -4.705   4.748  0.00  0.00    -0.216 NA
ATOM     15  C   UNL     1      -1.905  -3.760   4.450  0.00  0.00    +0.286 C 
ENDROOT
BRANCH  15  16
ATOM     16  O   UNL     1      -0.952  -3.311   5.295  0.00  0.00    -0.481 OA
ATOM     17  H   UNL     1      -0.942  -3.761   6.151  0.00  0.00    +0.295 HD
ENDBRANCH  15  16
BRANCH   1  18
ATOM     18  C   UNL     1      -1.298  -2.187   2.586  0.00  0.00    +0.214 C 
BRANCH  18  20
ATOM     19  N   UNL     1       0.762  -1.976   1.234  0.00  0.00    -0.274 N 
ATOM     20  C   UNL     1      -0.115  -2.780   1.865  0.00  0.00    +0.237 C 
ATOM     21  O   UNL     1       0.047  -3.982   1.854  0.00  0.00    -0.274 OA
BRANCH  19  22
ATOM     22  C   UNL     1       1.793  -2.527   0.477  0.00  0.00    +0.010 C 
ATOM     23  C   UNL     1       3.019  -2.326   0.873  0.00  0.00    -0.008 C 
ATOM     24  C   UNL     1       4.228  -2.849   0.155  0.00  0.00    +0.029 C 
ATOM     25  C   UNL     1       3.825  -3.965  -0.811  0.00  0.00    +0.004 C 
ATOM     26  C   UNL     1       2.644  -3.474  -1.657  0.00  0.00    +0.006 C 
ATOM     27  C   UNL     1       1.426  -3.323  -0.741  0.00  0.00    +0.051 C 
ENDBRANCH  19  22
BRANCH  19  28
ATOM     28  C   UNL     1       0.631  -0.521   1.343  0.00  0.00    +0.113 C 
BRANCH  28  30
ATOM     29  C   UNL     1      -0.298   1.531   0.261  0.00  0.00    +0.005 C 
ATOM     30  C   UNL     1      -0.162   0.011   0.147  0.00  0.00    +0.016 C 
ENDBRANCH  28  30
ENDBRANCH  19  28
ENDBRANCH  18  20
ENDBRANCH   1  18
TORSDOF 6
