REMARK  Name = ZINC03437856
REMARK  10 active torsions:
REMARK  status: ('A' for Active; 'I' for Inactive)
REMARK    1  A    between atoms: C_1  and  C_2
REMARK    2  A    between atoms: C_5  and  N_9
REMARK    3  A    between atoms: C_6  and  C_8
REMARK    4  A    between atoms: C_19  and  N_20
REMARK    5  A    between atoms: N_20  and  N_21
REMARK    6  A    between atoms: C_22  and  C_24
REMARK    7  A    between atoms: C_24  and  N_25
REMARK    8  A    between atoms: N_25  and  C_26
REMARK    9  A    between atoms: N_25  and  S_27
REMARK   10  A    between atoms: S_27  and  C_30
REMARK                            x       y       z     vdW  Elec       q    Type
REMARK                         _______ _______ _______ _____ _____    ______ ____
ROOT
ATOM      1  N   UNL     1       6.860  -1.723  -4.878  0.00  0.00    -0.202 N 
ATOM      2  C   UNL     1       7.142  -2.254  -6.079  0.00  0.00    +0.258 C 
ATOM      3  O   UNL     1       8.290  -2.244  -6.482  0.00  0.00    -0.269 OA
ATOM      4  C   UNL     1       6.089  -2.846  -6.913  0.00  0.00    +0.046 A 
ATOM      5  C   UNL     1       6.376  -3.400  -8.162  0.00  0.00    +0.014 A 
ATOM      6  C   UNL     1       5.359  -3.946  -8.915  0.00  0.00    +0.001 A 
ATOM      7  C   UNL     1       4.054  -3.953  -8.445  0.00  0.00    +0.001 A 
ATOM      8  C   UNL     1       3.749  -3.410  -7.213  0.00  0.00    +0.009 A 
ATOM      9  C   UNL     1       4.762  -2.860  -6.437  0.00  0.00    +0.000 A 
ATOM     10  C   UNL     1       4.489  -2.261  -5.113  0.00  0.00    +0.060 C 
ATOM     11  C   UNL     1       3.213  -2.239  -4.595  0.00  0.00    +0.101 C 
ATOM     12  C   UNL     1       5.619  -1.697  -4.366  0.00  0.00    +0.259 C 
ATOM     13  O   UNL     1       5.429  -1.200  -3.271  0.00  0.00    -0.269 OA
ENDROOT
BRANCH   1  18
ATOM     14  C   UNL     1      11.096   0.512  -1.835  0.00  0.00    +0.044 C 
ATOM     15  C   UNL     1       9.972  -0.082  -2.643  0.00  0.00    -0.050 A 
ATOM     16  C   UNL     1       9.647  -1.418  -2.497  0.00  0.00    +0.005 A 
ATOM     17  C   UNL     1       8.613  -1.964  -3.232  0.00  0.00    +0.024 A 
ATOM     18  C   UNL     1       7.906  -1.171  -4.127  0.00  0.00    +0.047 A 
ATOM     19  C   UNL     1       8.234   0.170  -4.271  0.00  0.00    -0.028 A 
ATOM     20  C   UNL     1       9.266   0.711  -3.529  0.00  0.00    +0.008 A 
ATOM     21  C   UNL     1       7.465   1.035  -5.237  0.00  0.00    +0.046 C 
ENDBRANCH   1  18
BRANCH  11  22
ATOM     22  N   UNL     1       2.953  -1.533  -3.463  0.00  0.00    -0.271 N 
ATOM     23  H   UNL     1       3.643  -0.980  -3.067  0.00  0.00    +0.169 HD
BRANCH  22  24
ATOM     24  N   UNL     1       1.686  -1.606  -2.869  0.00  0.00    -0.236 N 
ATOM     25  C   UNL     1       1.427  -0.906  -1.746  0.00  0.00    +0.245 C 
ATOM     26  O   UNL     1       2.291  -0.214  -1.251  0.00  0.00    -0.273 OA
ATOM     27  H   UNL     1       0.995  -2.160  -3.265  0.00  0.00    +0.173 HD
BRANCH  25  28
ATOM     28  C   UNL     1       0.065  -0.985  -1.107  0.00  0.00    +0.206 C 
BRANCH  28  29
ATOM     29  N   UNL     1       0.038  -0.141   0.090  0.00  0.00    -0.171 NA
ATOM     30  C   UNL     1      -0.255   1.290  -0.028  0.00  0.00    +0.132 C 
BRANCH  29  31
ATOM     31  S   UNL     1       0.339  -0.803   1.578  0.00  0.00    +0.061 S 
ATOM     32  O   UNL     1       1.106  -1.978   1.352  0.00  0.00    -0.153 OA
ATOM     33  O   UNL     1       0.793   0.255   2.410  0.00  0.00    -0.153 OA
BRANCH  31  34
ATOM     34  C   UNL     1      -1.208  -1.332   2.235  0.00  0.00    +0.106 A 
ATOM     35  C   UNL     1      -1.963  -0.468   3.006  0.00  0.00    +0.030 A 
ATOM     36  C   UNL     1      -3.179  -0.880   3.517  0.00  0.00    +0.022 A 
ATOM     37  C   UNL     1      -3.636  -2.162   3.266  0.00  0.00    +0.041 A 
ATOM     38  C   UNL     1      -2.878  -3.028   2.499  0.00  0.00    +0.022 A 
ATOM     39  C   UNL     1      -1.664  -2.613   1.984  0.00  0.00    +0.030 A 
ATOM     40 CL   UNL     1      -5.161  -2.683   3.913  0.00  0.00    -0.084 Cl
ENDBRANCH  31  34
ENDBRANCH  29  31
ENDBRANCH  28  29
ENDBRANCH  25  28
ENDBRANCH  22  24
ENDBRANCH  11  22
TORSDOF 7
