REMARK  Name = ZINC20347748
REMARK  12 active torsions:
REMARK  status: ('A' for Active; 'I' for Inactive)
REMARK    1  A    between atoms: C_1  and  C_2
REMARK    2  A    between atoms: C_5  and  C_8
REMARK    3  A    between atoms: C_10  and  C_33
REMARK    4  A    between atoms: C_14  and  S_18
REMARK    5  A    between atoms: C_15  and  C_16
REMARK    6  A    between atoms: S_18  and  C_19
REMARK    7  A    between atoms: C_19  and  C_20
REMARK    8  A    between atoms: N_22  and  C_23
REMARK    9  A    between atoms: C_26  and  N_30
REMARK   10  A    between atoms: C_28  and  C_29
REMARK   11  A    between atoms: C_33  and  O_35
REMARK   12  A    between atoms: O_35  and  C_36
REMARK                            x       y       z     vdW  Elec       q    Type
REMARK                         _______ _______ _______ _____ _____    ______ ____
ROOT
ATOM      1  C   UNL     1      -2.691  -2.543   0.010  0.00  0.00    +0.104 C 
ATOM      2  C   UNL     1      -1.232  -2.084   0.004  0.00  0.00    +0.111 C 
ATOM      3  C   UNL     1      -0.528  -2.625   1.221  0.00  0.00    +0.252 C 
ATOM      4  O   UNL     1       0.640  -2.939   1.150  0.00  0.00    -0.270 OA
ATOM      5  N   UNL     1      -1.188  -2.763   2.386  0.00  0.00    -0.275 N 
ATOM      6  C   UNL     1      -2.519  -2.416   2.488  0.00  0.00    +0.083 C 
ATOM      7  C   UNL     1      -3.289  -2.297   1.371  0.00  0.00    +0.069 C 
ATOM      8  H   UNL     1      -0.665  -3.156   3.271  0.00  0.00    +0.156 HD
ENDROOT
BRANCH   1  13
ATOM      9  C   UNL     1      -2.942  -8.185  -1.211  0.00  0.00    +0.044 C 
ATOM     10  C   UNL     1      -2.876  -6.714  -0.893  0.00  0.00    -0.050 A 
ATOM     11  C   UNL     1      -3.516  -5.801  -1.710  0.00  0.00    +0.003 A 
ATOM     12  C   UNL     1      -3.457  -4.451  -1.417  0.00  0.00    +0.005 A 
ATOM     13  C   UNL     1      -2.757  -4.014  -0.308  0.00  0.00    -0.034 A 
ATOM     14  C   UNL     1      -2.111  -4.927   0.505  0.00  0.00    +0.005 A 
ATOM     15  C   UNL     1      -2.176  -6.277   0.216  0.00  0.00    +0.003 A 
ENDBRANCH   1  13
BRANCH   7  16
ATOM     16  C   UNL     1      -4.670  -1.936   1.491  0.00  0.00    +0.098 C 
ATOM     17  N   UNL     1      -5.765  -1.651   1.586  0.00  0.00    -0.191 NA
ENDBRANCH   7  16
BRANCH   2  18
ATOM     18  C   UNL     1      -1.180  -0.578   0.022  0.00  0.00    +0.341 C 
ATOM     19  O   UNL     1      -2.204   0.062   0.038  0.00  0.00    -0.245 OA
BRANCH  18  20
ATOM     20  O   UNL     1       0.005   0.052   0.021  0.00  0.00    -0.465 OA
ATOM     21  C   UNL     1      -0.020   1.504   0.039  0.00  0.00    +0.280 C 
ENDBRANCH  18  20
ENDBRANCH   2  18
BRANCH   6  22
ATOM     22  S   UNL     1      -3.228  -2.127   4.074  0.00  0.00    -0.100 S 
BRANCH  22  23
ATOM     23  C   UNL     1      -1.783  -2.423   5.123  0.00  0.00    +0.171 C 
BRANCH  23  24
ATOM     24  C   UNL     1      -2.163  -2.227   6.569  0.00  0.00    +0.227 C 
ATOM     25  O   UNL     1      -3.299  -1.918   6.861  0.00  0.00    -0.275 OA
ATOM     26  N   UNL     1      -1.241  -2.396   7.537  0.00  0.00    -0.285 N 
ATOM     27  H   UNL     1      -0.236  -2.764   7.281  0.00  0.00    +0.155 HD
BRANCH  26  28
ATOM     28  C   UNL     1      -1.561  -2.102   8.867  0.00  0.00    +0.036 A 
ATOM     29  C   UNL     1      -2.569  -1.192   9.155  0.00  0.00    +0.026 A 
ATOM     30  C   UNL     1      -2.883  -0.904  10.469  0.00  0.00    +0.034 A 
ATOM     31  C   UNL     1      -2.194  -1.522  11.497  0.00  0.00    +0.127 A 
ATOM     32  C   UNL     1      -1.190  -2.429  11.213  0.00  0.00    +0.038 A 
ATOM     33  C   UNL     1      -0.875  -2.725   9.901  0.00  0.00    -0.027 A 
ATOM     34  C   UNL     1       0.215  -3.719   9.592  0.00  0.00    +0.046 C 
BRANCH  31  35
ATOM     35  N   UNL     1      -2.533  -1.212  12.904  0.00  0.00    +0.056 N 
ATOM     36  O   UNL     1      -3.417  -0.414  13.156  0.00  0.00    -0.126 OA
ATOM     37  O   UNL     1      -1.927  -1.756  13.811  0.00  0.00    -0.126 OA
ENDBRANCH  31  35
ENDBRANCH  26  28
ENDBRANCH  23  24
ENDBRANCH  22  23
ENDBRANCH   6  22
TORSDOF 9
