REMARK  Name = ZINC20133411
REMARK  8 active torsions:
REMARK  status: ('A' for Active; 'I' for Inactive)
REMARK    1  A    between atoms: C_1  and  C_2
REMARK    2  A    between atoms: C_2  and  C_3
REMARK    3  A    between atoms: C_3  and  C_4
REMARK    4  A    between atoms: C_4  and  C_5
REMARK    5  A    between atoms: C_15  and  C_17
REMARK    6  A    between atoms: C_17  and  C_19
REMARK    7  A    between atoms: C_19  and  C_20
REMARK    8  A    between atoms: C_19  and  C_21
REMARK                            x       y       z     vdW  Elec       q    Type
REMARK                         _______ _______ _______ _____ _____    ______ ____
ROOT
ATOM      1  C   UNL     1      -0.957   3.529   1.883  0.00  0.00    -0.046 A 
ATOM      2  C   UNL     1      -1.635   4.161   0.851  0.00  0.00    +0.006 A 
ATOM      3  C   UNL     1      -1.594   5.522   0.696  0.00  0.00    +0.029 A 
ATOM      4  C   UNL     1      -0.854   6.330   1.590  0.00  0.00    +0.080 A 
ATOM      5  C   UNL     1      -0.176   5.651   2.628  0.00  0.00    +0.041 A 
ATOM      6  C   UNL     1      -0.227   4.288   2.779  0.00  0.00    +0.021 A 
ATOM      7  S   UNL     1       0.607   6.984   3.503  0.00  0.00    -0.052 S 
ATOM      8  C   UNL     1       0.006   8.314   2.470  0.00  0.00    +0.165 A 
ATOM      9  N   UNL     1      -0.712   7.673   1.578  0.00  0.00    -0.225 NA
ATOM     10  N   UNL     1       0.241   9.675   2.582  0.00  0.00    -0.264 N 
ATOM     11  C   UNL     1      -0.308  10.528   1.694  0.00  0.00    +0.232 C 
ATOM     12  O   UNL     1      -1.006  10.104   0.798  0.00  0.00    -0.274 OA
ATOM     13  H   UNL     1       0.874  10.059   3.395  0.00  0.00    +0.157 HD
ENDROOT
BRANCH  11  14
ATOM     14  C   UNL     1      -0.053  12.008   1.816  0.00  0.00    +0.145 C 
ATOM     15 BR   UNL     1       0.684  12.688   0.125  0.00  0.00    -0.078 Br
BRANCH  14  16
ATOM     16  C   UNL     1      -1.367  12.728   2.125  0.00  0.00    +0.005 C 
ATOM     17  C   UNL     1      -1.903  12.253   3.477  0.00  0.00    +0.009 C 
ATOM     18  C   UNL     1      -1.123  14.238   2.175  0.00  0.00    +0.009 C 
ENDBRANCH  14  16
ENDBRANCH  11  14
BRANCH   1  19
ATOM     19  C   UNL     1      -1.020   2.030   2.030  0.00  0.00    +0.035 C 
BRANCH  19  20
ATOM     20  C   UNL     1       0.121   1.391   1.235  0.00  0.00    +0.004 C 
BRANCH  20  22
ATOM     21  C   UNL     1       1.197  -0.769   0.588  0.00  0.00    +0.004 C 
ATOM     22  C   UNL     1       0.056  -0.130   1.383  0.00  0.00    -0.003 C 
ENDBRANCH  20  22
ENDBRANCH  19  20
ENDBRANCH   1  19
TORSDOF 5
