REMARK  Name = ZINC21053916
REMARK  11 active torsions:
REMARK  status: ('A' for Active; 'I' for Inactive)
REMARK    1  A    between atoms: C_1  and  C_2
REMARK    2  A    between atoms: C_2  and  N_3
REMARK    3  A    between atoms: C_10  and  S_12
REMARK    4  A    between atoms: S_12  and  N_15
REMARK    5  A    between atoms: C_18  and  C_21
REMARK    6  A    between atoms: N_23  and  C_24
REMARK    7  A    between atoms: C_24  and  C_25
REMARK    8  A    between atoms: C_25  and  C_26
REMARK    9  A    between atoms: C_26  and  N_27
REMARK   10  A    between atoms: N_27  and  C_28
REMARK   11  A    between atoms: N_27  and  C_29
REMARK                            x       y       z     vdW  Elec       q    Type
REMARK                         _______ _______ _______ _____ _____    ______ ____
ROOT
ATOM      1  N   UNL     1      -4.543   8.509  -4.729  0.00  0.00    -0.177 NA
ATOM      2  C   UNL     1      -5.018   9.078  -3.461  0.00  0.00    +0.110 C 
ATOM      3  C   UNL     1      -4.063   8.652  -2.341  0.00  0.00    +0.030 C 
ATOM      4  C   UNL     1      -3.936   7.127  -2.338  0.00  0.00    +0.077 C 
ATOM      5  C   UNL     1      -3.354   6.659  -3.674  0.00  0.00    +0.030 C 
ATOM      6  C   UNL     1      -4.301   7.062  -4.808  0.00  0.00    +0.110 C 
ENDROOT
BRANCH   4   7
ATOM      7  C   UNL     1      -3.023   6.701  -1.216  0.00  0.00    +0.216 C 
ATOM      8  O   UNL     1      -2.524   7.535  -0.491  0.00  0.00    -0.276 OA
ATOM      9  N   UNL     1      -2.762   5.394  -1.019  0.00  0.00    -0.315 N 
ATOM     10  H   UNL     1      -3.215   4.637  -1.677  0.00  0.00    +0.149 HD
BRANCH   9  11
ATOM     11  C   UNL     1      -1.876   4.980   0.071  0.00  0.00    +0.102 C 
BRANCH  11  12
ATOM     12  C   UNL     1      -1.748   3.455   0.075  0.00  0.00    +0.000 C 
BRANCH  12  13
ATOM     13  C   UNL     1      -0.822   3.023   1.213  0.00  0.00    -0.077 C 
BRANCH  13  14
ATOM     14  N   UNL     1      -0.700   1.560   1.217  0.00  0.00    +0.380 N 
ATOM     15  C   UNL     1      -0.013   1.086   0.008  0.00  0.00    -0.096 C 
ATOM     16  H   UNL     1      -1.715   1.136   1.216  0.00  0.00    -0.082 HD
BRANCH  14  17
ATOM     17  C   UNL     1      -0.016   1.091   2.429  0.00  0.00    -0.069 C 
ATOM     18  C   UNL     1       1.427   1.599   2.429  0.00  0.00    -0.015 C 
ATOM     19  C   UNL     1       2.139   1.111   3.692  0.00  0.00    -0.002 C 
ATOM     20  C   UNL     1       2.137  -0.419   3.720  0.00  0.00    -0.000 C 
ATOM     21  C   UNL     1       0.694  -0.926   3.720  0.00  0.00    -0.002 C 
ATOM     22  C   UNL     1      -0.018  -0.439   2.457  0.00  0.00    -0.015 C 
ENDBRANCH  14  17
ENDBRANCH  13  14
ENDBRANCH  12  13
ENDBRANCH  11  12
ENDBRANCH   9  11
ENDBRANCH   4   7
BRANCH   1  23
ATOM     23  S   UNL     1      -4.287   9.481  -6.046  0.00  0.00    +0.061 S 
ATOM     24  O   UNL     1      -4.392   8.648  -7.192  0.00  0.00    -0.153 OA
ATOM     25  O   UNL     1      -5.098  10.633  -5.865  0.00  0.00    -0.153 OA
BRANCH  23  33
ATOM     26  N   UNL     1       1.377  11.086  -5.946  0.00  0.00    -0.347 N 
ATOM     27  C   UNL     1       1.922  10.056  -6.662  0.00  0.00    +0.087 A 
ATOM     28  C   UNL     1       0.959   9.199  -7.037  0.00  0.00    +0.027 A 
ATOM     29  C   UNL     1      -0.307   9.723  -6.518  0.00  0.00    +0.002 A 
ATOM     30  C   UNL     1       0.015  10.913  -5.839  0.00  0.00    +0.049 A 
ATOM     31  C   UNL     1      -0.999  11.646  -5.231  0.00  0.00    +0.028 A 
ATOM     32  C   UNL     1      -2.302  11.204  -5.306  0.00  0.00    +0.030 A 
ATOM     33  C   UNL     1      -2.613  10.027  -5.972  0.00  0.00    +0.106 A 
ATOM     34  C   UNL     1      -1.633   9.291  -6.576  0.00  0.00    +0.038 A 
BRANCH  26  36
ATOM     35  C   UNL     1       2.475  11.901  -3.918  0.00  0.00    +0.027 C 
ATOM     36  C   UNL     1       2.130  12.207  -5.377  0.00  0.00    +0.118 C 
ENDBRANCH  26  36
ENDBRANCH  23  33
ENDBRANCH   1  23
TORSDOF 9
