REMARK  Name = ZINC11288814
REMARK  11 active torsions:
REMARK  status: ('A' for Active; 'I' for Inactive)
REMARK    1  A    between atoms: C_1  and  C_2
REMARK    2  A    between atoms: C_2  and  O_3
REMARK    3  A    between atoms: O_3  and  C_4
REMARK    4  A    between atoms: C_4  and  C_6
REMARK    5  A    between atoms: C_7  and  C_21
REMARK    6  A    between atoms: C_12  and  C_14
REMARK    7  A    between atoms: C_21  and  S_22
REMARK    8  A    between atoms: S_22  and  C_23
REMARK    9  A    between atoms: C_26  and  C_29
REMARK   10  A    between atoms: N_27  and  C_28
REMARK   11  A    between atoms: C_32  and  C_35
REMARK                            x       y       z     vdW  Elec       q    Type
REMARK                         _______ _______ _______ _____ _____    ______ ____
ROOT
ATOM      1  C   UNL     1      -0.403   1.679   1.435  0.00  0.00    +0.079 C 
ATOM      2  C   UNL     1      -1.484   2.480   1.315  0.00  0.00    +0.034 C 
ATOM      3  N   UNL     1      -1.905   2.917   0.091  0.00  0.00    -0.272 N 
ATOM      4  C   UNL     1      -1.299   2.598  -1.060  0.00  0.00    +0.304 C 
ATOM      5  O   UNL     1      -1.748   3.036  -2.101  0.00  0.00    -0.252 OA
ATOM      6  N   UNL     1      -0.209   1.808  -1.101  0.00  0.00    -0.288 N 
ATOM      7  C   UNL     1       0.326   1.283   0.167  0.00  0.00    +0.144 C 
ATOM      8  H   UNL     1      -2.686   3.491   0.054  0.00  0.00    +0.156 HD
ATOM      9  H   UNL     1       0.213   1.589  -1.947  0.00  0.00    +0.151 HD
ENDROOT
BRANCH   7  10
ATOM     10  C   UNL     1       1.757   1.739   0.291  0.00  0.00    -0.022 A 
ATOM     11  C   UNL     1       2.097   3.040  -0.029  0.00  0.00    +0.007 A 
ATOM     12  C   UNL     1       3.409   3.461   0.090  0.00  0.00    +0.020 A 
ATOM     13  C   UNL     1       4.382   2.576   0.520  0.00  0.00    +0.041 A 
ATOM     14  C   UNL     1       4.041   1.273   0.835  0.00  0.00    +0.020 A 
ATOM     15  C   UNL     1       2.729   0.855   0.720  0.00  0.00    +0.007 A 
ATOM     16 CL   UNL     1       6.030   3.102   0.663  0.00  0.00    -0.084 Cl
ENDBRANCH   7  10
BRANCH   1  17
ATOM     17  C   UNL     1       0.034   1.226   2.701  0.00  0.00    +0.339 C 
ATOM     18  O   UNL     1      -0.246   0.102   3.076  0.00  0.00    -0.245 OA
BRANCH  17  19
ATOM     19  O   UNL     1       0.762   2.039   3.494  0.00  0.00    -0.462 OA
BRANCH  19  21
ATOM     20  C   UNL     1       1.980   2.574   5.512  0.00  0.00    +0.048 C 
ATOM     21  C   UNL     1       1.170   1.516   4.760  0.00  0.00    +0.229 C 
ENDBRANCH  19  21
ENDBRANCH  17  19
ENDBRANCH   1  17
BRANCH   2  22
ATOM     22  C   UNL     1      -2.238   2.897   2.551  0.00  0.00    +0.128 C 
BRANCH  22  23
ATOM     23  S   UNL     1      -1.860   4.625   2.933  0.00  0.00    -0.080 S 
BRANCH  23  24
ATOM     24  C   UNL     1      -2.845   4.842   4.378  0.00  0.00    +0.192 A 
ATOM     25  N   UNL     1      -3.615   3.936   4.940  0.00  0.00    -0.122 NA
ATOM     26  N   UNL     1      -4.188   4.428   5.979  0.00  0.00    -0.128 NA
ATOM     27  C   UNL     1      -3.828   5.680   6.140  0.00  0.00    +0.165 A 
ATOM     28  N   UNL     1      -2.957   5.983   5.119  0.00  0.00    -0.305 N 
ATOM     29  C   UNL     1      -2.288   7.264   4.878  0.00  0.00    +0.153 C 
BRANCH  27  30
ATOM     30  C   UNL     1      -4.274   6.591   7.215  0.00  0.00    +0.019 A 
ATOM     31  C   UNL     1      -4.847   6.076   8.378  0.00  0.00    +0.012 A 
ATOM     32  C   UNL     1      -5.257   6.932   9.379  0.00  0.00    +0.004 A 
ATOM     33  C   UNL     1      -5.111   8.299   9.227  0.00  0.00    -0.050 A 
ATOM     34  C   UNL     1      -4.548   8.817   8.074  0.00  0.00    +0.004 A 
ATOM     35  C   UNL     1      -4.129   7.972   7.068  0.00  0.00    +0.012 A 
ATOM     36  C   UNL     1      -5.566   9.229  10.323  0.00  0.00    +0.044 C 
ENDBRANCH  27  30
ENDBRANCH  23  24
ENDBRANCH  22  23
ENDBRANCH   2  22
TORSDOF 8
