REMARK  Name = ZINC63068376
REMARK  7 active torsions:
REMARK  status: ('A' for Active; 'I' for Inactive)
REMARK    1  A    between atoms: C_1  and  C_2
REMARK    2  A    between atoms: C_3  and  C_9
REMARK    3  A    between atoms: C_4  and  C_8
REMARK    4  A    between atoms: N_5  and  C_7
REMARK    5  A    between atoms: C_9  and  C_10
REMARK    6  A    between atoms: C_9  and  N_11
REMARK    7  A    between atoms: C_18  and  C_19
REMARK                            x       y       z     vdW  Elec       q    Type
REMARK                         _______ _______ _______ _____ _____    ______ ____
ROOT
ATOM      1  N   UNL     1       0.955   0.751  -2.726  0.00  0.00    -0.293 N 
ATOM      2  C   UNL     1       1.494   1.003  -3.936  0.00  0.00    +0.303 C 
ATOM      3  O   UNL     1       1.182   0.322  -4.893  0.00  0.00    -0.253 OA
ATOM      4  N   UNL     1       2.377   2.010  -4.083  0.00  0.00    -0.279 N 
ATOM      5  C   UNL     1       2.846   2.906  -3.011  0.00  0.00    +0.110 C 
ATOM      6  C   UNL     1       3.304   4.193  -3.741  0.00  0.00    +0.021 C 
ATOM      7  C   UNL     1       3.936   3.609  -5.033  0.00  0.00    +0.029 C 
ATOM      8  C   UNL     1       3.038   2.392  -5.340  0.00  0.00    +0.108 C 
ATOM      9  H   UNL     1       1.203   1.295  -1.962  0.00  0.00    +0.151 HD
ENDROOT
BRANCH   8  10
ATOM     10  C   UNL     1       3.878   1.247  -5.846  0.00  0.00    -0.027 A 
ATOM     11  C   UNL     1       4.584   0.461  -4.955  0.00  0.00    +0.005 A 
ATOM     12  C   UNL     1       5.354  -0.589  -5.419  0.00  0.00    +0.000 A 
ATOM     13  C   UNL     1       5.418  -0.853  -6.774  0.00  0.00    +0.000 A 
ATOM     14  C   UNL     1       4.712  -0.066  -7.666  0.00  0.00    +0.000 A 
ATOM     15  C   UNL     1       3.938   0.981  -7.201  0.00  0.00    +0.005 A 
ENDBRANCH   8  10
BRANCH   1  16
ATOM     16  C   UNL     1      -0.006  -0.343  -2.566  0.00  0.00    +0.105 C 
ATOM     17  C   UNL     1      -1.408   0.152  -2.925  0.00  0.00    +0.033 C 
BRANCH  16  20
ATOM     18  C   UNL     1      -0.018   1.503   0.010  0.00  0.00    +0.068 C 
ATOM     19  C   UNL     1       0.002  -0.004   0.002  0.00  0.00    +0.065 A 
ATOM     20  C   UNL     1       0.008  -0.818  -1.135  0.00  0.00    +0.016 A 
ATOM     21  C   UNL     1       0.028  -2.107  -0.725  0.00  0.00    +0.041 A 
ATOM     22  N   UNL     1       0.034  -2.109   0.625  0.00  0.00    -0.271 N 
ATOM     23  N   UNL     1       0.023  -0.777   1.058  0.00  0.00    -0.176 NA
ATOM     24  C   UNL     1       0.055  -3.295   1.485  0.00  0.00    +0.172 C 
ATOM     25  C   UNL     1       0.040  -3.323  -1.615  0.00  0.00    +0.065 C 
ENDBRANCH  16  20
ENDBRANCH   1  16
TORSDOF 3
