REMARK  Name = ZINC64945790
REMARK  5 active torsions:
REMARK  status: ('A' for Active; 'I' for Inactive)
REMARK    1  A    between atoms: C_6  and  C_7
REMARK    2  A    between atoms: C_7  and  C_8
REMARK    3  A    between atoms: C_8  and  N_9
REMARK    4  A    between atoms: C_10  and  C_12
REMARK    5  A    between atoms: C_12  and  N_13
REMARK                            x       y       z     vdW  Elec       q    Type
REMARK                         _______ _______ _______ _____ _____    ______ ____
ROOT
ATOM      1  N   UNL     1      -5.323  -3.129  -3.953  0.00  0.00    -0.203 N 
ATOM      2  C   UNL     1      -5.006  -4.200  -4.713  0.00  0.00    +0.353 A 
ATOM      3  O   UNL     1      -4.307  -5.138  -4.373  0.00  0.00    -0.244 OA
ATOM      4  N   UNL     1      -5.601  -4.046  -5.913  0.00  0.00    -0.233 N 
ATOM      5  C   UNL     1      -5.612  -4.826  -7.040  0.00  0.00    +0.211 A 
ATOM      6  N   UNL     1      -6.267  -4.475  -8.107  0.00  0.00    -0.229 NA
ATOM      7  C   UNL     1      -6.967  -3.344  -8.177  0.00  0.00    +0.114 A 
ATOM      8  C   UNL     1      -7.051  -2.449  -7.106  0.00  0.00    +0.056 A 
ATOM      9  C   UNL     1      -6.300  -2.853  -5.889  0.00  0.00    +0.173 A 
ATOM     10  N   UNL     1      -6.147  -2.294  -4.722  0.00  0.00    -0.148 NA
ATOM     11  C   UNL     1      -7.831  -1.278  -7.300  0.00  0.00    -0.024 A 
ATOM     12  C   UNL     1      -8.433  -1.125  -8.502  0.00  0.00    -0.004 A 
ATOM     13  S   UNL     1      -7.952  -2.560  -9.430  0.00  0.00    -0.073 S 
ATOM     14  C   UNL     1      -9.318  -0.007  -8.953  0.00  0.00    +0.043 C 
ATOM     15  C   UNL     1      -8.642   1.333  -8.630  0.00  0.00    +0.005 C 
ATOM     16  C   UNL     1      -9.066   1.759  -7.228  0.00  0.00    +0.001 C 
ATOM     17  C   UNL     1      -9.270   0.529  -6.346  0.00  0.00    +0.005 C 
ATOM     18  C   UNL     1      -7.964  -0.240  -6.188  0.00  0.00    +0.037 C 
ENDROOT
BRANCH   1  19
ATOM     19  C   UNL     1      -4.889  -2.887  -2.575  0.00  0.00    +0.244 C 
BRANCH  19  21
ATOM     20  N   UNL     1      -3.004  -1.778  -1.420  0.00  0.00    -0.313 N 
ATOM     21  C   UNL     1      -3.595  -2.116  -2.584  0.00  0.00    +0.235 C 
ATOM     22  O   UNL     1      -3.084  -1.800  -3.637  0.00  0.00    -0.274 OA
ATOM     23  H   UNL     1      -3.413  -2.030  -0.578  0.00  0.00    +0.149 HD
BRANCH  20  24
ATOM     24  C   UNL     1      -1.745  -1.028  -1.429  0.00  0.00    +0.109 C 
BRANCH  24  25
ATOM     25  C   UNL     1      -1.293  -0.775   0.011  0.00  0.00    +0.054 C 
BRANCH  25  31
ATOM     26  C   UNL     1      -0.017   1.378   0.010  0.00  0.00    +0.005 A 
ATOM     27  C   UNL     1       1.171   2.086   0.002  0.00  0.00    +0.020 A 
ATOM     28  C   UNL     1       2.378   1.410  -0.013  0.00  0.00    +0.041 A 
ATOM     29  C   UNL     1       2.396   0.027  -0.021  0.00  0.00    +0.020 A 
ATOM     30  C   UNL     1       1.208  -0.679  -0.013  0.00  0.00    +0.005 A 
ATOM     31  C   UNL     1       0.002  -0.004   0.002  0.00  0.00    -0.046 A 
ATOM     32 CL   UNL     1       3.870   2.298  -0.023  0.00  0.00    -0.084 Cl
ENDBRANCH  25  31
ENDBRANCH  24  25
ENDBRANCH  20  24
ENDBRANCH  19  21
ENDBRANCH   1  19
TORSDOF 5
