REMARK  Name = ZINC09377058
REMARK  9 active torsions:
REMARK  status: ('A' for Active; 'I' for Inactive)
REMARK    1  A    between atoms: C_1  and  C_2
REMARK    2  A    between atoms: C_2  and  C_4
REMARK    3  A    between atoms: C_2  and  N_61
REMARK    4  A    between atoms: N_6  and  C_7
REMARK    5  A    between atoms: C_9  and  S_14
REMARK    6  A    between atoms: S_14  and  N_17
REMARK    7  A    between atoms: C_23  and  C_25
REMARK    8  A    between atoms: C_23  and  C_31
REMARK    9  A    between atoms: C_23  and  N_61
REMARK                            x       y       z     vdW  Elec       q    Type
REMARK                         _______ _______ _______ _____ _____    ______ ____
ROOT
ATOM      1  C   UNL     1       6.583   1.329  -2.116  0.00  0.00    +0.203 C 
ATOM      2  O   UNL     1       6.199   1.601  -0.999  0.00  0.00    -0.277 OA
ATOM      3  N   UNL     1       6.215   0.167  -2.692  0.00  0.00    -0.286 N 
ATOM      4  H   UNL     1       6.586  -0.087  -3.551  0.00  0.00    +0.155 HD
ENDROOT
BRANCH   3   5
ATOM      5  C   UNL     1       5.298  -0.672  -2.049  0.00  0.00    +0.054 A 
ATOM      6  C   UNL     1       4.394  -0.146  -1.136  0.00  0.00    +0.053 A 
ATOM      7  C   UNL     1       3.489  -0.976  -0.504  0.00  0.00    +0.107 A 
ATOM      8  C   UNL     1       3.487  -2.333  -0.774  0.00  0.00    +0.030 A 
ATOM      9  C   UNL     1       4.382  -2.860  -1.687  0.00  0.00    +0.024 A 
ATOM     10  C   UNL     1       5.290  -2.035  -2.323  0.00  0.00    +0.062 A 
ATOM     11 CL   UNL     1       6.417  -2.698  -3.464  0.00  0.00    -0.082 Cl
BRANCH   7  12
ATOM     12  S   UNL     1       2.342  -0.308   0.654  0.00  0.00    +0.061 S 
ATOM     13  O   UNL     1       2.913   0.898   1.142  0.00  0.00    -0.153 OA
ATOM     14  O   UNL     1       1.965  -1.375   1.514  0.00  0.00    -0.153 OA
BRANCH  12  15
ATOM     15  N   UNL     1       0.984   0.119  -0.192  0.00  0.00    -0.177 NA
ATOM     16  C   UNL     1      -0.111  -0.842  -0.386  0.00  0.00    +0.109 C 
ATOM     17  C   UNL     1      -0.418  -0.944  -1.883  0.00  0.00    +0.017 C 
ATOM     18  C   UNL     1      -0.703   0.454  -2.438  0.00  0.00    +0.003 C 
ATOM     19  C   UNL     1       0.533   1.338  -2.257  0.00  0.00    +0.017 C 
ATOM     20  C   UNL     1       0.851   1.466  -0.764  0.00  0.00    +0.109 C 
ENDBRANCH  12  15
ENDBRANCH   7  12
ENDBRANCH   3   5
BRANCH   1  22
ATOM     21  C   UNL     1       8.800   1.605  -3.193  0.00  0.00    -0.004 C 
ATOM     22  C   UNL     1       7.473   2.290  -2.862  0.00  0.00    +0.014 C 
BRANCH  22  23
ATOM     23  N   UNL     1       7.727   3.471  -2.015  0.00  0.00    +0.391 N 
ATOM     24  H   UNL     1       8.514   3.274  -1.387  0.00  0.00    -0.084 HD
ATOM     25  H   UNL     1       6.888   3.675  -1.459  0.00  0.00    -0.084 HD
BRANCH  23  26
ATOM     26  C   UNL     1       8.053   4.641  -2.852  0.00  0.00    -0.037 C 
BRANCH  26  27
ATOM     27  C   UNL     1       8.876   5.612  -2.046  0.00  0.00    -0.061 A 
ATOM     28  C   UNL     1       8.567   5.844  -0.719  0.00  0.00    +0.002 A 
ATOM     29  C   UNL     1       9.325   6.732   0.022  0.00  0.00    +0.000 A 
ATOM     30  C   UNL     1      10.385   7.395  -0.567  0.00  0.00    +0.000 A 
ATOM     31  C   UNL     1      10.690   7.167  -1.895  0.00  0.00    +0.000 A 
ATOM     32  C   UNL     1       9.935   6.276  -2.635  0.00  0.00    +0.002 A 
ENDBRANCH  26  27
BRANCH  26  33
ATOM     33  C   UNL     1       6.759   5.321  -3.305  0.00  0.00    -0.021 C 
ATOM     34  C   UNL     1       6.407   5.250  -4.792  0.00  0.00    +0.002 C 
ATOM     35  C   UNL     1       6.886   6.569  -4.182  0.00  0.00    +0.002 C 
ENDBRANCH  26  33
ENDBRANCH  23  26
ENDBRANCH  22  23
ENDBRANCH   1  22
TORSDOF 8
