REMARK  Name = ZINC48818445
REMARK  2 active torsions:
REMARK  status: ('A' for Active; 'I' for Inactive)
REMARK    1  A    between atoms: C_3  and  C_6
REMARK    2  A    between atoms: C_12  and  C_14
REMARK                            x       y       z     vdW  Elec       q    Type
REMARK                         _______ _______ _______ _____ _____    ______ ____
ROOT
ATOM      1  C   UNL     1       3.568   0.618  -0.029  0.00  0.00    +0.169 A 
ATOM      2  N   UNL     1       4.447   1.616  -0.026  0.00  0.00    -0.136 NA
ATOM      3  N   UNL     1       5.690   1.407  -0.039  0.00  0.00    -0.125 NA
ATOM      4  C   UNL     1       6.195   0.180  -0.057  0.00  0.00    +0.188 A 
ATOM      5  S   UNL     1       4.685  -0.781  -0.047  0.00  0.00    -0.027 S 
ATOM      6  N   UNL     1       7.519  -0.240  -0.073  0.00  0.00    -0.259 N 
ATOM      7  C   UNL     1       8.514   0.669  -0.072  0.00  0.00    +0.256 C 
ATOM      8  O   UNL     1       8.252   1.858  -0.056  0.00  0.00    -0.269 OA
ATOM      9  H   UNL     1       7.727  -1.187  -0.086  0.00  0.00    +0.157 HD
ENDROOT
BRANCH   7  10
ATOM     10  C   UNL     1       9.909   0.227  -0.089  0.00  0.00    +0.076 A 
ATOM     11  C   UNL     1      11.068   0.990  -0.085  0.00  0.00    +0.022 A 
ATOM     12  C   UNL     1      12.247   0.285  -0.105  0.00  0.00    +0.028 A 
ATOM     13  C   UNL     1      12.203  -1.072  -0.127  0.00  0.00    +0.079 A 
ATOM     14  S   UNL     1      10.562  -1.431  -0.113  0.00  0.00    -0.072 S 
ATOM     15 CL   UNL     1      13.538  -2.182  -0.155  0.00  0.00    -0.076 Cl
ENDBRANCH   7  10
BRANCH   1  18
ATOM     16  C   UNL     1      -0.016   1.344   0.009  0.00  0.00    +0.042 A 
ATOM     17  C   UNL     1       1.324   1.776  -0.001  0.00  0.00    +0.052 A 
ATOM     18  C   UNL     1       2.097   0.653  -0.015  0.00  0.00    +0.162 A 
ATOM     19  O   UNL     1       1.280  -0.418  -0.012  0.00  0.00    -0.461 OA
ATOM     20  C   UNL     1       0.002  -0.004   0.002  0.00  0.00    +0.196 A 
ENDBRANCH   1  18
TORSDOF 2
