REMARK  Name = ZINC63908468
REMARK  7 active torsions:
REMARK  status: ('A' for Active; 'I' for Inactive)
REMARK    1  A    between atoms: C_7  and  C_10
REMARK    2  A    between atoms: C_10  and  C_11
REMARK    3  A    between atoms: C_11  and  N_12
REMARK    4  A    between atoms: C_13  and  C_15
REMARK    5  A    between atoms: C_18  and  N_21
REMARK    6  A    between atoms: N_21  and  S_22
REMARK    7  A    between atoms: S_22  and  C_25
REMARK                            x       y       z     vdW  Elec       q    Type
REMARK                         _______ _______ _______ _____ _____    ______ ____
ROOT
ATOM      1  C   UNL     1      -1.732  -6.532  -2.622  0.00  0.00    +0.037 A 
ATOM      2  C   UNL     1      -2.245  -7.018  -1.415  0.00  0.00    +0.015 A 
ATOM      3  C   UNL     1      -3.104  -8.092  -1.417  0.00  0.00    +0.027 A 
ATOM      4  C   UNL     1      -3.463  -8.697  -2.619  0.00  0.00    +0.074 A 
ATOM      5  C   UNL     1      -2.953  -8.216  -3.822  0.00  0.00    +0.027 A 
ATOM      6  C   UNL     1      -2.098  -7.138  -3.827  0.00  0.00    +0.015 A 
ENDROOT
BRANCH   1   8
ATOM      7  N   UNL     1      -0.458  -4.798  -1.460  0.00  0.00    -0.311 N 
ATOM      8  C   UNL     1      -0.811  -5.380  -2.623  0.00  0.00    +0.244 C 
ATOM      9  O   UNL     1      -0.369  -4.956  -3.674  0.00  0.00    -0.270 OA
ATOM     10  H   UNL     1      -0.810  -5.136  -0.622  0.00  0.00    +0.149 HD
BRANCH   7  11
ATOM     11  C   UNL     1       0.457  -3.653  -1.462  0.00  0.00    +0.109 C 
BRANCH  11  12
ATOM     12  C   UNL     1       0.691  -3.186  -0.024  0.00  0.00    +0.052 C 
BRANCH  12  19
ATOM     13  C   UNL     1      -0.016   1.348   0.009  0.00  0.00    +0.001 A 
ATOM     14  C   UNL     1       1.166   2.101   0.002  0.00  0.00    +0.002 A 
ATOM     15  C   UNL     1       2.391   1.535  -0.013  0.00  0.00    +0.026 A 
ATOM     16  C   UNL     1       2.529   0.120  -0.022  0.00  0.00    +0.043 A 
ATOM     17  N   UNL     1       3.587  -0.654  -0.037  0.00  0.00    -0.380 N 
ATOM     18  C   UNL     1       3.143  -2.053  -0.041  0.00  0.00    +0.144 C 
ATOM     19  C   UNL     1       1.631  -2.008  -0.025  0.00  0.00    -0.040 C 
ATOM     20  C   UNL     1       1.295  -0.698  -0.014  0.00  0.00    -0.001 A 
ATOM     21  C   UNL     1       0.002  -0.004   0.002  0.00  0.00    +0.010 A 
ATOM     22  H   UNL     1       4.509  -0.353  -0.045  0.00  0.00    +0.160 HD
ENDBRANCH  12  19
ENDBRANCH  11  12
ENDBRANCH   7  11
ENDBRANCH   1   8
BRANCH   4  23
ATOM     23  N   UNL     1      -4.331  -9.783  -2.617  0.00  0.00    -0.098 NA
BRANCH  23  24
ATOM     24  S   UNL     1      -4.759 -10.503  -4.046  0.00  0.00    +0.092 S 
ATOM     25  O   UNL     1      -5.518  -9.546  -4.772  0.00  0.00    -0.148 OA
ATOM     26  O   UNL     1      -3.579 -11.096  -4.571  0.00  0.00    -0.148 OA
BRANCH  24  27
ATOM     27  C   UNL     1      -5.856 -11.825  -3.655  0.00  0.00    +0.113 A 
ATOM     28  C   UNL     1      -5.353 -13.087  -3.399  0.00  0.00    +0.032 A 
ATOM     29  C   UNL     1      -6.211 -14.126  -3.092  0.00  0.00    +0.043 A 
ATOM     30  C   UNL     1      -7.576 -13.903  -3.040  0.00  0.00    +0.159 A 
ATOM     31  C   UNL     1      -8.081 -12.637  -3.296  0.00  0.00    +0.160 A 
ATOM     32  C   UNL     1      -7.218 -11.598  -3.598  0.00  0.00    +0.070 A 
ATOM     33  F   UNL     1      -9.413 -12.417  -3.246  0.00  0.00    -0.202 F 
ATOM     34  F   UNL     1      -8.416 -14.918  -2.741  0.00  0.00    -0.202 F 
ENDBRANCH  24  27
ENDBRANCH  23  24
ENDBRANCH   4  23
TORSDOF 7
