REMARK  Name = ZINC21944288
REMARK  8 active torsions:
REMARK  status: ('A' for Active; 'I' for Inactive)
REMARK    1  A    between atoms: C_1  and  C_2
REMARK    2  A    between atoms: C_6  and  C_9
REMARK    3  A    between atoms: C_7  and  C_8
REMARK    4  A    between atoms: C_9  and  O_11
REMARK    5  A    between atoms: O_11  and  C_12
REMARK    6  A    between atoms: C_12  and  C_14
REMARK    7  A    between atoms: C_12  and  C_15
REMARK    8  A    between atoms: N_17  and  C_18
REMARK                            x       y       z     vdW  Elec       q    Type
REMARK                         _______ _______ _______ _____ _____    ______ ____
ROOT
ATOM      1  C   UNL     1      -1.167   2.103  -0.158  0.00  0.00    +0.258 C 
ATOM      2  O   UNL     1      -2.194   1.471  -0.038  0.00  0.00    -0.271 OA
ATOM      3  N   UNL     1       0.018   1.462  -0.213  0.00  0.00    -0.282 N 
ATOM      4  H   UNL     1       0.954   2.038  -0.239  0.00  0.00    +0.155 HD
ENDROOT
BRANCH   3   5
ATOM      5  C   UNL     1       0.055   0.072  -0.237  0.00  0.00    +0.045 A 
ATOM      6  C   UNL     1      -0.887  -0.668   0.477  0.00  0.00    +0.024 A 
ATOM      7  C   UNL     1      -0.854  -2.046   0.455  0.00  0.00    +0.003 A 
ATOM      8  C   UNL     1       0.115  -2.717  -0.276  0.00  0.00    +0.012 A 
ATOM      9  C   UNL     1       1.064  -2.001  -0.994  0.00  0.00    +0.035 A 
ATOM     10  C   UNL     1       1.034  -0.592  -0.983  0.00  0.00    +0.054 A 
ATOM     11  C   UNL     1       2.037   0.168  -1.751  0.00  0.00    +0.196 C 
ATOM     12  O   UNL     1       1.885   1.356  -1.954  0.00  0.00    -0.287 OA
ATOM     13  C   UNL     1       3.231  -0.534  -2.273  0.00  0.00    +0.033 A 
ATOM     14  C   UNL     1       4.324   0.184  -2.746  0.00  0.00    +0.012 A 
ATOM     15  C   UNL     1       5.432  -0.489  -3.230  0.00  0.00    +0.001 A 
ATOM     16  C   UNL     1       5.462  -1.872  -3.245  0.00  0.00    +0.001 A 
ATOM     17  C   UNL     1       4.382  -2.602  -2.778  0.00  0.00    +0.012 A 
ATOM     18  C   UNL     1       3.260  -1.941  -2.289  0.00  0.00    +0.033 A 
ATOM     19  C   UNL     1       2.104  -2.703  -1.776  0.00  0.00    +0.195 C 
ATOM     20  O   UNL     1       2.003  -3.892  -2.006  0.00  0.00    -0.287 OA
ENDBRANCH   3   5
BRANCH   1  21
ATOM     21  C   UNL     1      -1.214   3.607  -0.245  0.00  0.00    +0.259 C 
ATOM     22  C   UNL     1      -0.726   4.053  -1.625  0.00  0.00    +0.062 C 
BRANCH  21  23
ATOM     23  O   UNL     1      -2.578   4.061  -0.044  0.00  0.00    -0.449 OA
BRANCH  23  24
ATOM     24  C   UNL     1      -2.743   5.275   0.516  0.00  0.00    +0.340 C 
ATOM     25  O   UNL     1      -1.773   5.936   0.829  0.00  0.00    -0.245 OA
BRANCH  24  31
ATOM     26  C   UNL     1      -5.740   8.965   2.030  0.00  0.00    +0.044 C 
ATOM     27  C   UNL     1      -5.550   7.576   1.478  0.00  0.00    -0.047 A 
ATOM     28  C   UNL     1      -6.652   6.790   1.190  0.00  0.00    +0.003 A 
ATOM     29  C   UNL     1      -6.487   5.514   0.684  0.00  0.00    +0.001 A 
ATOM     30  C   UNL     1      -5.219   5.015   0.462  0.00  0.00    +0.015 A 
ATOM     31  C   UNL     1      -4.103   5.802   0.751  0.00  0.00    +0.062 A 
ATOM     32  C   UNL     1      -4.277   7.088   1.268  0.00  0.00    -0.034 A 
ATOM     33  C   UNL     1      -3.078   7.942   1.588  0.00  0.00    +0.045 C 
ENDBRANCH  24  31
ENDBRANCH  23  24
ENDBRANCH  21  23
ENDBRANCH   1  21
TORSDOF 5
