REMARK  Name = ZINC08682606
REMARK  6 active torsions:
REMARK  status: ('A' for Active; 'I' for Inactive)
REMARK    1  A    between atoms: C_4  and  N_7
REMARK    2  A    between atoms: C_16  and  C_28
REMARK    3  A    between atoms: C_16  and  C_32
REMARK    4  A    between atoms: C_18  and  C_20
REMARK    5  A    between atoms: C_20  and  C_21
REMARK    6  A    between atoms: C_21  and  C_22
REMARK                            x       y       z     vdW  Elec       q    Type
REMARK                         _______ _______ _______ _____ _____    ______ ____
ROOT
ATOM      1  N   UNL     1       3.192  -0.869  -0.347  0.00  0.00    -0.250 N 
ATOM      2  C   UNL     1       3.386  -2.207  -0.102  0.00  0.00    +0.124 A 
ATOM      3  C   UNL     1       4.649  -2.722  -0.125  0.00  0.00    +0.100 A 
ATOM      4  C   UNL     1       5.728  -1.868  -0.407  0.00  0.00    +0.262 A 
ATOM      5  O   UNL     1       6.866  -2.305  -0.438  0.00  0.00    -0.267 OA
ATOM      6  N   UNL     1       5.496  -0.561  -0.642  0.00  0.00    -0.274 N 
ATOM      7  H   UNL     1       6.239   0.032  -0.837  0.00  0.00    +0.173 HD
ATOM      8  C   UNL     1       4.243  -0.071  -0.616  0.00  0.00    +0.335 A 
ATOM      9  O   UNL     1       4.058   1.111  -0.833  0.00  0.00    -0.246 OA
ATOM     10  C   UNL     1       4.883  -4.179   0.153  0.00  0.00    +0.285 C 
ATOM     11  N   UNL     1       3.643  -4.940   0.056  0.00  0.00    -0.244 NA
ATOM     12  C   UNL     1       2.481  -4.395   0.064  0.00  0.00    +0.097 C 
ATOM     13  N   UNL     1       2.320  -3.035   0.161  0.00  0.00    -0.289 N 
ATOM     14  H   UNL     1       1.462  -2.662   0.413  0.00  0.00    +0.155 HD
ENDROOT
BRANCH   1  18
ATOM     15  C   UNL     1      -0.660   0.722  -0.273  0.00  0.00    +0.000 A 
ATOM     16  C   UNL     1       0.103   0.707   0.881  0.00  0.00    +0.002 A 
ATOM     17  C   UNL     1       1.380   0.180   0.859  0.00  0.00    +0.026 A 
ATOM     18  C   UNL     1       1.897  -0.335  -0.322  0.00  0.00    +0.053 A 
ATOM     19  C   UNL     1       1.129  -0.318  -1.478  0.00  0.00    +0.026 A 
ATOM     20  C   UNL     1      -0.147   0.210  -1.451  0.00  0.00    +0.002 A 
ENDBRANCH   1  18
BRANCH  10  21
ATOM     21  C   UNL     1       5.889  -4.728  -0.860  0.00  0.00    +0.428 C 
ATOM     22  F   UNL     1       7.175  -4.289  -0.524  0.00  0.00    -0.167 F 
ATOM     23  F   UNL     1       5.854  -6.126  -0.842  0.00  0.00    -0.167 F 
ATOM     24  F   UNL     1       5.559  -4.269  -2.140  0.00  0.00    -0.167 F 
ENDBRANCH  10  21
BRANCH  10  25
ATOM     25  C   UNL     1       5.457  -4.335   1.563  0.00  0.00    +0.428 C 
ATOM     26  F   UNL     1       4.551  -3.818   2.495  0.00  0.00    -0.167 F 
ATOM     27  F   UNL     1       5.678  -5.690   1.830  0.00  0.00    -0.167 F 
ATOM     28  F   UNL     1       6.667  -3.638   1.653  0.00  0.00    -0.167 F 
ENDBRANCH  10  25
BRANCH  12  29
ATOM     29  C   UNL     1       1.260  -5.273  -0.035  0.00  0.00    +0.071 C 
BRANCH  29  30
ATOM     30  C   UNL     1       1.691  -6.738  -0.132  0.00  0.00    +0.011 C 
BRANCH  30  31
ATOM     31  C   UNL     1       0.451  -7.628  -0.232  0.00  0.00    -0.011 C 
ATOM     32  C   UNL     1      -0.355  -7.529   1.065  0.00  0.00    +0.003 C 
ATOM     33  C   UNL     1      -1.595  -8.420   0.964  0.00  0.00    +0.000 C 
ATOM     34  C   UNL     1      -1.163  -9.871   0.742  0.00  0.00    +0.000 C 
ATOM     35  C   UNL     1      -0.358  -9.970  -0.555  0.00  0.00    +0.000 C 
ATOM     36  C   UNL     1       0.882  -9.079  -0.455  0.00  0.00    +0.003 C 
ENDBRANCH  30  31
ENDBRANCH  29  30
ENDBRANCH  12  29
TORSDOF 6
