REMARK  Name = ZINC38663887
REMARK  12 active torsions:
REMARK  status: ('A' for Active; 'I' for Inactive)
REMARK    1  A    between atoms: C_1  and  C_2
REMARK    2  A    between atoms: C_2  and  C_3
REMARK    3  A    between atoms: C_2  and  C_4
REMARK    4  A    between atoms: C_2  and  O_5
REMARK    5  A    between atoms: O_5  and  C_6
REMARK    6  A    between atoms: N_8  and  C_9
REMARK    7  A    between atoms: C_9  and  C_11
REMARK    8  A    between atoms: C_9  and  C_21
REMARK    9  A    between atoms: C_11  and  C_12
REMARK   10  A    between atoms: C_25  and  S_28
REMARK   11  A    between atoms: S_28  and  C_29
REMARK   12  A    between atoms: C_29  and  C_30
REMARK                            x       y       z     vdW  Elec       q    Type
REMARK                         _______ _______ _______ _____ _____    ______ ____
ROOT
ATOM      1  C   UNL     1       4.193   0.061  -2.422  0.00  0.00    +0.133 C 
ENDROOT
BRANCH   1   2
ATOM      2  C   UNL     1       5.164  -0.709  -1.524  0.00  0.00    +0.280 C 
ATOM      3  N   UNL     1       4.671  -0.728  -0.140  0.00  0.00    -0.155 NA
ATOM      4  N   UNL     1       4.787  -1.864   0.337  0.00  0.00    -0.146 NA
ATOM      5  C   UNL     1       5.373  -2.772  -0.658  0.00  0.00    +0.319 C 
ATOM      6  O   UNL     1       5.226  -2.093  -1.924  0.00  0.00    -0.316 OA
BRANCH   5   7
ATOM      7  S   UNL     1       4.476  -4.349  -0.677  0.00  0.00    -0.100 S 
BRANCH   7   8
ATOM      8  C   UNL     1       2.803  -3.895  -1.210  0.00  0.00    +0.108 C 
BRANCH   8   9
ATOM      9  C   UNL     1       1.911  -5.109  -1.150  0.00  0.00    -0.036 A 
ATOM     10  C   UNL     1       1.794  -5.935  -2.252  0.00  0.00    +0.006 A 
ATOM     11  C   UNL     1       0.976  -7.048  -2.199  0.00  0.00    +0.022 A 
ATOM     12  C   UNL     1       0.274  -7.335  -1.042  0.00  0.00    +0.059 A 
ATOM     13  C   UNL     1       0.391  -6.508   0.061  0.00  0.00    +0.060 A 
ATOM     14  C   UNL     1       1.214  -5.397   0.008  0.00  0.00    +0.026 A 
ATOM     15 CL   UNL     1      -0.491  -6.867   1.513  0.00  0.00    -0.082 Cl
ATOM     16 CL   UNL     1      -0.755  -8.733  -0.975  0.00  0.00    -0.082 Cl
ENDBRANCH   8   9
ENDBRANCH   7   8
ENDBRANCH   5   7
ENDBRANCH   1   2
BRANCH   1  19
ATOM     17  C   UNL     1       2.204  -1.000  -3.347  0.00  0.00    +0.401 C 
ATOM     18  O   UNL     1       2.707  -0.917  -4.450  0.00  0.00    -0.226 OA
ATOM     19  N   UNL     1       2.846  -0.495  -2.274  0.00  0.00    -0.274 N 
ATOM     20  H   UNL     1       2.416  -0.500  -1.405  0.00  0.00    +0.152 HD
BRANCH  17  21
ATOM     21  O   UNL     1       1.007  -1.596  -3.195  0.00  0.00    -0.445 OA
BRANCH  21  23
ATOM     22  C   UNL     1       1.291  -3.168  -5.009  0.00  0.00    +0.055 C 
ATOM     23  C   UNL     1       0.385  -2.111  -4.374  0.00  0.00    +0.107 C 
ATOM     24  C   UNL     1       0.156  -0.972  -5.370  0.00  0.00    +0.055 C 
ATOM     25  C   UNL     1      -0.958  -2.745  -4.007  0.00  0.00    +0.055 C 
ENDBRANCH  21  23
ENDBRANCH  17  21
ENDBRANCH   1  19
BRANCH   1  26
ATOM     26  C   UNL     1       4.184   1.536  -2.016  0.00  0.00    +0.064 C 
BRANCH  26  27
ATOM     27  C   UNL     1       3.323   2.316  -2.976  0.00  0.00    -0.020 A 
ATOM     28  C   UNL     1       1.870   2.487  -2.903  0.00  0.00    +0.003 A 
ATOM     29  C   UNL     1       0.884   2.041  -2.021  0.00  0.00    +0.010 A 
ATOM     30  C   UNL     1      -0.422   2.384  -2.234  0.00  0.00    +0.001 A 
ATOM     31  C   UNL     1      -0.776   3.171  -3.321  0.00  0.00    +0.002 A 
ATOM     32  C   UNL     1       0.182   3.622  -4.204  0.00  0.00    +0.026 A 
ATOM     33  C   UNL     1       1.517   3.286  -4.006  0.00  0.00    +0.047 A 
ATOM     34  N   UNL     1       2.678   3.571  -4.689  0.00  0.00    -0.360 N 
ATOM     35  C   UNL     1       3.744   2.990  -4.058  0.00  0.00    +0.087 A 
ATOM     36  H   UNL     1       2.732   4.108  -5.495  0.00  0.00    +0.165 HD
ENDBRANCH  26  27
ENDBRANCH   1  26
TORSDOF 9
