REMARK  Name = ZINC59015529
REMARK  6 active torsions:
REMARK  status: ('A' for Active; 'I' for Inactive)
REMARK    1  A    between atoms: C_6  and  C_7
REMARK    2  A    between atoms: N_8  and  N_9
REMARK    3  A    between atoms: C_12  and  S_15
REMARK    4  A    between atoms: S_15  and  C_16
REMARK    5  A    between atoms: C_16  and  C_17
REMARK    6  A    between atoms: C_17  and  C_19
REMARK                            x       y       z     vdW  Elec       q    Type
REMARK                         _______ _______ _______ _____ _____    ______ ____
ROOT
ATOM      1  N   UNL     1      -2.394  -2.803  -0.741  0.00  0.00    -0.205 N 
ATOM      2  C   UNL     1      -2.378  -4.182  -0.648  0.00  0.00    +0.232 A 
ATOM      3  N   UNL     1      -1.315  -4.933  -0.452  0.00  0.00    -0.186 NA
ATOM      4  C   UNL     1      -1.673  -6.221  -0.416  0.00  0.00    +0.210 A 
ATOM      5  N   UNL     1      -2.970  -6.307  -0.590  0.00  0.00    -0.144 NA
ATOM      6  N   UNL     1      -3.452  -4.996  -0.738  0.00  0.00    -0.245 N 
ATOM      7  H   UNL     1      -3.232  -2.336  -0.883  0.00  0.00    +0.177 HD
ATOM      8  H   UNL     1      -4.374  -4.728  -0.878  0.00  0.00    +0.192 HD
ENDROOT
BRANCH   1  10
ATOM      9  C   UNL     1      -1.214  -0.784  -0.717  0.00  0.00    +0.138 C 
ATOM     10  N   UNL     1      -1.200  -2.079  -0.630  0.00  0.00    -0.188 NA
BRANCH   9  16
ATOM     11  C   UNL     1       0.031   1.371  -0.693  0.00  0.00    +0.010 A 
ATOM     12  C   UNL     1       1.210   2.077  -0.582  0.00  0.00    +0.016 A 
ATOM     13  C   UNL     1       2.405   1.407  -0.379  0.00  0.00    +0.018 A 
ATOM     14  C   UNL     1       2.424   0.026  -0.285  0.00  0.00    +0.016 A 
ATOM     15  C   UNL     1       1.252  -0.693  -0.395  0.00  0.00    +0.010 A 
ATOM     16  C   UNL     1       0.043  -0.023  -0.600  0.00  0.00    -0.005 A 
ATOM     17 BR   UNL     1       4.018   2.383  -0.228  0.00  0.00    -0.050 Br
ENDBRANCH   9  16
ENDBRANCH   1  10
BRANCH   4  18
ATOM     18  S   UNL     1      -0.580  -7.581  -0.176  0.00  0.00    -0.077 S 
BRANCH  18  19
ATOM     19  C   UNL     1      -1.667  -9.033  -0.230  0.00  0.00    +0.152 C 
BRANCH  19  20
ATOM     20  C   UNL     1      -0.847 -10.282  -0.035  0.00  0.00    +0.147 C 
ATOM     21  O   UNL     1       0.348 -10.201   0.124  0.00  0.00    -0.296 OA
BRANCH  20  22
ATOM     22  C   UNL     1      -1.517 -11.631  -0.038  0.00  0.00    +0.062 C 
ATOM     23  C   UNL     1      -2.283 -11.823   1.272  0.00  0.00    +0.000 C 
ATOM     24  C   UNL     1      -2.964 -13.194   1.269  0.00  0.00    +0.007 C 
ATOM     25  C   UNL     1      -1.905 -14.289   1.132  0.00  0.00    -0.010 C 
ATOM     26  C   UNL     1      -0.930 -14.206   2.309  0.00  0.00    +0.007 C 
ATOM     27  C   UNL     1      -0.250 -12.836   2.313  0.00  0.00    -0.010 C 
ATOM     28  C   UNL     1      -1.309 -11.741   2.449  0.00  0.00    +0.007 C 
ATOM     29  C   UNL     1       0.516 -12.644   1.002  0.00  0.00    +0.007 C 
ATOM     30  C   UNL     1      -0.458 -12.727  -0.175  0.00  0.00    +0.000 C 
ATOM     31  C   UNL     1      -1.139 -14.097  -0.178  0.00  0.00    +0.007 C 
ENDBRANCH  20  22
ENDBRANCH  19  20
ENDBRANCH  18  19
ENDBRANCH   4  18
TORSDOF 6
