REMARK  Name = ZINC24013596
REMARK  11 active torsions:
REMARK  status: ('A' for Active; 'I' for Inactive)
REMARK    1  A    between atoms: C_1  and  C_2
REMARK    2  A    between atoms: C_2  and  O_3
REMARK    3  A    between atoms: O_3  and  C_4
REMARK    4  A    between atoms: C_4  and  C_6
REMARK    5  A    between atoms: C_7  and  C_19
REMARK    6  A    between atoms: C_12  and  C_14
REMARK    7  A    between atoms: C_19  and  O_20
REMARK    8  A    between atoms: O_20  and  C_21
REMARK    9  A    between atoms: C_21  and  C_23
REMARK   10  A    between atoms: C_25  and  C_34
REMARK   11  A    between atoms: N_27  and  C_28
REMARK                            x       y       z     vdW  Elec       q    Type
REMARK                         _______ _______ _______ _____ _____    ______ ____
ROOT
ATOM      1  C   UNL     1      -2.888   0.327  -2.596  0.00  0.00    +0.284 C 
ENDROOT
BRANCH   1   3
ATOM      2  C   UNL     1      -1.780  -1.851  -2.246  0.00  0.00    +0.084 C 
ATOM      3  C   UNL     1      -1.666  -0.554  -2.603  0.00  0.00    +0.061 C 
ATOM      4  N   UNL     1      -0.461  -0.029  -2.976  0.00  0.00    -0.269 N 
ATOM      5  C   UNL     1       0.677  -0.732  -3.008  0.00  0.00    +0.305 C 
ATOM      6  O   UNL     1       1.703  -0.176  -3.349  0.00  0.00    -0.252 OA
ATOM      7  N   UNL     1       0.723  -2.038  -2.679  0.00  0.00    -0.285 N 
ATOM      8  C   UNL     1      -0.526  -2.701  -2.268  0.00  0.00    +0.179 C 
ATOM      9  H   UNL     1      -0.390   1.028  -3.272  0.00  0.00    +0.156 HD
ATOM     10  H   UNL     1       1.663  -2.608  -2.713  0.00  0.00    +0.151 HD
BRANCH   8  11
ATOM     11  C   UNL     1      -0.320  -3.261  -0.884  0.00  0.00    +0.130 A 
ATOM     12  C   UNL     1      -0.644  -4.503  -0.481  0.00  0.00    +0.047 A 
ATOM     13  C   UNL     1      -0.280  -4.601   0.881  0.00  0.00    +0.041 A 
ATOM     14  C   UNL     1       0.245  -3.413   1.230  0.00  0.00    +0.195 A 
ATOM     15  O   UNL     1       0.224  -2.607   0.155  0.00  0.00    -0.466 OA
ENDBRANCH   8  11
BRANCH   2  16
ATOM     16  C   UNL     1      -3.027  -2.397  -1.864  0.00  0.00    +0.339 C 
ATOM     17  O   UNL     1      -3.672  -3.056  -2.659  0.00  0.00    -0.245 OA
BRANCH  16  18
ATOM     18  O   UNL     1      -3.503  -2.188  -0.619  0.00  0.00    -0.462 OA
BRANCH  18  20
ATOM     19  C   UNL     1      -5.140  -2.427   1.143  0.00  0.00    +0.048 C 
ATOM     20  C   UNL     1      -4.769  -2.770  -0.301  0.00  0.00    +0.229 C 
ENDBRANCH  18  20
ENDBRANCH  16  18
ENDBRANCH   2  16
ENDBRANCH   1   3
BRANCH   1  21
ATOM     21  O   UNL     1      -2.746   1.344  -1.568  0.00  0.00    -0.454 OA
BRANCH  21  22
ATOM     22  C   UNL     1      -3.761   2.220  -1.429  0.00  0.00    +0.358 C 
ATOM     23  O   UNL     1      -4.739   2.136  -2.148  0.00  0.00    -0.243 OA
BRANCH  22  24
ATOM     24  C   UNL     1      -3.687   3.276  -0.410  0.00  0.00    +0.152 A 
ATOM     25  C   UNL     1      -4.686   4.168  -0.067  0.00  0.00    +0.065 A 
ATOM     26  C   UNL     1      -4.133   4.975   0.944  0.00  0.00    +0.094 A 
ATOM     27  N   UNL     1      -2.902   4.556   1.159  0.00  0.00    -0.166 NA
ATOM     28  N   UNL     1      -2.615   3.569   0.391  0.00  0.00    -0.225 N 
BRANCH  28  29
ATOM     29  C   UNL     1      -1.388   2.896   0.370  0.00  0.00    +0.066 A 
ATOM     30  C   UNL     1      -0.792   2.498   1.560  0.00  0.00    +0.028 A 
ATOM     31  C   UNL     1       0.421   1.839   1.537  0.00  0.00    +0.002 A 
ATOM     32  C   UNL     1       1.039   1.566   0.330  0.00  0.00    +0.000 A 
ATOM     33  C   UNL     1       0.446   1.956  -0.857  0.00  0.00    +0.002 A 
ATOM     34  C   UNL     1      -0.765   2.620  -0.841  0.00  0.00    +0.028 A 
ENDBRANCH  28  29
BRANCH  26  35
ATOM     35  C   UNL     1      -4.812   6.094   1.643  0.00  0.00    +0.002 A 
ATOM     36  C   UNL     1      -6.121   6.435   1.308  0.00  0.00    +0.010 A 
ATOM     37  C   UNL     1      -6.751   7.472   1.965  0.00  0.00    +0.001 A 
ATOM     38  C   UNL     1      -6.080   8.182   2.945  0.00  0.00    +0.000 A 
ATOM     39  C   UNL     1      -4.779   7.852   3.277  0.00  0.00    +0.001 A 
ATOM     40  C   UNL     1      -4.142   6.812   2.631  0.00  0.00    +0.010 A 
ENDBRANCH  26  35
ENDBRANCH  22  24
ENDBRANCH  21  22
ENDBRANCH   1  21
TORSDOF 10
