REMARK  Name = ZINC44714209
REMARK  8 active torsions:
REMARK  status: ('A' for Active; 'I' for Inactive)
REMARK    1  A    between atoms: C_1  and  C_2
REMARK    2  A    between atoms: C_3  and  C_9
REMARK    3  A    between atoms: C_4  and  C_8
REMARK    4  A    between atoms: C_9  and  C_11
REMARK    5  A    between atoms: C_9  and  N_12
REMARK    6  A    between atoms: C_13  and  C_15
REMARK    7  A    between atoms: C_26  and  C_28
REMARK    8  A    between atoms: C_31  and  C_33
REMARK                            x       y       z     vdW  Elec       q    Type
REMARK                         _______ _______ _______ _____ _____    ______ ____
ROOT
ATOM      1  C   UNL     1       2.526  -1.343  -5.213  0.00  0.00    +0.100 C 
ATOM      2  C   UNL     1       3.838  -1.495  -4.412  0.00  0.00    +0.121 C 
ATOM      3  N   UNL     1       4.912  -1.382  -5.428  0.00  0.00    -0.294 N 
ATOM      4  C   UNL     1       4.439  -0.319  -6.348  0.00  0.00    +0.115 C 
ATOM      5  C   UNL     1       2.924  -0.571  -6.482  0.00  0.00    -0.004 C 
ATOM      6  C   UNL     1       2.636  -1.410  -7.723  0.00  0.00    -0.010 C 
ATOM      7  C   UNL     1       2.988  -0.599  -8.974  0.00  0.00    -0.082 C 
ATOM      8  N   UNL     1       2.194   0.635  -8.998  0.00  0.00    +0.379 N 
ATOM      9  C   UNL     1       2.544   1.479  -7.849  0.00  0.00    -0.082 C 
ATOM     10  C   UNL     1       2.174   0.756  -6.551  0.00  0.00    -0.010 C 
ATOM     11  C   UNL     1       6.058  -2.087  -5.500  0.00  0.00    +0.282 C 
ATOM     12  O   UNL     1       6.847  -1.876  -6.403  0.00  0.00    -0.267 OA
ATOM     13  H   UNL     1       2.382   1.138  -9.853  0.00  0.00    -0.086 HD
ATOM     14  H   UNL     1       1.213   0.403  -8.957  0.00  0.00    -0.086 HD
ENDROOT
BRANCH  11  15
ATOM     15  C   UNL     1       6.356  -3.106  -4.491  0.00  0.00    +0.190 A 
ATOM     16  C   UNL     1       7.487  -3.891  -4.442  0.00  0.00    +0.055 A 
ATOM     17  C   UNL     1       7.357  -4.718  -3.323  0.00  0.00    +0.051 A 
ATOM     18  C   UNL     1       6.163  -4.413  -2.734  0.00  0.00    +0.139 A 
ATOM     19  O   UNL     1       5.571  -3.437  -3.443  0.00  0.00    -0.450 OA
BRANCH  18  20
ATOM     20  C   UNL     1       5.617  -5.046  -1.518  0.00  0.00    +0.052 A 
ATOM     21  C   UNL     1       5.571  -6.438  -1.411  0.00  0.00    +0.014 A 
ATOM     22  C   UNL     1       5.059  -7.023  -0.272  0.00  0.00    +0.001 A 
ATOM     23  C   UNL     1       4.591  -6.235   0.765  0.00  0.00    +0.003 A 
ATOM     24  C   UNL     1       4.632  -4.856   0.669  0.00  0.00    +0.039 A 
ATOM     25  C   UNL     1       5.148  -4.255  -0.464  0.00  0.00    +0.134 A 
ATOM     26  F   UNL     1       5.193  -2.908  -0.556  0.00  0.00    -0.205 F 
ENDBRANCH  18  20
ENDBRANCH  11  15
BRANCH   1  28
ATOM     27  N   UNL     1       0.197  -0.776  -4.603  0.00  0.00    -0.308 N 
ATOM     28  C   UNL     1       1.514  -0.559  -4.418  0.00  0.00    +0.219 C 
ATOM     29  O   UNL     1       1.885   0.268  -3.611  0.00  0.00    -0.275 OA
ATOM     30  H   UNL     1      -0.100  -1.437  -5.248  0.00  0.00    +0.149 HD
BRANCH  27  31
ATOM     31  C   UNL     1      -0.787  -0.014  -3.830  0.00  0.00    +0.104 C 
ATOM     32  C   UNL     1      -1.059   1.321  -4.526  0.00  0.00    +0.033 C 
BRANCH  31  35
ATOM     33  C   UNL     1      -2.504  -0.429  -1.248  0.00  0.00    +0.065 C 
ATOM     34  C   UNL     1      -2.811  -0.980  -2.616  0.00  0.00    +0.038 A 
ATOM     35  C   UNL     1      -2.069  -0.801  -3.734  0.00  0.00    +0.015 A 
ATOM     36  C   UNL     1      -2.702  -1.474  -4.783  0.00  0.00    +0.065 A 
ATOM     37  N   UNL     1      -3.785  -2.038  -4.313  0.00  0.00    -0.179 NA
ATOM     38  N   UNL     1      -3.873  -1.744  -2.946  0.00  0.00    -0.281 N 
ATOM     39  H   UNL     1      -4.575  -2.037  -2.344  0.00  0.00    +0.189 HD
ATOM     40  C   UNL     1      -2.220  -1.540  -6.210  0.00  0.00    +0.068 C 
ENDBRANCH  31  35
ENDBRANCH  27  31
ENDBRANCH   1  28
TORSDOF 5
