REMARK  Name = ZINC09284220
REMARK  11 active torsions:
REMARK  status: ('A' for Active; 'I' for Inactive)
REMARK    1  A    between atoms: C_1  and  C_2
REMARK    2  A    between atoms: C_5  and  C_36
REMARK    3  A    between atoms: C_6  and  N_8
REMARK    4  A    between atoms: C_13  and  C_15
REMARK    5  A    between atoms: C_15  and  O_17
REMARK    6  A    between atoms: O_17  and  C_18
REMARK    7  A    between atoms: C_18  and  C_19
REMARK    8  A    between atoms: N_21  and  C_22
REMARK    9  A    between atoms: N_21  and  C_26
REMARK   10  A    between atoms: C_22  and  C_23
REMARK   11  A    between atoms: C_23  and  C_24
REMARK                            x       y       z     vdW  Elec       q    Type
REMARK                         _______ _______ _______ _____ _____    ______ ____
ROOT
ATOM      1  O   UNL     1       7.173   0.228  -0.397  0.00  0.00    -0.451 OA
ENDROOT
BRANCH   1   2
ATOM      2  C   UNL     1       8.417  -0.278  -0.524  0.00  0.00    +0.356 C 
ATOM      3  O   UNL     1       8.584  -1.482  -0.547  0.00  0.00    -0.244 OA
BRANCH   2   9
ATOM      4  N   UNL     1      10.452   2.798  -0.714  0.00  0.00    -0.160 N 
ATOM      5  C   UNL     1      11.632   2.388  -1.220  0.00  0.00    +0.240 C 
ATOM      6  O   UNL     1      12.557   3.165  -1.313  0.00  0.00    -0.273 OA
ATOM      7  C   UNL     1      11.796   0.958  -1.670  0.00  0.00    +0.104 C 
ATOM      8  C   UNL     1      10.951   0.048  -0.770  0.00  0.00    +0.074 C 
ATOM      9  C   UNL     1       9.567   0.624  -0.635  0.00  0.00    +0.144 C 
ATOM     10  N   UNL     1       9.379   1.908  -0.609  0.00  0.00    -0.170 NA
BRANCH   4  16
ATOM     11  C   UNL     1      11.973   6.553   2.072  0.00  0.00    +0.044 C 
ATOM     12  C   UNL     1      11.023   5.970   1.058  0.00  0.00    -0.049 A 
ATOM     13  C   UNL     1      10.000   6.745   0.544  0.00  0.00    +0.004 A 
ATOM     14  C   UNL     1       9.126   6.213  -0.386  0.00  0.00    +0.005 A 
ATOM     15  C   UNL     1       9.277   4.907  -0.810  0.00  0.00    -0.027 A 
ATOM     16  C   UNL     1      10.300   4.124  -0.291  0.00  0.00    +0.063 A 
ATOM     17  C   UNL     1      11.176   4.662   0.643  0.00  0.00    +0.029 A 
ATOM     18  C   UNL     1       8.329   4.330  -1.829  0.00  0.00    +0.046 C 
ENDBRANCH   4  16
ENDBRANCH   2   9
ENDBRANCH   1   2
BRANCH   1  19
ATOM     19  C   UNL     1       6.082  -0.724  -0.293  0.00  0.00    +0.328 C 
BRANCH  19  20
ATOM     20  C   UNL     1       4.778   0.020  -0.158  0.00  0.00    +0.258 C 
ATOM     21  O   UNL     1       4.769   1.233  -0.151  0.00  0.00    -0.272 OA
ATOM     22  N   UNL     1       3.621  -0.663  -0.046  0.00  0.00    -0.268 N 
BRANCH  22  23
ATOM     23  C   UNL     1       2.401   0.025  -0.023  0.00  0.00    +0.040 A 
ATOM     24  C   UNL     1       1.637   0.045   1.136  0.00  0.00    +0.027 A 
ATOM     25  C   UNL     1       0.433   0.722   1.159  0.00  0.00    +0.051 A 
ATOM     26  C   UNL     1      -0.016   1.384   0.025  0.00  0.00    +0.162 A 
ATOM     27  C   UNL     1       0.749   1.369  -1.135  0.00  0.00    +0.164 A 
ATOM     28  C   UNL     1       1.956   0.687  -1.158  0.00  0.00    +0.073 A 
ATOM     29  O   UNL     1       0.329   2.020  -2.255  0.00  0.00    -0.485 OA
ATOM     30  C   UNL     1      -1.056   2.376  -2.311  0.00  0.00    +0.270 C 
ATOM     31  C   UNL     1      -1.446   3.005  -0.967  0.00  0.00    +0.270 C 
ATOM     32  O   UNL     1      -1.209   2.039   0.064  0.00  0.00    -0.485 OA
ENDBRANCH  22  23
BRANCH  22  33
ATOM     33  C   UNL     1       3.640  -2.125   0.052  0.00  0.00    +0.128 C 
BRANCH  33  34
ATOM     34  C   UNL     1       3.565  -2.731  -1.351  0.00  0.00    +0.138 C 
BRANCH  34  35
ATOM     35  C   UNL     1       3.583  -4.199  -1.252  0.00  0.00    +0.064 C 
ATOM     36  N   UNL     1       3.598  -5.333  -1.176  0.00  0.00    -0.197 NA
ENDBRANCH  34  35
ENDBRANCH  33  34
ENDBRANCH  22  33
ENDBRANCH  19  20
ENDBRANCH   1  19
TORSDOF 9
