REMARK  Name = ZINC63588800
REMARK  9 active torsions:
REMARK  status: ('A' for Active; 'I' for Inactive)
REMARK    1  A    between atoms: C_1  and  C_2
REMARK    2  A    between atoms: C_5  and  C_36
REMARK    3  A    between atoms: N_6  and  C_7
REMARK    4  A    between atoms: C_10  and  C_13
REMARK    5  A    between atoms: C_13  and  N_15
REMARK    6  A    between atoms: N_17  and  C_18
REMARK    7  A    between atoms: N_24  and  C_25
REMARK    8  A    between atoms: C_25  and  C_26
REMARK    9  A    between atoms: C_26  and  C_27
REMARK                            x       y       z     vdW  Elec       q    Type
REMARK                         _______ _______ _______ _____ _____    ______ ____
ROOT
ATOM      1  N   UNL     1      -1.886   0.818   7.587  0.00  0.00    -0.143 NA
ATOM      2  C   UNL     1      -1.129   1.667   8.264  0.00  0.00    +0.194 C 
ATOM      3  N   UNL     1       0.229   1.526   8.259  0.00  0.00    -0.328 N 
ATOM      4  N   UNL     1      -1.707   2.684   8.967  0.00  0.00    -0.357 N 
ATOM      5  H   UNL     1       0.710   1.497   7.417  0.00  0.00    +0.169 HD
ATOM      6  H   UNL     1      -2.673   2.757   9.010  0.00  0.00    +0.162 HD
ENDROOT
BRANCH   3   7
ATOM      7  C   UNL     1       0.925   1.422   9.467  0.00  0.00    +0.042 A 
ATOM      8  C   UNL     1       0.363   0.742  10.539  0.00  0.00    +0.026 A 
ATOM      9  C   UNL     1       1.054   0.642  11.731  0.00  0.00    +0.002 A 
ATOM     10  C   UNL     1       2.304   1.218  11.857  0.00  0.00    +0.000 A 
ATOM     11  C   UNL     1       2.867   1.896  10.792  0.00  0.00    +0.002 A 
ATOM     12  C   UNL     1       2.184   1.995   9.596  0.00  0.00    +0.026 A 
ENDBRANCH   3   7
BRANCH   1  13
ATOM     13  C   UNL     1      -1.334  -0.259   7.011  0.00  0.00    +0.270 C 
ATOM     14  O   UNL     1      -0.126  -0.409   7.032  0.00  0.00    -0.268 OA
BRANCH  13  18
ATOM     15  C   UNL     1      -3.802  -3.154   5.114  0.00  0.00    +0.047 A 
ATOM     16  C   UNL     1      -2.422  -3.325   5.136  0.00  0.00    +0.027 A 
ATOM     17  C   UNL     1      -1.620  -2.389   5.750  0.00  0.00    +0.015 A 
ATOM     18  C   UNL     1      -2.193  -1.266   6.350  0.00  0.00    +0.039 A 
ATOM     19  C   UNL     1      -3.579  -1.097   6.326  0.00  0.00    +0.015 A 
ATOM     20  C   UNL     1      -4.375  -2.034   5.706  0.00  0.00    +0.027 A 
BRANCH  15  26
ATOM     21  C   UNL     1      -3.746  -3.756   2.108  0.00  0.00    +0.064 C 
ATOM     22  C   UNL     1      -4.616  -4.401   3.156  0.00  0.00    +0.021 A 
ATOM     23  C   UNL     1      -5.526  -5.371   2.941  0.00  0.00    +0.023 A 
ATOM     24  C   UNL     1      -6.112  -5.686   4.184  0.00  0.00    +0.023 A 
ATOM     25  C   UNL     1      -5.538  -4.896   5.113  0.00  0.00    +0.021 A 
ATOM     26  N   UNL     1      -4.614  -4.106   4.490  0.00  0.00    -0.318 N 
ATOM     27  C   UNL     1      -5.858  -4.888   6.586  0.00  0.00    +0.064 C 
ENDBRANCH  15  26
ENDBRANCH  13  18
ENDBRANCH   1  13
BRANCH   4  28
ATOM     28  C   UNL     1      -0.867   3.666   9.658  0.00  0.00    +0.120 C 
BRANCH  28  29
ATOM     29  C   UNL     1      -1.756   4.693  10.361  0.00  0.00    +0.054 C 
BRANCH  29  30
ATOM     30  C   UNL     1      -0.896   5.771  10.968  0.00  0.00    -0.040 C 
ATOM     31  C   UNL     1      -0.543   6.947  10.401  0.00  0.00    -0.001 A 
ATOM     32  C   UNL     1      -0.843   7.551   9.097  0.00  0.00    +0.010 A 
ATOM     33  C   UNL     1      -0.335   8.771   8.807  0.00  0.00    +0.001 A 
ATOM     34  C   UNL     1       0.469   9.470   9.718  0.00  0.00    +0.002 A 
ATOM     35  C   UNL     1       0.788   8.980  10.934  0.00  0.00    +0.026 A 
ATOM     36  C   UNL     1       0.308   7.706  11.345  0.00  0.00    +0.043 A 
ATOM     37  N   UNL     1       0.475   7.025  12.453  0.00  0.00    -0.380 N 
ATOM     38  C   UNL     1      -0.257   5.759  12.339  0.00  0.00    +0.144 C 
ATOM     39  H   UNL     1       0.993   7.313  13.221  0.00  0.00    +0.160 HD
ENDBRANCH  29  30
ENDBRANCH  28  29
ENDBRANCH   4  28
TORSDOF 7
