REMARK  Name = ZINC09407784
REMARK  10 active torsions:
REMARK  status: ('A' for Active; 'I' for Inactive)
REMARK    1  A    between atoms: C_1  and  C_2
REMARK    2  A    between atoms: C_2  and  C_3
REMARK    3  A    between atoms: C_3  and  C_5
REMARK    4  A    between atoms: C_3  and  N_55
REMARK    5  A    between atoms: C_6  and  C_7
REMARK    6  A    between atoms: C_6  and  N_55
REMARK    7  A    between atoms: C_7  and  N_8
REMARK    8  A    between atoms: C_9  and  C_11
REMARK    9  A    between atoms: C_25  and  C_26
REMARK   10  A    between atoms: C_25  and  N_55
REMARK                            x       y       z     vdW  Elec       q    Type
REMARK                         _______ _______ _______ _____ _____    ______ ____
ROOT
ATOM      1  N   UNL     1       3.324   7.019   3.720  0.00  0.00    -0.313 N 
ATOM      2  C   UNL     1       3.491   7.519   4.960  0.00  0.00    +0.251 C 
ATOM      3  O   UNL     1       3.341   6.801   5.931  0.00  0.00    -0.270 OA
ATOM      4  H   UNL     1       3.444   7.591   2.946  0.00  0.00    +0.149 HD
ENDROOT
BRANCH   2   5
ATOM      5  C   UNL     1       3.855   8.925   5.139  0.00  0.00    +0.075 A 
ATOM      6  C   UNL     1       4.066   9.627   6.314  0.00  0.00    +0.025 A 
ATOM      7  C   UNL     1       4.409  10.962   6.261  0.00  0.00    -0.022 A 
ATOM      8  C   UNL     1       4.510  11.524   4.992  0.00  0.00    +0.025 A 
ATOM      9  S   UNL     1       4.133  10.180   3.898  0.00  0.00    -0.083 S 
ATOM     10  C   UNL     1       4.849  12.905   4.652  0.00  0.00    +0.002 A 
ATOM     11  C   UNL     1       4.511  13.450   3.414  0.00  0.00    +0.011 A 
ATOM     12  C   UNL     1       4.836  14.759   3.127  0.00  0.00    +0.020 A 
ATOM     13  C   UNL     1       5.498  15.539   4.063  0.00  0.00    +0.042 A 
ATOM     14  C   UNL     1       5.843  15.011   5.293  0.00  0.00    +0.035 A 
ATOM     15  C   UNL     1       5.527  13.696   5.597  0.00  0.00    +0.018 A 
ATOM     16  S   UNL     1       5.969  13.008   7.156  0.00  0.00    -0.120 S 
ATOM     17  C   UNL     1       4.663  11.802   7.508  0.00  0.00    +0.110 C 
ATOM     18 CL   UNL     1       5.896  17.186   3.688  0.00  0.00    -0.084 Cl
ENDBRANCH   2   5
BRANCH   1  19
ATOM     19  C   UNL     1       2.959   5.611   3.541  0.00  0.00    +0.086 C 
BRANCH  19  20
ATOM     20  C   UNL     1       2.832   5.303   2.047  0.00  0.00    -0.059 C 
BRANCH  20  21
ATOM     21  N   UNL     1       2.324   3.924   1.889  0.00  0.00    +0.387 N 
ATOM     22  H   UNL     1       1.538   3.782   2.533  0.00  0.00    -0.081 HD
BRANCH  21  23
ATOM     23  C   UNL     1       3.390   2.953   2.210  0.00  0.00    -0.071 C 
ATOM     24  C   UNL     1       2.739   1.655   2.691  0.00  0.00    -0.013 C 
BRANCH  23  26
ATOM     25  C   UNL     1       4.936   3.955   0.522  0.00  0.00    +0.002 C 
ATOM     26  C   UNL     1       4.243   2.667   0.973  0.00  0.00    -0.019 C 
ENDBRANCH  23  26
ENDBRANCH  21  23
BRANCH  21  27
ATOM     27  C   UNL     1       1.852   3.716   0.503  0.00  0.00    -0.003 C 
BRANCH  27  28
ATOM     28  C   UNL     1       0.959   2.503   0.474  0.00  0.00    +0.089 A 
ATOM     29  C   UNL     1      -0.345   2.478   0.803  0.00  0.00    +0.042 A 
ATOM     30  C   UNL     1      -0.785   1.145   0.632  0.00  0.00    +0.041 A 
ATOM     31  C   UNL     1       0.276   0.436   0.209  0.00  0.00    +0.195 A 
ATOM     32  O   UNL     1       1.330   1.263   0.116  0.00  0.00    -0.470 OA
ENDBRANCH  27  28
ENDBRANCH  21  27
ENDBRANCH  20  21
ENDBRANCH  19  20
ENDBRANCH   1  19
TORSDOF 8
