REMARK  Name = ZINC46791834
REMARK  9 active torsions:
REMARK  status: ('A' for Active; 'I' for Inactive)
REMARK    1  A    between atoms: C_1  and  C_2
REMARK    2  A    between atoms: C_7  and  C_10
REMARK    3  A    between atoms: C_14  and  C_17
REMARK    4  A    between atoms: C_17  and  N_18
REMARK    5  A    between atoms: C_19  and  C_21
REMARK    6  A    between atoms: C_21  and  C_23
REMARK    7  A    between atoms: C_21  and  O_24
REMARK    8  A    between atoms: O_24  and  C_25
REMARK    9  A    between atoms: C_28  and  C_31
REMARK                            x       y       z     vdW  Elec       q    Type
REMARK                         _______ _______ _______ _____ _____    ______ ____
ROOT
ATOM      1  N   UNL     1       4.630   3.970  -5.181  0.00  0.00    -0.308 N 
ATOM      2  C   UNL     1       5.219   4.821  -6.043  0.00  0.00    +0.254 C 
ATOM      3  O   UNL     1       5.921   4.393  -6.934  0.00  0.00    -0.272 OA
ATOM      4  H   UNL     1       4.068   4.312  -4.468  0.00  0.00    +0.149 HD
ENDROOT
BRANCH   2   5
ATOM      5  C   UNL     1       5.004   6.306  -5.901  0.00  0.00    +0.255 C 
ATOM      6  C   UNL     1       5.617   6.786  -4.584  0.00  0.00    +0.062 C 
BRANCH   5   7
ATOM      7  O   UNL     1       5.630   6.985  -6.992  0.00  0.00    -0.480 OA
BRANCH   7   8
ATOM      8  C   UNL     1       5.133   8.204  -7.327  0.00  0.00    +0.122 A 
ATOM      9  C   UNL     1       4.145   8.788  -6.546  0.00  0.00    +0.046 A 
ATOM     10  C   UNL     1       3.639  10.025  -6.883  0.00  0.00    +0.012 A 
ATOM     11  C   UNL     1       4.119  10.690  -8.011  0.00  0.00    -0.018 A 
ATOM     12  C   UNL     1       5.111  10.101  -8.793  0.00  0.00    +0.012 A 
ATOM     13  C   UNL     1       5.617   8.865  -8.448  0.00  0.00    +0.046 A 
BRANCH  11  14
ATOM     14  C   UNL     1       3.575  12.020  -8.377  0.00  0.00    -0.018 A 
ATOM     15  C   UNL     1       2.588  12.613  -7.592  0.00  0.00    +0.008 A 
ATOM     16  C   UNL     1       2.086  13.851  -7.938  0.00  0.00    +0.001 A 
ATOM     17  C   UNL     1       2.561  14.504  -9.060  0.00  0.00    +0.000 A 
ATOM     18  C   UNL     1       3.542  13.921  -9.843  0.00  0.00    +0.001 A 
ATOM     19  C   UNL     1       4.055  12.686  -9.504  0.00  0.00    +0.008 A 
ENDBRANCH  11  14
ENDBRANCH   7   8
ENDBRANCH   5   7
ENDBRANCH   2   5
BRANCH   1  20
ATOM     20  C   UNL     1       4.839   2.526  -5.319  0.00  0.00    +0.141 C 
BRANCH  20  32
ATOM     21  C   UNL     1      -0.035   1.505  -0.028  0.00  0.00    +0.039 C 
ATOM     22  C   UNL     1      -0.029  -0.025  -0.053  0.00  0.00    +0.133 C 
ATOM     23  C   UNL     1       0.687  -0.513  -1.317  0.00  0.00    +0.137 C 
ATOM     24  N   UNL     1       2.112  -0.163  -1.208  0.00  0.00    -0.312 N 
ATOM     25  C   UNL     1       2.824  -0.537   0.025  0.00  0.00    +0.137 C 
ATOM     26  C   UNL     1       2.003  -0.047   1.224  0.00  0.00    +0.133 C 
ATOM     27  O   UNL     1       0.658  -0.519   1.099  0.00  0.00    -0.371 OA
ATOM     28  C   UNL     1       2.617  -0.587   2.518  0.00  0.00    +0.039 C 
ATOM     29  C   UNL     1       2.767   0.500  -2.239  0.00  0.00    +0.099 A 
ATOM     30  C   UNL     1       2.103   0.736  -3.439  0.00  0.00    +0.042 A 
ATOM     31  C   UNL     1       2.767   1.397  -4.456  0.00  0.00    +0.010 A 
ATOM     32  C   UNL     1       4.077   1.803  -4.239  0.00  0.00    -0.014 A 
ATOM     33  C   UNL     1       4.674   1.536  -3.023  0.00  0.00    +0.089 A 
ATOM     34  N   UNL     1       4.015   0.908  -2.068  0.00  0.00    -0.349 N 
ATOM     35  H   UNL     1       4.457   0.737  -1.222  0.00  0.00    +0.167 HD
ENDBRANCH  20  32
ENDBRANCH   1  20
TORSDOF 6
