REMARK  Name = ZINC38597844
REMARK  8 active torsions:
REMARK  status: ('A' for Active; 'I' for Inactive)
REMARK    1  A    between atoms: C_3  and  C_32
REMARK    2  A    between atoms: C_5  and  S_7
REMARK    3  A    between atoms: S_7  and  N_10
REMARK    4  A    between atoms: N_10  and  C_11
REMARK    5  A    between atoms: C_11  and  C_12
REMARK    6  A    between atoms: C_12  and  C_14
REMARK    7  A    between atoms: C_12  and  N_19
REMARK    8  A    between atoms: N_22  and  C_25
REMARK                            x       y       z     vdW  Elec       q    Type
REMARK                         _______ _______ _______ _____ _____    ______ ____
ROOT
ATOM      1  C   UNL     1       0.346  -3.528   3.624  0.00  0.00    +0.015 C 
ENDROOT
BRANCH   1   2
ATOM      2  N   UNL     1       1.633  -3.206   4.255  0.00  0.00    +0.389 N 
ATOM      3  C   UNL     1       2.703  -3.297   3.255  0.00  0.00    -0.059 C 
ATOM      4  C   UNL     1       4.028  -2.850   3.883  0.00  0.00    +0.086 C 
ATOM      5  N   UNL     1       4.261  -3.648   5.096  0.00  0.00    -0.333 N 
ATOM      6  C   UNL     1       3.173  -3.745   6.082  0.00  0.00    +0.086 C 
ATOM      7  C   UNL     1       1.889  -4.150   5.350  0.00  0.00    -0.059 C 
ATOM      8  H   UNL     1       1.599  -2.267   4.623  0.00  0.00    -0.081 HD
BRANCH   5   9
ATOM      9  C   UNL     1       5.482  -4.296   5.307  0.00  0.00    +0.030 A 
ATOM     10  C   UNL     1       6.450  -4.295   4.312  0.00  0.00    +0.026 A 
ATOM     11  C   UNL     1       7.656  -4.935   4.523  0.00  0.00    +0.040 A 
ATOM     12  C   UNL     1       7.900  -5.577   5.726  0.00  0.00    +0.124 A 
ATOM     13  C   UNL     1       6.936  -5.579   6.719  0.00  0.00    +0.040 A 
ATOM     14  C   UNL     1       5.730  -4.936   6.515  0.00  0.00    +0.026 A 
ATOM     15  F   UNL     1       9.079  -6.203   5.929  0.00  0.00    -0.205 F 
ENDBRANCH   5   9
ENDBRANCH   1   2
BRANCH   1  16
ATOM     16  C   UNL     1      -0.765  -3.345   4.625  0.00  0.00    +0.093 A 
ATOM     17  C   UNL     1      -1.831  -4.152   4.774  0.00  0.00    +0.043 A 
ATOM     18  C   UNL     1      -2.612  -3.609   5.820  0.00  0.00    +0.041 A 
ATOM     19  C   UNL     1      -1.977  -2.504   6.248  0.00  0.00    +0.195 A 
ATOM     20  O   UNL     1      -0.856  -2.352   5.525  0.00  0.00    -0.469 OA
ENDBRANCH   1  16
BRANCH   1  21
ATOM     21  C   UNL     1       0.116  -2.598   2.431  0.00  0.00    +0.098 C 
BRANCH  21  22
ATOM     22  N   UNL     1       0.235  -1.205   2.868  0.00  0.00    -0.191 NA
ATOM     23  H   UNL     1       0.190  -0.987   3.812  0.00  0.00    +0.148 HD
BRANCH  22  24
ATOM     24  S   UNL     1       0.445  -0.002   1.750  0.00  0.00    +0.058 S 
ATOM     25  O   UNL     1       1.496  -0.424   0.891  0.00  0.00    -0.153 OA
ATOM     26  O   UNL     1       0.497   1.220   2.473  0.00  0.00    -0.153 OA
BRANCH  24  31
ATOM     27  C   UNL     1      -2.254  -0.662  -1.153  0.00  0.00    +0.002 A 
ATOM     28  C   UNL     1      -3.307   0.151  -0.777  0.00  0.00    +0.012 A 
ATOM     29  C   UNL     1      -3.215   0.917   0.369  0.00  0.00    +0.057 A 
ATOM     30  C   UNL     1      -2.069   0.871   1.141  0.00  0.00    +0.041 A 
ATOM     31  C   UNL     1      -1.016   0.057   0.766  0.00  0.00    +0.106 A 
ATOM     32  C   UNL     1      -1.108  -0.708  -0.381  0.00  0.00    +0.028 A 
BRANCH  29  33
ATOM     33  C   UNL     1      -4.362   1.804   0.778  0.00  0.00    +0.417 C 
ATOM     34  F   UNL     1      -5.400   1.683  -0.153  0.00  0.00    -0.166 F 
ATOM     35  F   UNL     1      -4.822   1.420   2.042  0.00  0.00    -0.166 F 
ATOM     36  F   UNL     1      -3.931   3.134   0.824  0.00  0.00    -0.166 F 
ENDBRANCH  29  33
ENDBRANCH  24  31
ENDBRANCH  22  24
ENDBRANCH  21  22
ENDBRANCH   1  21
TORSDOF 8
