REMARK  Name = ZINC39478399
REMARK  5 active torsions:
REMARK  status: ('A' for Active; 'I' for Inactive)
REMARK    1  A    between atoms: C_4  and  C_7
REMARK    2  A    between atoms: C_10  and  C_13
REMARK    3  A    between atoms: C_17  and  C_19
REMARK    4  A    between atoms: C_19  and  N_20
REMARK    5  A    between atoms: N_23  and  C_26
REMARK                            x       y       z     vdW  Elec       q    Type
REMARK                         _______ _______ _______ _____ _____    ______ ____
ROOT
ATOM      1  C   UNL     1       7.402  -2.748  -0.084  0.00  0.00    +0.080 C 
ATOM      2  N   UNL     1       8.596  -2.222  -0.083  0.00  0.00    -0.153 NA
ATOM      3  N   UNL     1       9.596  -3.188  -0.101  0.00  0.00    -0.161 NA
ATOM      4  C   UNL     1       9.122  -4.392  -0.114  0.00  0.00    +0.118 C 
ATOM      5  C   UNL     1       7.613  -4.250  -0.100  0.00  0.00    +0.097 C 
ENDROOT
BRANCH   1   9
ATOM      6  C   UNL     1       3.698  -0.688  -0.037  0.00  0.00    -0.018 A 
ATOM      7  C   UNL     1       4.895   0.030  -0.040  0.00  0.00    +0.009 A 
ATOM      8  C   UNL     1       6.094  -0.634  -0.054  0.00  0.00    +0.010 A 
ATOM      9  C   UNL     1       6.117  -2.034  -0.068  0.00  0.00    -0.001 A 
ATOM     10  C   UNL     1       4.916  -2.752  -0.065  0.00  0.00    +0.010 A 
ATOM     11  C   UNL     1       3.719  -2.083  -0.045  0.00  0.00    +0.009 A 
BRANCH   6  15
ATOM     12  C   UNL     1      -0.017   1.379   0.010  0.00  0.00    +0.000 A 
ATOM     13  C   UNL     1       1.169   2.092   0.002  0.00  0.00    +0.001 A 
ATOM     14  C   UNL     1       2.377   1.427  -0.013  0.00  0.00    +0.008 A 
ATOM     15  C   UNL     1       2.403   0.033  -0.021  0.00  0.00    -0.018 A 
ATOM     16  C   UNL     1       1.205  -0.680  -0.013  0.00  0.00    +0.008 A 
ATOM     17  C   UNL     1       0.002  -0.004   0.002  0.00  0.00    +0.001 A 
ENDBRANCH   6  15
ENDBRANCH   1   9
BRANCH   5  18
ATOM     18  C   UNL     1       7.021  -4.890   1.157  0.00  0.00    +0.100 C 
BRANCH  18  19
ATOM     19  N   UNL     1       7.133  -6.352   1.061  0.00  0.00    -0.299 NA
ATOM     20  C   UNL     1       6.290  -6.874  -0.024  0.00  0.00    +0.100 C 
ATOM     21  C   UNL     1       6.495  -8.386  -0.143  0.00  0.00    +0.105 C 
ATOM     22  N   UNL     1       6.157  -9.026   1.137  0.00  0.00    -0.249 NA
ATOM     23  C   UNL     1       7.000  -8.504   2.221  0.00  0.00    +0.105 C 
ATOM     24  C   UNL     1       6.795  -6.992   2.340  0.00  0.00    +0.100 C 
BRANCH  22  25
ATOM     25  C   UNL     1       6.269 -10.487   1.040  0.00  0.00    +0.340 C 
ATOM     26  N   UNL     1       5.836 -11.112   2.297  0.00  0.00    -0.294 N 
ATOM     27  C   UNL     1       6.946 -11.814   2.789  0.00  0.00    +0.073 A 
ATOM     28  C   UNL     1       7.105 -12.581   3.935  0.00  0.00    +0.027 A 
ATOM     29  C   UNL     1       8.320 -13.181   4.203  0.00  0.00    +0.002 A 
ATOM     30  C   UNL     1       9.379 -13.019   3.329  0.00  0.00    +0.004 A 
ATOM     31  C   UNL     1       9.228 -12.257   2.187  0.00  0.00    +0.048 A 
ATOM     32  C   UNL     1       8.011 -11.649   1.909  0.00  0.00    +0.145 A 
ATOM     33  O   UNL     1       7.636 -10.866   0.860  0.00  0.00    -0.456 OA
ATOM     34  H   UNL     1       4.959 -11.050   2.706  0.00  0.00    +0.151 HD
ENDBRANCH  22  25
ENDBRANCH  18  19
ENDBRANCH   5  18
TORSDOF 5
