REMARK  Name = ZINC67045473
REMARK  9 active torsions:
REMARK  status: ('A' for Active; 'I' for Inactive)
REMARK    1  A    between atoms: C_1  and  C_2
REMARK    2  A    between atoms: C_2  and  C_3
REMARK    3  A    between atoms: C_2  and  C_4
REMARK    4  A    between atoms: C_6  and  C_10
REMARK    5  A    between atoms: N_12  and  C_13
REMARK    6  A    between atoms: C_18  and  S_19
REMARK    7  A    between atoms: S_19  and  C_20
REMARK    8  A    between atoms: N_22  and  C_23
REMARK    9  A    between atoms: N_22  and  C_24
REMARK                            x       y       z     vdW  Elec       q    Type
REMARK                         _______ _______ _______ _____ _____    ______ ____
ROOT
ATOM      1  C   UNL     1      -4.495  -2.259  -1.361  0.00  0.00    +0.268 C 
ATOM      2  O   UNL     1      -4.341  -2.856  -2.410  0.00  0.00    -0.268 OA
ATOM      3  N   UNL     1      -5.513  -2.589  -0.541  0.00  0.00    -0.279 N 
ATOM      4  H   UNL     1      -5.596  -2.160   0.325  0.00  0.00    +0.155 HD
ENDROOT
BRANCH   1   7
ATOM      5  C   UNL     1      -1.913   0.284  -1.006  0.00  0.00    +0.039 A 
ATOM      6  C   UNL     1      -2.459  -0.715  -1.738  0.00  0.00    +0.057 A 
ATOM      7  C   UNL     1      -3.567  -1.173  -0.987  0.00  0.00    +0.147 A 
ATOM      8  N   UNL     1      -3.614  -0.445   0.112  0.00  0.00    -0.169 NA
ATOM      9  N   UNL     1      -2.652   0.406   0.118  0.00  0.00    -0.281 N 
ATOM     10  H   UNL     1      -2.482   1.046   0.827  0.00  0.00    +0.189 HD
BRANCH   5  12
ATOM     11  C   UNL     1      -0.883   2.535  -0.869  0.00  0.00    +0.014 C 
ATOM     12  C   UNL     1      -0.702   1.103  -1.373  0.00  0.00    +0.031 C 
ATOM     13  C   UNL     1       0.543   0.489  -0.730  0.00  0.00    +0.014 C 
ENDBRANCH   5  12
ENDBRANCH   1   7
BRANCH   3  14
ATOM     14  C   UNL     1      -6.449  -3.550  -0.940  0.00  0.00    +0.048 A 
ATOM     15  C   UNL     1      -6.055  -4.620  -1.730  0.00  0.00    +0.024 A 
ATOM     16  C   UNL     1      -6.981  -5.568  -2.122  0.00  0.00    +0.002 A 
ATOM     17  C   UNL     1      -8.303  -5.453  -1.730  0.00  0.00    +0.001 A 
ATOM     18  C   UNL     1      -8.705  -4.391  -0.943  0.00  0.00    +0.017 A 
ATOM     19  C   UNL     1      -7.780  -3.438  -0.539  0.00  0.00    +0.038 A 
BRANCH  19  20
ATOM     20  S   UNL     1      -8.288  -2.086   0.471  0.00  0.00    -0.030 S 
BRANCH  20  21
ATOM     21  C   UNL     1      -8.341  -0.720  -0.641  0.00  0.00    +0.279 C 
ATOM     22  O   UNL     1      -7.968  -0.857  -1.790  0.00  0.00    -0.262 OA
ATOM     23  N   UNL     1      -8.794   0.476  -0.217  0.00  0.00    -0.298 N 
ATOM     24  C   UNL     1      -8.838   1.612  -1.141  0.00  0.00    +0.132 C 
ATOM     25  C   UNL     1      -9.244   0.641   1.168  0.00  0.00    +0.132 C 
ENDBRANCH  20  21
ENDBRANCH  19  20
ENDBRANCH   3  14
TORSDOF 5
