REMARK  Name = ZINC12595601
REMARK  8 active torsions:
REMARK  status: ('A' for Active; 'I' for Inactive)
REMARK    1  A    between atoms: C_1  and  C_2
REMARK    2  A    between atoms: C_3  and  C_29
REMARK    3  A    between atoms: C_5  and  C_7
REMARK    4  A    between atoms: C_7  and  C_8
REMARK    5  A    between atoms: C_8  and  N_9
REMARK    6  A    between atoms: C_10  and  C_12
REMARK    7  A    between atoms: C_12  and  C_13
REMARK    8  A    between atoms: C_20  and  N_57
REMARK                            x       y       z     vdW  Elec       q    Type
REMARK                         _______ _______ _______ _____ _____    ______ ____
ROOT
ATOM      1  C   UNL     1       4.286   6.380  -0.259  0.00  0.00    +0.028 C 
ATOM      2  C   UNL     1       4.297   7.881  -0.335  0.00  0.00    +0.200 C 
ATOM      3  O   UNL     1       3.781   8.418  -1.292  0.00  0.00    -0.278 OA
ATOM      4  N   UNL     1       4.851   8.649   0.609  0.00  0.00    -0.318 N 
ATOM      5  C   UNL     1       5.465   8.104   1.816  0.00  0.00    +0.085 C 
ATOM      6  C   UNL     1       5.777   6.619   1.621  0.00  0.00    -0.058 C 
ATOM      7  H   UNL     1       4.846   9.611   0.486  0.00  0.00    +0.149 HD
ATOM      8  N   UNL     1       4.553   5.957   1.129  0.00  0.00    +0.391 N 
ATOM      9  H   UNL     1       3.761   6.232   1.721  0.00  0.00    -0.080 HD
ENDROOT
BRANCH   8  10
ATOM     10  C   UNL     1       4.713   4.487   1.188  0.00  0.00    -0.059 C 
ATOM     11  C   UNL     1       3.330   3.802   1.239  0.00  0.00    +0.020 C 
ATOM     12  C   UNL     1       3.518   2.605   2.151  0.00  0.00    -0.046 A 
ATOM     13  C   UNL     1       2.736   1.474   2.317  0.00  0.00    +0.004 A 
ATOM     14  C   UNL     1       3.110   0.496   3.218  0.00  0.00    +0.000 A 
ATOM     15  C   UNL     1       4.268   0.647   3.958  0.00  0.00    +0.000 A 
ATOM     16  C   UNL     1       5.049   1.774   3.794  0.00  0.00    +0.004 A 
ATOM     17  C   UNL     1       4.676   2.756   2.891  0.00  0.00    -0.046 A 
ATOM     18  C   UNL     1       5.346   4.064   2.531  0.00  0.00    +0.020 C 
ENDBRANCH   8  10
BRANCH   1  19
ATOM     19  C   UNL     1       2.911   5.861  -0.682  0.00  0.00    +0.089 C 
BRANCH  19  21
ATOM     20  N   UNL     1       0.595   5.915   0.185  0.00  0.00    -0.315 N 
ATOM     21  C   UNL     1       1.871   6.334   0.300  0.00  0.00    +0.212 C 
ATOM     22  O   UNL     1       2.182   7.091   1.195  0.00  0.00    -0.276 OA
ATOM     23  H   UNL     1       0.360   5.254  -0.485  0.00  0.00    +0.149 HD
BRANCH  20  24
ATOM     24  C   UNL     1      -0.437   6.459   1.070  0.00  0.00    +0.111 C 
BRANCH  24  25
ATOM     25  C   UNL     1      -1.806   5.917   0.652  0.00  0.00    +0.081 C 
BRANCH  25  30
ATOM     26  C   UNL     1      -5.270   9.195   2.160  0.00  0.00    +0.066 C 
ATOM     27  C   UNL     1      -4.471   7.929   2.326  0.00  0.00    +0.049 A 
ATOM     28  C   UNL     1      -4.660   7.123   3.402  0.00  0.00    +0.009 A 
ATOM     29  S   UNL     1      -3.480   5.827   3.053  0.00  0.00    -0.077 S 
ATOM     30  C   UNL     1      -2.868   6.477   1.563  0.00  0.00    +0.080 A 
ATOM     31  N   UNL     1      -3.571   7.577   1.431  0.00  0.00    -0.249 NA
ATOM     32  C   UNL     1      -5.607   7.276   4.564  0.00  0.00    +0.053 C 
ENDBRANCH  25  30
ENDBRANCH  24  25
ENDBRANCH  20  24
ENDBRANCH  19  21
ENDBRANCH   1  19
TORSDOF 6
