REMARK  Name = ZINC04767301
REMARK  14 active torsions:
REMARK  status: ('A' for Active; 'I' for Inactive)
REMARK    1  A    between atoms: C_1  and  C_2
REMARK    2  A    between atoms: C_7  and  C_19
REMARK    3  A    between atoms: C_9  and  C_13
REMARK    4  A    between atoms: C_10  and  C_12
REMARK    5  A    between atoms: C_13  and  O_15
REMARK    6  A    between atoms: O_15  and  C_16
REMARK    7  A    between atoms: C_16  and  C_17
REMARK    8  A    between atoms: C_16  and  C_18
REMARK    9  A    between atoms: C_21  and  O_27
REMARK   10  A    between atoms: C_22  and  O_26
REMARK   11  A    between atoms: O_27  and  C_28
REMARK   12  A    between atoms: C_31  and  C_33
REMARK   13  A    between atoms: C_33  and  O_35
REMARK   14  A    between atoms: O_35  and  C_36
REMARK                            x       y       z     vdW  Elec       q    Type
REMARK                         _______ _______ _______ _____ _____    ______ ____
ROOT
ATOM      1  C   UNL     1      -5.048   2.182   3.735  0.00  0.00    +0.009 C 
ATOM      2  C   UNL     1      -4.737   3.544   3.111  0.00  0.00    +0.013 C 
ATOM      3  C   UNL     1      -3.930   3.348   1.825  0.00  0.00    +0.055 C 
ATOM      4  C   UNL     1      -2.620   2.674   2.146  0.00  0.00    +0.016 C 
ATOM      5  C   UNL     1      -2.013   2.865   3.337  0.00  0.00    +0.025 C 
ATOM      6  C   UNL     1      -0.701   2.190   3.650  0.00  0.00    +0.092 C 
ATOM      7  C   UNL     1      -0.034   1.702   2.398  0.00  0.00    +0.065 C 
ATOM      8  C   UNL     1      -0.722   1.557   1.252  0.00  0.00    +0.016 C 
ATOM      9  N   UNL     1      -2.051   1.868   1.198  0.00  0.00    -0.321 N 
ATOM     10  C   UNL     1      -0.020   1.055   0.016  0.00  0.00    +0.061 C 
ATOM     11  C   UNL     1      -2.585   3.694   4.318  0.00  0.00    +0.176 C 
ATOM     12  O   UNL     1      -2.005   3.856   5.373  0.00  0.00    -0.291 OA
ATOM     13  C   UNL     1      -3.902   4.383   4.084  0.00  0.00    +0.171 C 
ATOM     14  H   UNL     1      -2.666   1.462   0.381  0.00  0.00    +0.152 HD
ENDROOT
BRANCH   6  15
ATOM     15  C   UNL     1      -0.955   1.019   4.564  0.00  0.00    -0.030 A 
ATOM     16  C   UNL     1      -0.384   0.991   5.823  0.00  0.00    +0.054 A 
ATOM     17  C   UNL     1      -0.620  -0.082   6.668  0.00  0.00    +0.163 A 
ATOM     18  C   UNL     1      -1.423  -1.135   6.242  0.00  0.00    +0.177 A 
ATOM     19  C   UNL     1      -1.988  -1.104   4.976  0.00  0.00    +0.086 A 
ATOM     20  C   UNL     1      -1.752  -0.027   4.140  0.00  0.00    +0.028 A 
ATOM     21 CL   UNL     1      -2.990  -2.417   4.440  0.00  0.00    -0.080 Cl
BRANCH  18  22
ATOM     22  O   UNL     1      -1.654  -2.193   7.065  0.00  0.00    -0.502 OA
ATOM     23  H   UNL     1      -2.289  -3.025   6.727  0.00  0.00    +0.292 HD
ENDBRANCH  18  22
BRANCH  17  24
ATOM     24  O   UNL     1      -0.064  -0.108   7.908  0.00  0.00    -0.491 OA
ATOM     25  C   UNL     1       0.750   1.007   8.278  0.00  0.00    +0.277 C 
ENDBRANCH  17  24
ENDBRANCH   6  15
BRANCH   7  26
ATOM     26  C   UNL     1       1.345   1.387   2.424  0.00  0.00    +0.338 C 
ATOM     27  O   UNL     1       1.921   1.091   1.394  0.00  0.00    -0.245 OA
BRANCH  26  28
ATOM     28  O   UNL     1       2.021   1.415   3.591  0.00  0.00    -0.459 OA
BRANCH  28  29
ATOM     29  C   UNL     1       3.411   1.086   3.544  0.00  0.00    +0.171 C 
ATOM     30  C   UNL     1       4.151   1.839   4.651  0.00  0.00    +0.052 C 
ATOM     31  C   UNL     1       3.586  -0.420   3.747  0.00  0.00    +0.052 C 
ENDBRANCH  28  29
ENDBRANCH  26  28
ENDBRANCH   7  26
BRANCH  13  32
ATOM     32  C   UNL     1      -4.638   4.520   5.391  0.00  0.00    +0.318 C 
ATOM     33  O   UNL     1      -5.720   4.001   5.533  0.00  0.00    -0.250 OA
BRANCH  32  34
ATOM     34  O   UNL     1      -4.092   5.219   6.399  0.00  0.00    -0.467 OA
ATOM     35  C   UNL     1      -4.858   5.309   7.630  0.00  0.00    +0.280 C 
ENDBRANCH  32  34
ENDBRANCH  13  32
TORSDOF 8
