REMARK  Name = ZINC10775306
REMARK  10 active torsions:
REMARK  status: ('A' for Active; 'I' for Inactive)
REMARK    1  A    between atoms: C_1  and  C_2
REMARK    2  A    between atoms: N_11  and  C_12
REMARK    3  A    between atoms: C_12  and  C_13
REMARK    4  A    between atoms: C_13  and  C_14
REMARK    5  A    between atoms: C_14  and  N_63
REMARK    6  A    between atoms: C_15  and  N_63
REMARK    7  A    between atoms: C_16  and  N_63
REMARK    8  A    between atoms: C_17  and  C_19
REMARK    9  A    between atoms: N_25  and  S_26
REMARK   10  A    between atoms: S_26  and  C_29
REMARK                            x       y       z     vdW  Elec       q    Type
REMARK                         _______ _______ _______ _____ _____    ______ ____
ROOT
ATOM      1  C   UNL     1       1.151   2.967  -0.149  0.00  0.00    +0.046 C 
ATOM      2  C   UNL     1       1.356   1.478  -0.251  0.00  0.00    -0.024 A 
ATOM      3  C   UNL     1       0.268   0.646  -0.303  0.00  0.00    +0.005 A 
ATOM      4  C   UNL     1       0.412  -0.731  -0.396  0.00  0.00    +0.001 A 
ATOM      5  C   UNL     1       1.682  -1.278  -0.438  0.00  0.00    +0.017 A 
ATOM      6  C   UNL     1       2.777  -0.453  -0.387  0.00  0.00    +0.041 A 
ATOM      7  C   UNL     1       2.669   0.954  -0.292  0.00  0.00    +0.083 A 
ATOM      8  N   UNL     1       3.838   1.629  -0.251  0.00  0.00    -0.224 NA
ATOM      9  C   UNL     1       5.003   1.026  -0.297  0.00  0.00    +0.168 A 
ATOM     10  S   UNL     1       4.537  -0.696  -0.411  0.00  0.00    -0.052 S 
ATOM     11  N   UNL     1       6.271   1.583  -0.264  0.00  0.00    -0.249 N 
ATOM     12  C   UNL     1       6.418   2.920  -0.175  0.00  0.00    +0.240 C 
ATOM     13  O   UNL     1       5.444   3.640  -0.209  0.00  0.00    -0.273 OA
ENDROOT
BRANCH  12  14
ATOM     14  C   UNL     1       7.794   3.518  -0.031  0.00  0.00    +0.166 C 
ATOM     15  C   UNL     1       7.909   4.222   1.325  0.00  0.00    +0.030 C 
ATOM     16  C   UNL     1       9.254   4.948   1.405  0.00  0.00    +0.003 C 
ATOM     17  C   UNL     1       9.336   6.004   0.301  0.00  0.00    +0.017 C 
ATOM     18  C   UNL     1       9.239   5.317  -1.065  0.00  0.00    +0.110 C 
ATOM     19  N   UNL     1       8.016   4.503  -1.099  0.00  0.00    -0.164 NA
BRANCH  19  20
ATOM     20  S   UNL     1       6.910   4.691  -2.317  0.00  0.00    +0.068 S 
ATOM     21  O   UNL     1       7.618   5.218  -3.431  0.00  0.00    -0.152 OA
ATOM     22  O   UNL     1       6.174   3.478  -2.388  0.00  0.00    -0.152 OA
BRANCH  20  23
ATOM     23  C   UNL     1       5.777   5.939  -1.804  0.00  0.00    +0.143 A 
ATOM     24  C   UNL     1       5.842   7.280  -1.992  0.00  0.00    +0.036 A 
ATOM     25  C   UNL     1       4.825   8.075  -1.499  0.00  0.00    +0.010 A 
ATOM     26  C   UNL     1       3.798   7.492  -0.833  0.00  0.00    +0.047 A 
ATOM     27  S   UNL     1       4.250   5.766  -0.895  0.00  0.00    -0.077 S 
ENDBRANCH  20  23
ENDBRANCH  19  20
ENDBRANCH  12  14
BRANCH  11  28
ATOM     28  C   UNL     1       7.452   0.718  -0.328  0.00  0.00    +0.114 C 
BRANCH  28  29
ATOM     29  C   UNL     1       7.943   0.630  -1.774  0.00  0.00    +0.001 C 
BRANCH  29  30
ATOM     30  C   UNL     1       9.176  -0.272  -1.840  0.00  0.00    -0.078 C 
BRANCH  30  33
ATOM     31  C   UNL     1      10.142   0.945  -3.698  0.00  0.00    -0.097 C 
ATOM     32  C   UNL     1      10.678  -1.394  -3.373  0.00  0.00    -0.097 C 
ATOM     33  N   UNL     1       9.625  -0.364  -3.246  0.00  0.00    +0.376 N 
ATOM     34  H   UNL     1       8.826  -0.629  -3.834  0.00  0.00    -0.083 HD
ENDBRANCH  30  33
ENDBRANCH  29  30
ENDBRANCH  28  29
ENDBRANCH  11  28
TORSDOF 7
