REMARK  Name = ZINC28579310
REMARK  5 active torsions:
REMARK  status: ('A' for Active; 'I' for Inactive)
REMARK    1  A    between atoms: C_1  and  C_2
REMARK    2  A    between atoms: C_4  and  C_22
REMARK    3  A    between atoms: C_7  and  N_11
REMARK    4  A    between atoms: C_8  and  C_9
REMARK    5  A    between atoms: N_14  and  C_15
REMARK                            x       y       z     vdW  Elec       q    Type
REMARK                         _______ _______ _______ _____ _____    ______ ____
ROOT
ATOM      1  N   UNL     1       2.401  -1.510  -0.034  0.00  0.00    -0.263 N 
ATOM      2  C   UNL     1       1.681  -2.650  -0.025  0.00  0.00    +0.308 C 
ATOM      3  O   UNL     1       0.467  -2.601  -0.005  0.00  0.00    -0.252 OA
ATOM      4  N   UNL     1       2.308  -3.843  -0.039  0.00  0.00    -0.269 N 
ATOM      5  H   UNL     1       3.500  -1.554  -0.052  0.00  0.00    +0.157 HD
ATOM      6  H   UNL     1       3.403  -3.888  -0.134  0.00  0.00    +0.156 HD
ENDROOT
BRANCH   1  11
ATOM      7  C   UNL     1       1.787   2.989  -1.254  0.00  0.00    +0.014 C 
ATOM      8  C   UNL     1       1.484   2.154  -0.008  0.00  0.00    +0.042 C 
ATOM      9  C   UNL     1      -0.022   1.827   0.016  0.00  0.00    +0.057 C 
ATOM     10  S   UNL     1       0.003  -0.004   0.010  0.00  0.00    -0.105 S 
ATOM     11  C   UNL     1       1.759  -0.288  -0.020  0.00  0.00    +0.083 C 
ATOM     12  C   UNL     1       2.339   0.936  -0.026  0.00  0.00    +0.061 C 
ATOM     13  C   UNL     1      -0.722   2.371  -1.231  0.00  0.00    +0.020 C 
BRANCH  12  14
ATOM     14  C   UNL     1       3.766   1.058  -0.049  0.00  0.00    +0.097 C 
ATOM     15  N   UNL     1       4.897   1.155  -0.068  0.00  0.00    -0.191 NA
ENDBRANCH  12  14
ENDBRANCH   1  11
BRANCH   4  16
ATOM     16  C   UNL     1       1.565  -5.025   0.068  0.00  0.00    +0.035 A 
ATOM     17  C   UNL     1       2.089  -6.116   0.749  0.00  0.00    +0.025 A 
ATOM     18  C   UNL     1       1.353  -7.279   0.856  0.00  0.00    +0.022 A 
ATOM     19  C   UNL     1       0.098  -7.362   0.278  0.00  0.00    +0.041 A 
ATOM     20  C   UNL     1      -0.423  -6.278  -0.406  0.00  0.00    +0.022 A 
ATOM     21  C   UNL     1       0.307  -5.110  -0.512  0.00  0.00    +0.025 A 
ATOM     22 CL   UNL     1      -0.822  -8.828   0.409  0.00  0.00    -0.084 Cl
ENDBRANCH   4  16
TORSDOF 3
