REMARK  Name = ZINC45918765
REMARK  5 active torsions:
REMARK  status: ('A' for Active; 'I' for Inactive)
REMARK    1  A    between atoms: C_1  and  C_2
REMARK    2  A    between atoms: C_3  and  C_23
REMARK    3  A    between atoms: C_7  and  C_16
REMARK    4  A    between atoms: C_23  and  O_25
REMARK    5  A    between atoms: O_25  and  C_26
REMARK                            x       y       z     vdW  Elec       q    Type
REMARK                         _______ _______ _______ _____ _____    ______ ____
ROOT
ATOM      1  C   UNL     1      -0.018   1.503   0.010  0.00  0.00    +0.061 C 
ATOM      2  C   UNL     1       0.002  -0.004   0.002  0.00  0.00    +0.014 C 
ATOM      3  C   UNL     1      -1.165  -0.670   0.004  0.00  0.00    +0.061 C 
ATOM      4  C   UNL     1      -1.190  -2.183   0.046  0.00  0.00    +0.067 C 
ATOM      5  C   UNL     1       0.056  -2.702  -0.690  0.00  0.00    +0.087 C 
ATOM      6  C   UNL     1       1.276  -2.105   0.025  0.00  0.00    +0.203 C 
ATOM      7  N   UNL     1       1.204  -0.648  -0.013  0.00  0.00    -0.306 N 
ATOM      8  O   UNL     1       1.335  -2.582   1.359  0.00  0.00    -0.464 OA
ATOM      9  C   UNL     1       0.192  -2.741   2.073  0.00  0.00    +0.128 A 
ATOM     10  C   UNL     1      -1.082  -2.574   1.506  0.00  0.00    +0.002 A 
ATOM     11  C   UNL     1      -2.236  -2.760   2.242  0.00  0.00    +0.008 A 
ATOM     12  C   UNL     1      -2.157  -3.106   3.578  0.00  0.00    +0.001 A 
ATOM     13  C   UNL     1      -0.921  -3.264   4.177  0.00  0.00    +0.004 A 
ATOM     14  C   UNL     1       0.289  -3.085   3.418  0.00  0.00    +0.046 A 
ATOM     15  H   UNL     1       2.023  -0.131  -0.073  0.00  0.00    +0.150 HD
ENDROOT
BRANCH   6  16
ATOM     16  C   UNL     1       2.524  -2.562  -0.686  0.00  0.00    +0.014 A 
ATOM     17  C   UNL     1       3.087  -3.786  -0.375  0.00  0.00    +0.010 A 
ATOM     18  C   UNL     1       4.231  -4.206  -1.027  0.00  0.00    +0.020 A 
ATOM     19  C   UNL     1       4.812  -3.401  -1.992  0.00  0.00    +0.041 A 
ATOM     20  C   UNL     1       4.248  -2.177  -2.303  0.00  0.00    +0.020 A 
ATOM     21  C   UNL     1       3.101  -1.761  -1.654  0.00  0.00    +0.010 A 
ATOM     22 CL   UNL     1       6.250  -3.928  -2.811  0.00  0.00    -0.084 Cl
ENDBRANCH   6  16
BRANCH   3  23
ATOM     23  C   UNL     1      -2.380   0.048  -0.033  0.00  0.00    +0.337 C 
ATOM     24  O   UNL     1      -2.367   1.265  -0.067  0.00  0.00    -0.245 OA
BRANCH  23  25
ATOM     25  O   UNL     1      -3.556  -0.614  -0.032  0.00  0.00    -0.465 OA
ATOM     26  C   UNL     1      -4.746   0.176  -0.070  0.00  0.00    +0.280 C 
ENDBRANCH  23  25
ENDBRANCH   3  23
TORSDOF 3
