REMARK  Name = ZINC36818601
REMARK  11 active torsions:
REMARK  status: ('A' for Active; 'I' for Inactive)
REMARK    1  A    between atoms: C_1  and  C_2
REMARK    2  A    between atoms: C_2  and  C_3
REMARK    3  A    between atoms: C_3  and  C_5
REMARK    4  A    between atoms: C_3  and  C_6
REMARK    5  A    between atoms: C_11  and  N_12
REMARK    6  A    between atoms: C_13  and  C_15
REMARK    7  A    between atoms: C_15  and  C_17
REMARK    8  A    between atoms: C_15  and  S_18
REMARK    9  A    between atoms: S_18  and  C_19
REMARK   10  A    between atoms: C_22  and  S_24
REMARK   11  A    between atoms: S_24  and  C_25
REMARK                            x       y       z     vdW  Elec       q    Type
REMARK                         _______ _______ _______ _____ _____    ______ ____
ROOT
ATOM      1  N   UNL     1      -2.479  -1.881   2.290  0.00  0.00    -0.284 N 
ATOM      2  C   UNL     1      -3.408  -2.412   3.110  0.00  0.00    +0.230 C 
ATOM      3  O   UNL     1      -3.706  -3.583   3.012  0.00  0.00    -0.274 OA
ATOM      4  H   UNL     1      -2.199  -0.960   2.406  0.00  0.00    +0.155 HD
ENDROOT
BRANCH   1  10
ATOM      5  C   UNL     1      -1.408  -2.052   0.132  0.00  0.00    -0.023 A 
ATOM      6  C   UNL     1      -0.851  -2.823  -0.869  0.00  0.00    +0.006 A 
ATOM      7  C   UNL     1      -0.806  -4.199  -0.740  0.00  0.00    +0.000 A 
ATOM      8  C   UNL     1      -1.318  -4.808   0.391  0.00  0.00    +0.002 A 
ATOM      9  C   UNL     1      -1.877  -4.043   1.396  0.00  0.00    +0.023 A 
ATOM     10  C   UNL     1      -1.919  -2.660   1.272  0.00  0.00    +0.037 A 
BRANCH   5  11
ATOM     11  C   UNL     1      -1.457  -0.552  -0.009  0.00  0.00    +0.017 C 
ATOM     12  C   UNL     1      -2.165  -0.186  -1.315  0.00  0.00    +0.012 C 
BRANCH  11  14
ATOM     13  C   UNL     1      -0.082   1.534  -0.045  0.00  0.00    +0.004 C 
ATOM     14  C   UNL     1      -0.032   0.004  -0.027  0.00  0.00    +0.004 C 
ENDBRANCH  11  14
ENDBRANCH   5  11
ENDBRANCH   1  10
BRANCH   2  15
ATOM     15  C   UNL     1      -4.076  -1.549   4.150  0.00  0.00    +0.136 C 
ATOM     16  C   UNL     1      -5.263  -0.818   3.519  0.00  0.00    +0.029 C 
BRANCH  15  17
ATOM     17  S   UNL     1      -4.664  -2.591   5.513  0.00  0.00    -0.084 S 
BRANCH  17  18
ATOM     18  C   UNL     1      -5.277  -1.439   6.697  0.00  0.00    +0.160 A 
ATOM     19  N   UNL     1      -5.322  -0.122   6.636  0.00  0.00    -0.134 NA
ATOM     20  N   UNL     1      -5.849   0.595   7.685  0.00  0.00    -0.134 NA
ATOM     21  C   UNL     1      -6.309  -0.039   8.747  0.00  0.00    +0.159 A 
ATOM     22  S   UNL     1      -6.013  -1.742   8.296  0.00  0.00    -0.033 S 
BRANCH  21  23
ATOM     23  S   UNL     1      -7.028   0.619  10.215  0.00  0.00    -0.100 S 
ATOM     24  C   UNL     1      -7.005   2.413   9.950  0.00  0.00    +0.092 C 
ENDBRANCH  21  23
ENDBRANCH  17  18
ENDBRANCH  15  17
ENDBRANCH   2  15
TORSDOF 7
