REMARK  Name = ZINC14945542
REMARK  6 active torsions:
REMARK  status: ('A' for Active; 'I' for Inactive)
REMARK    1  A    between atoms: C_4  and  C_8
REMARK    2  A    between atoms: C_8  and  C_12
REMARK    3  A    between atoms: C_9  and  C_10
REMARK    4  A    between atoms: C_17  and  N_31
REMARK    5  A    between atoms: C_18  and  C_21
REMARK    6  A    between atoms: C_21  and  C_23
REMARK                            x       y       z     vdW  Elec       q    Type
REMARK                         _______ _______ _______ _____ _____    ______ ____
ROOT
ATOM      1  C   UNL     1       3.954  -0.778  -0.623  0.00  0.00    +0.000 A 
ATOM      2  C   UNL     1       3.112  -1.911  -0.535  0.00  0.00    +0.013 A 
ATOM      3  C   UNL     1       1.787  -1.741  -0.287  0.00  0.00    +0.047 A 
ATOM      4  C   UNL     1       1.267  -0.442  -0.122  0.00  0.00    +0.140 A 
ATOM      5  N   UNL     1       0.029  -0.016   0.123  0.00  0.00    -0.213 NA
ATOM      6  C   UNL     1       0.013   1.310   0.200  0.00  0.00    +0.146 A 
ATOM      7  C   UNL     1       1.317   1.770  -0.009  0.00  0.00    +0.135 A 
ATOM      8  N   UNL     1       2.097   0.640  -0.211  0.00  0.00    -0.294 N 
ATOM      9  C   UNL     1       3.421   0.482  -0.457  0.00  0.00    +0.102 A 
ENDROOT
BRANCH   6  10
ATOM     10  N   UNL     1      -1.102   2.100   0.438  0.00  0.00    -0.341 N 
ATOM     11  H   UNL     1      -1.981   1.694   0.490  0.00  0.00    +0.144 HD
ATOM     12  H   UNL     1      -1.002   3.058   0.552  0.00  0.00    +0.144 HD
ENDBRANCH   6  10
BRANCH   1  13
ATOM     13  C   UNL     1       5.398  -0.945  -0.891  0.00  0.00    +0.006 C 
ATOM     14  C   UNL     1       6.313  -0.584   0.054  0.00  0.00    +0.098 C 
BRANCH  13  18
ATOM     15  C   UNL     1       6.697  -2.547  -4.607  0.00  0.00    +0.006 A 
ATOM     16  C   UNL     1       6.445  -3.394  -3.543  0.00  0.00    +0.039 A 
ATOM     17  C   UNL     1       6.022  -2.881  -2.331  0.00  0.00    +0.134 A 
ATOM     18  C   UNL     1       5.849  -1.501  -2.182  0.00  0.00    +0.054 A 
ATOM     19  C   UNL     1       6.101  -0.652  -3.265  0.00  0.00    +0.134 A 
ATOM     20  C   UNL     1       6.529  -1.181  -4.468  0.00  0.00    +0.039 A 
ATOM     21  F   UNL     1       5.932   0.682  -3.133  0.00  0.00    -0.205 F 
ATOM     22  F   UNL     1       5.777  -3.711  -1.293  0.00  0.00    -0.205 F 
ENDBRANCH  13  18
BRANCH  14  23
ATOM     23  C   UNL     1       5.875  -0.045   1.306  0.00  0.00    +0.092 C 
ATOM     24  N   UNL     1       5.528   0.384   2.299  0.00  0.00    -0.191 NA
ENDBRANCH  14  23
ENDBRANCH   1  13
BRANCH   7  25
ATOM     25  C   UNL     1       1.751   3.110  -0.012  0.00  0.00    +0.219 C 
ATOM     26  O   UNL     1       2.037   3.661   1.038  0.00  0.00    -0.285 OA
BRANCH  25  27
ATOM     27  C   UNL     1       1.860   3.848  -1.288  0.00  0.00    +0.094 A 
ATOM     28  C   UNL     1       1.432   3.257  -2.481  0.00  0.00    +0.137 A 
ATOM     29  C   UNL     1       1.532   3.956  -3.669  0.00  0.00    +0.039 A 
ATOM     30  C   UNL     1       2.063   5.233  -3.681  0.00  0.00    +0.006 A 
ATOM     31  C   UNL     1       2.494   5.823  -2.507  0.00  0.00    +0.039 A 
ATOM     32  C   UNL     1       2.396   5.139  -1.309  0.00  0.00    +0.137 A 
ATOM     33  F   UNL     1       2.816   5.717  -0.163  0.00  0.00    -0.205 F 
ATOM     34  F   UNL     1       0.919   2.007  -2.471  0.00  0.00    -0.205 F 
ENDBRANCH  25  27
ENDBRANCH   7  25
TORSDOF 6
