REMARK  Name = ZINC50101979
REMARK  5 active torsions:
REMARK  status: ('A' for Active; 'I' for Inactive)
REMARK    1  A    between atoms: C_4  and  N_19
REMARK    2  A    between atoms: C_5  and  C_7
REMARK    3  A    between atoms: C_7  and  S_8
REMARK    4  A    between atoms: S_8  and  N_11
REMARK    5  A    between atoms: N_11  and  C_12
REMARK                            x       y       z     vdW  Elec       q    Type
REMARK                         _______ _______ _______ _____ _____    ______ ____
ROOT
ATOM      1  S   UNL     1       1.366  -2.861   1.545  0.00  0.00    +0.067 S 
ATOM      2  O   UNL     1       2.502  -2.471   2.303  0.00  0.00    -0.153 OA
ATOM      3  O   UNL     1       0.055  -2.694   2.068  0.00  0.00    -0.153 OA
ENDROOT
BRANCH   1   4
ATOM      4  C   UNL     1       1.464  -2.170  -0.129  0.00  0.00    +0.228 C 
BRANCH   4   9
ATOM      5  C   UNL     1      -0.067   1.276   0.052  0.00  0.00    +0.000 A 
ATOM      6  C   UNL     1       1.059   2.078   0.054  0.00  0.00    +0.002 A 
ATOM      7  C   UNL     1       2.315   1.506  -0.003  0.00  0.00    +0.033 A 
ATOM      8  C   UNL     1       2.446   0.131  -0.063  0.00  0.00    +0.131 A 
ATOM      9  C   UNL     1       1.321  -0.672  -0.064  0.00  0.00    +0.006 A 
ATOM     10  C   UNL     1       0.064  -0.099  -0.008  0.00  0.00    +0.007 A 
BRANCH   8  11
ATOM     11  N   UNL     1       3.792  -0.483  -0.125  0.00  0.00    +0.057 N 
ATOM     12  O   UNL     1       4.015  -1.514   0.465  0.00  0.00    -0.126 OA
ATOM     13  O   UNL     1       4.669   0.048  -0.767  0.00  0.00    -0.126 OA
ENDBRANCH   8  11
ENDBRANCH   4   9
ENDBRANCH   1   4
BRANCH   1  14
ATOM     14  N   UNL     1       1.534  -4.496   1.342  0.00  0.00    -0.101 NA
BRANCH  14  15
ATOM     15  C   UNL     1       1.505  -5.344   2.452  0.00  0.00    +0.088 A 
ATOM     16  C   UNL     1       1.328  -4.819   3.725  0.00  0.00    +0.028 A 
ATOM     17  C   UNL     1       1.299  -5.661   4.820  0.00  0.00    +0.002 A 
ATOM     18  C   UNL     1       1.445  -7.025   4.649  0.00  0.00    +0.001 A 
ATOM     19  C   UNL     1       1.621  -7.552   3.383  0.00  0.00    +0.017 A 
ATOM     20  C   UNL     1       1.646  -6.716   2.283  0.00  0.00    +0.042 A 
ATOM     21 BR   UNL     1       1.879  -7.438   0.551  0.00  0.00    -0.048 Br
ENDBRANCH  14  15
ENDBRANCH   1  14
TORSDOF 5
