REMARK  Name = ZINC22320954
REMARK  8 active torsions:
REMARK  status: ('A' for Active; 'I' for Inactive)
REMARK    1  A    between atoms: C_1  and  C_2
REMARK    2  A    between atoms: C_2  and  C_4
REMARK    3  A    between atoms: C_2  and  N_11
REMARK    4  A    between atoms: C_12  and  C_14
REMARK    5  A    between atoms: C_14  and  N_15
REMARK    6  A    between atoms: C_18  and  C_22
REMARK    7  A    between atoms: C_18  and  C_23
REMARK    8  A    between atoms: C_23  and  C_24
REMARK                            x       y       z     vdW  Elec       q    Type
REMARK                         _______ _______ _______ _____ _____    ______ ____
ROOT
ATOM      1  N   UNL     1       1.069  -2.183  -0.020  0.00  0.00    -0.215 N 
ATOM      2  C   UNL     1       0.930  -2.924  -1.137  0.00  0.00    +0.247 C 
ATOM      3  O   UNL     1       0.984  -2.535  -2.285  0.00  0.00    -0.273 OA
ATOM      4  C   UNL     1       0.692  -4.343  -0.662  0.00  0.00    +0.114 C 
ATOM      5  N   UNL     1       0.728  -4.227   0.806  0.00  0.00    -0.285 N 
ATOM      6  C   UNL     1       0.958  -2.931   1.084  0.00  0.00    +0.310 C 
ATOM      7  O   UNL     1       1.051  -2.488   2.212  0.00  0.00    -0.252 OA
ATOM      8  C   UNL     1       1.803  -5.271  -1.159  0.00  0.00    +0.042 C 
ATOM      9  H   UNL     1       0.578  -5.119   1.432  0.00  0.00    +0.151 HD
ENDROOT
BRANCH   1  10
ATOM     10  C   UNL     1       1.317  -0.740  -0.015  0.00  0.00    +0.213 C 
BRANCH  10  12
ATOM     11  N   UNL     1      -0.016   1.344   0.009  0.00  0.00    -0.307 N 
ATOM     12  C   UNL     1       0.002  -0.004   0.002  0.00  0.00    +0.231 C 
ATOM     13  O   UNL     1      -1.040  -0.625   0.009  0.00  0.00    -0.274 OA
ATOM     14  H   UNL     1       0.929   1.907   0.008  0.00  0.00    +0.149 HD
BRANCH  11  16
ATOM     15  C   UNL     1      -1.808   2.206  -1.414  0.00  0.00    +0.033 C 
ATOM     16  C   UNL     1      -1.295   2.059   0.019  0.00  0.00    +0.100 C 
BRANCH  16  17
ATOM     17  C   UNL     1      -1.102   3.425   0.626  0.00  0.00    -0.026 A 
ATOM     18  C   UNL     1       0.036   4.155   0.337  0.00  0.00    +0.005 A 
ATOM     19  C   UNL     1       0.211   5.410   0.889  0.00  0.00    +0.002 A 
ATOM     20  C   UNL     1      -0.745   5.931   1.740  0.00  0.00    +0.020 A 
ATOM     21  C   UNL     1      -1.881   5.198   2.035  0.00  0.00    +0.041 A 
ATOM     22  C   UNL     1      -2.059   3.944   1.477  0.00  0.00    +0.025 A 
ATOM     23 CL   UNL     1      -3.083   5.851   3.104  0.00  0.00    -0.084 Cl
ENDBRANCH  16  17
ENDBRANCH  11  16
ENDBRANCH  10  12
ENDBRANCH   1  10
BRANCH   4  24
ATOM     24  C   UNL     1      -0.675  -4.845  -1.129  0.00  0.00    +0.070 C 
BRANCH  24  25
ATOM     25  C   UNL     1      -0.938  -6.208  -0.542  0.00  0.00    -0.041 A 
ATOM     26  C   UNL     1      -0.550  -7.342  -1.231  0.00  0.00    +0.007 A 
ATOM     27  C   UNL     1      -0.783  -8.594  -0.693  0.00  0.00    +0.050 A 
ATOM     28  C   UNL     1      -1.418  -8.716   0.532  0.00  0.00    +0.166 A 
ATOM     29  C   UNL     1      -1.814  -7.573   1.223  0.00  0.00    +0.166 A 
ATOM     30  C   UNL     1      -1.571  -6.322   0.682  0.00  0.00    +0.053 A 
ATOM     31  O   UNL     1      -2.410  -7.955   2.391  0.00  0.00    -0.453 OA
ATOM     32  C   UNL     1      -2.741  -9.345   2.217  0.00  0.00    +0.466 C 
ATOM     33  O   UNL     1      -1.766  -9.813   1.266  0.00  0.00    -0.453 OA
ENDBRANCH  24  25
ENDBRANCH   4  24
TORSDOF 6
