REMARK  Name = ZINC21327151
REMARK  6 active torsions:
REMARK  status: ('A' for Active; 'I' for Inactive)
REMARK    1  A    between atoms: C_6  and  C_7
REMARK    2  A    between atoms: C_7  and  C_9
REMARK    3  A    between atoms: C_9  and  S_10
REMARK    4  A    between atoms: S_10  and  C_11
REMARK    5  A    between atoms: N_15  and  N_16
REMARK    6  A    between atoms: N_17  and  N_18
REMARK                            x       y       z     vdW  Elec       q    Type
REMARK                         _______ _______ _______ _____ _____    ______ ____
ROOT
ATOM      1  C   UNL     1       3.724   6.886   0.434  0.00  0.00    +0.210 A 
ATOM      2  N   UNL     1       4.870   6.265   0.579  0.00  0.00    -0.119 NA
ATOM      3  N   UNL     1       5.896   7.205   0.412  0.00  0.00    -0.109 NA
ATOM      4  C   UNL     1       5.343   8.370   0.179  0.00  0.00    +0.254 A 
ATOM      5  N   UNL     1       3.987   8.204   0.187  0.00  0.00    -0.211 N 
ATOM      6  N   UNL     1       6.018   9.565  -0.038  0.00  0.00    -0.204 N 
ATOM      7  H   UNL     1       5.452  10.490  -0.225  0.00  0.00    +0.177 HD
ENDROOT
BRANCH   6   8
ATOM      8  N   UNL     1       7.418   9.592  -0.019  0.00  0.00    -0.189 NA
ATOM      9  C   UNL     1       8.039  10.707  -0.115  0.00  0.00    +0.037 C 
ATOM     10  C   UNL     1       7.283  12.018  -0.110  0.00  0.00    +0.052 C 
ATOM     11  C   UNL     1       7.918  12.937   0.945  0.00  0.00    +0.006 C 
ATOM     12  C   UNL     1       9.415  13.075   0.661  0.00  0.00    +0.001 C 
ATOM     13  C   UNL     1      10.098  11.714   0.810  0.00  0.00    +0.006 C 
ATOM     14  C   UNL     1       9.545  10.749  -0.244  0.00  0.00    +0.052 C 
ENDBRANCH   6   8
BRANCH   5  15
ATOM     15  N   UNL     1       3.056   9.183  -0.018  0.00  0.00    -0.294 N 
ATOM     16  H   UNL     1       3.379  10.217  -0.210  0.00  0.00    +0.163 HD
ATOM     17  H   UNL     1       1.984   8.938   0.010  0.00  0.00    +0.163 HD
ENDBRANCH   5  15
BRANCH   1  18
ATOM     18  S   UNL     1       2.127   6.152   0.547  0.00  0.00    -0.076 S 
BRANCH  18  19
ATOM     19  C   UNL     1       2.471   4.404   0.888  0.00  0.00    +0.157 C 
BRANCH  19  20
ATOM     20  C   UNL     1       1.171   3.650   1.009  0.00  0.00    +0.173 C 
ATOM     21  O   UNL     1       0.117   4.235   0.879  0.00  0.00    -0.291 OA
BRANCH  20  27
ATOM     22  C   UNL     1      -0.023   1.503   1.399  0.00  0.00    +0.012 A 
ATOM     23  C   UNL     1      -0.005   0.149   1.659  0.00  0.00    +0.016 A 
ATOM     24  C   UNL     1       1.201  -0.515   1.807  0.00  0.00    +0.018 A 
ATOM     25  C   UNL     1       2.398   0.174   1.696  0.00  0.00    +0.016 A 
ATOM     26  C   UNL     1       2.396   1.528   1.437  0.00  0.00    +0.012 A 
ATOM     27  C   UNL     1       1.182   2.205   1.286  0.00  0.00    +0.018 A 
ATOM     28 BR   UNL     1       1.214  -2.372   2.164  0.00  0.00    -0.050 Br
ENDBRANCH  20  27
ENDBRANCH  19  20
ENDBRANCH  18  19
ENDBRANCH   1  18
TORSDOF 6
