REMARK  Name = ZINC39674647
REMARK  7 active torsions:
REMARK  status: ('A' for Active; 'I' for Inactive)
REMARK    1  A    between atoms: C_1  and  C_2
REMARK    2  A    between atoms: C_4  and  C_14
REMARK    3  A    between atoms: C_7  and  C_12
REMARK    4  A    between atoms: C_14  and  C_15
REMARK    5  A    between atoms: C_15  and  N_16
REMARK    6  A    between atoms: C_17  and  C_19
REMARK    7  A    between atoms: C_30  and  C_32
REMARK                            x       y       z     vdW  Elec       q    Type
REMARK                         _______ _______ _______ _____ _____    ______ ____
ROOT
ATOM      1  C   UNL     1       1.020  -0.795  -7.912  0.00  0.00    +0.100 C 
ATOM      2  C   UNL     1       1.161   0.744  -7.928  0.00  0.00    +0.121 C 
ATOM      3  N   UNL     1       2.529   0.989  -8.440  0.00  0.00    -0.296 N 
ATOM      4  C   UNL     1       2.712  -0.025  -9.506  0.00  0.00    +0.115 C 
ATOM      5  C   UNL     1       2.037  -1.295  -8.952  0.00  0.00    -0.004 C 
ATOM      6  C   UNL     1       3.074  -2.195  -8.286  0.00  0.00    -0.010 C 
ATOM      7  C   UNL     1       4.040  -2.725  -9.349  0.00  0.00    -0.082 C 
ATOM      8  N   UNL     1       3.291  -3.476 -10.363  0.00  0.00    +0.379 N 
ATOM      9  C   UNL     1       2.360  -2.582 -11.062  0.00  0.00    -0.082 C 
ATOM     10  C   UNL     1       1.323  -2.046 -10.072  0.00  0.00    -0.010 C 
ATOM     11  C   UNL     1       3.410   1.923  -8.029  0.00  0.00    +0.247 C 
ATOM     12  O   UNL     1       3.161   2.606  -7.054  0.00  0.00    -0.270 OA
ATOM     13  H   UNL     1       3.935  -3.876 -11.028  0.00  0.00    -0.086 HD
ATOM     14  H   UNL     1       2.771  -4.217  -9.915  0.00  0.00    -0.086 HD
ENDROOT
BRANCH  11  15
ATOM     15  C   UNL     1       4.677   2.118  -8.764  0.00  0.00    +0.037 A 
ATOM     16  C   UNL     1       4.781   1.693 -10.101  0.00  0.00    +0.013 A 
ATOM     17  C   UNL     1       5.934   1.861 -10.796  0.00  0.00    +0.009 A 
ATOM     18  C   UNL     1       7.046   2.466 -10.181  0.00  0.00    -0.018 A 
ATOM     19  C   UNL     1       8.250   2.650 -10.881  0.00  0.00    +0.008 A 
ATOM     20  C   UNL     1       9.308   3.239 -10.260  0.00  0.00    +0.001 A 
ATOM     21  C   UNL     1       9.218   3.664  -8.935  0.00  0.00    +0.001 A 
ATOM     22  C   UNL     1       8.069   3.502  -8.225  0.00  0.00    +0.008 A 
ATOM     23  C   UNL     1       6.954   2.898  -8.834  0.00  0.00    -0.017 A 
ATOM     24  C   UNL     1       5.751   2.722  -8.133  0.00  0.00    +0.021 A 
ENDBRANCH  11  15
BRANCH   1  26
ATOM     25  N   UNL     1       0.856  -2.528  -6.155  0.00  0.00    -0.315 N 
ATOM     26  C   UNL     1       1.354  -1.339  -6.547  0.00  0.00    +0.218 C 
ATOM     27  O   UNL     1       2.071  -0.706  -5.801  0.00  0.00    -0.275 OA
ATOM     28  H   UNL     1       0.282  -3.034  -6.752  0.00  0.00    +0.149 HD
BRANCH  25  29
ATOM     29  C   UNL     1       1.181  -3.057  -4.828  0.00  0.00    +0.108 C 
BRANCH  29  30
ATOM     30  C   UNL     1       0.493  -4.410  -4.636  0.00  0.00    +0.052 C 
BRANCH  30  33
ATOM     31  C   UNL     1      -1.168  -6.278  -2.573  0.00  0.00    +0.035 C 
ATOM     32  C   UNL     1       0.359  -6.261  -2.673  0.00  0.00    +0.103 C 
ATOM     33  C   UNL     1       0.828  -4.954  -3.271  0.00  0.00    -0.037 C 
ATOM     34  C   UNL     1       1.610  -4.369  -2.328  0.00  0.00    +0.000 A 
ATOM     35  C   UNL     1       2.321  -3.140  -2.317  0.00  0.00    +0.028 A 
ATOM     36  C   UNL     1       3.054  -2.777  -1.211  0.00  0.00    +0.052 A 
ATOM     37  C   UNL     1       3.120  -3.633  -0.032  0.00  0.00    +0.021 A 
ATOM     38  C   UNL     1       2.464  -4.811   0.015  0.00  0.00    +0.027 A 
ATOM     39  C   UNL     1       1.669  -5.246  -1.138  0.00  0.00    +0.043 A 
ATOM     40  N   UNL     1       0.954  -6.330  -1.335  0.00  0.00    -0.378 N 
ATOM     41  H   UNL     1       0.838  -7.055  -0.701  0.00  0.00    +0.160 HD
BRANCH  36  42
ATOM     42  C   UNL     1       3.766  -1.535  -1.217  0.00  0.00    +0.099 C 
ATOM     43  N   UNL     1       4.330  -0.549  -1.222  0.00  0.00    -0.191 NA
ENDBRANCH  36  42
ENDBRANCH  30  33
ENDBRANCH  29  30
ENDBRANCH  25  29
ENDBRANCH   1  26
TORSDOF 6
