REMARK  Name = ZINC39674376
REMARK  9 active torsions:
REMARK  status: ('A' for Active; 'I' for Inactive)
REMARK    1  A    between atoms: C_1  and  C_2
REMARK    2  A    between atoms: C_4  and  C_9
REMARK    3  A    between atoms: C_5  and  C_8
REMARK    4  A    between atoms: C_9  and  C_11
REMARK    5  A    between atoms: C_9  and  N_12
REMARK    6  A    between atoms: C_13  and  C_15
REMARK    7  A    between atoms: C_26  and  C_28
REMARK    8  A    between atoms: C_28  and  O_29
REMARK    9  A    between atoms: O_29  and  C_30
REMARK                            x       y       z     vdW  Elec       q    Type
REMARK                         _______ _______ _______ _____ _____    ______ ____
ROOT
ATOM      1  C   UNL     1      -3.950   3.012  -1.774  0.00  0.00    +0.100 C 
ATOM      2  C   UNL     1      -3.664   3.864  -0.518  0.00  0.00    +0.121 C 
ATOM      3  N   UNL     1      -4.744   4.879  -0.499  0.00  0.00    -0.297 N 
ATOM      4  C   UNL     1      -5.954   4.137  -0.928  0.00  0.00    +0.115 C 
ATOM      5  C   UNL     1      -5.454   3.193  -2.040  0.00  0.00    -0.004 C 
ATOM      6  C   UNL     1      -6.172   1.850  -1.952  0.00  0.00    -0.010 C 
ATOM      7  C   UNL     1      -7.655   2.046  -2.277  0.00  0.00    -0.082 C 
ATOM      8  N   UNL     1      -7.792   2.610  -3.625  0.00  0.00    +0.379 N 
ATOM      9  C   UNL     1      -7.180   3.943  -3.676  0.00  0.00    -0.082 C 
ATOM     10  C   UNL     1      -5.676   3.826  -3.410  0.00  0.00    -0.010 C 
ATOM     11  C   UNL     1      -4.647   6.182  -0.168  0.00  0.00    +0.253 C 
ATOM     12  O   UNL     1      -5.631   6.891  -0.202  0.00  0.00    -0.272 OA
ATOM     13  H   UNL     1      -7.333   2.005  -4.289  0.00  0.00    -0.086 HD
ATOM     14  H   UNL     1      -8.771   2.681  -3.861  0.00  0.00    -0.086 HD
ENDROOT
BRANCH   1  16
ATOM     15  N   UNL     1      -3.241   0.762  -2.518  0.00  0.00    -0.309 N 
ATOM     16  C   UNL     1      -3.635   1.562  -1.508  0.00  0.00    +0.219 C 
ATOM     17  O   UNL     1      -3.736   1.116  -0.385  0.00  0.00    -0.275 OA
ATOM     18  H   UNL     1      -3.161   1.119  -3.416  0.00  0.00    +0.149 HD
BRANCH  15  19
ATOM     19  C   UNL     1      -2.935  -0.647  -2.259  0.00  0.00    +0.100 C 
ATOM     20  C   UNL     1      -4.228  -1.464  -2.291  0.00  0.00    +0.033 C 
BRANCH  19  23
ATOM     21  C   UNL     1      -2.363   0.236  -5.368  0.00  0.00    +0.039 C 
ATOM     22  C   UNL     1      -2.196  -1.183  -4.821  0.00  0.00    +0.154 C 
ATOM     23  C   UNL     1      -1.991  -1.159  -3.317  0.00  0.00    -0.001 C 
ATOM     24  C   UNL     1      -0.781  -1.695  -3.149  0.00  0.00    +0.063 C 
ATOM     25  N   UNL     1      -0.237  -2.035  -4.338  0.00  0.00    -0.159 NA
ATOM     26  N   UNL     1      -0.950  -1.790  -5.319  0.00  0.00    -0.180 NA
ATOM     27  C   UNL     1      -0.111  -1.894  -1.813  0.00  0.00    +0.067 C 
ENDBRANCH  19  23
ENDBRANCH  15  19
ENDBRANCH   1  16
BRANCH  11  28
ATOM     28  C   UNL     1      -3.317   6.758   0.245  0.00  0.00    +0.324 C 
BRANCH  28  29
ATOM     29  O   UNL     1      -3.472   8.147   0.545  0.00  0.00    -0.483 OA
BRANCH  29  30
ATOM     30  C   UNL     1      -2.360   8.821   0.936  0.00  0.00    +0.123 A 
ATOM     31  C   UNL     1      -1.142   8.161   1.024  0.00  0.00    +0.046 A 
ATOM     32  C   UNL     1      -0.012   8.849   1.422  0.00  0.00    +0.005 A 
ATOM     33  C   UNL     1      -0.092  10.194   1.732  0.00  0.00    +0.020 A 
ATOM     34  C   UNL     1      -1.305  10.854   1.646  0.00  0.00    +0.044 A 
ATOM     35  C   UNL     1      -2.438  10.172   1.243  0.00  0.00    +0.065 A 
ATOM     36 CL   UNL     1      -1.403  12.543   2.037  0.00  0.00    -0.083 Cl
ENDBRANCH  29  30
ENDBRANCH  28  29
ENDBRANCH  11  28
TORSDOF 6
