REMARK  Name = ZINC39635329
REMARK  3 active torsions:
REMARK  status: ('A' for Active; 'I' for Inactive)
REMARK    1  A    between atoms: C_6  and  C_7
REMARK    2  A    between atoms: C_11  and  C_20
REMARK    3  A    between atoms: N_22  and  C_23
REMARK                            x       y       z     vdW  Elec       q    Type
REMARK                         _______ _______ _______ _____ _____    ______ ____
ROOT
ATOM      1  C   UNL     1      -1.064  -0.728   0.084  0.00  0.00    +0.247 C 
ATOM      2  O   UNL     1      -2.114  -0.119   0.145  0.00  0.00    -0.270 OA
ATOM      3  N   UNL     1      -1.070  -2.066  -0.076  0.00  0.00    -0.296 N 
ATOM      4  C   UNL     1       0.088  -2.990  -0.041  0.00  0.00    +0.121 C 
ATOM      5  C   UNL     1      -0.431  -4.239   0.707  0.00  0.00    +0.100 C 
ATOM      6  C   UNL     1      -1.957  -4.205   0.515  0.00  0.00    -0.004 C 
ATOM      7  C   UNL     1      -2.237  -2.947  -0.320  0.00  0.00    +0.115 C 
ATOM      8  C   UNL     1      -2.658  -4.102   1.866  0.00  0.00    -0.010 C 
ATOM      9  C   UNL     1      -4.174  -4.128   1.653  0.00  0.00    -0.082 C 
ATOM     10  N   UNL     1      -4.553  -5.374   0.976  0.00  0.00    +0.379 N 
ATOM     11  C   UNL     1      -3.948  -5.423  -0.361  0.00  0.00    -0.082 C 
ATOM     12  C   UNL     1      -2.423  -5.451  -0.232  0.00  0.00    -0.010 C 
ATOM     13  H   UNL     1      -4.230  -6.161   1.518  0.00  0.00    -0.086 HD
ATOM     14  H   UNL     1      -5.558  -5.417   0.891  0.00  0.00    -0.086 HD
ENDROOT
BRANCH   1  20
ATOM     15  C   UNL     1       0.281   1.280   0.746  0.00  0.00    +0.033 A 
ATOM     16  C   UNL     1       1.502   1.922   0.820  0.00  0.00    +0.111 A 
ATOM     17  N   UNL     1       2.599   1.346   0.371  0.00  0.00    -0.263 NA
ATOM     18  C   UNL     1       2.587   0.142  -0.165  0.00  0.00    +0.111 A 
ATOM     19  C   UNL     1       1.410  -0.572  -0.280  0.00  0.00    +0.033 A 
ATOM     20  C   UNL     1       0.222   0.000   0.184  0.00  0.00    +0.040 A 
ENDBRANCH   1  20
BRANCH   5  21
ATOM     21  C   UNL     1       0.149  -5.491   0.103  0.00  0.00    +0.218 C 
ATOM     22  O   UNL     1       0.420  -5.526  -1.079  0.00  0.00    -0.275 OA
ATOM     23  N   UNL     1       0.367  -6.574   0.876  0.00  0.00    -0.312 N 
ATOM     24  H   UNL     1       0.151  -6.546   1.821  0.00  0.00    +0.149 HD
BRANCH  23  25
ATOM     25  C   UNL     1       0.931  -7.792   0.289  0.00  0.00    +0.073 C 
ATOM     26  C   UNL     1      -0.086  -8.937   0.150  0.00  0.00    +0.022 C 
ATOM     27  C   UNL     1       1.041  -9.886   0.590  0.00  0.00    +0.004 C 
ATOM     28  C   UNL     1       1.672  -8.679   1.303  0.00  0.00    +0.022 C 
ENDBRANCH  23  25
ENDBRANCH   5  21
TORSDOF 3
