REMARK  Name = ZINC09793658
REMARK  6 active torsions:
REMARK  status: ('A' for Active; 'I' for Inactive)
REMARK    1  A    between atoms: C_1  and  C_2
REMARK    2  A    between atoms: C_9  and  C_11
REMARK    3  A    between atoms: N_13  and  N_14
REMARK    4  A    between atoms: N_17  and  C_18
REMARK    5  A    between atoms: C_18  and  C_20
REMARK    6  A    between atoms: C_18  and  C_21
REMARK                            x       y       z     vdW  Elec       q    Type
REMARK                         _______ _______ _______ _____ _____    ______ ____
ROOT
ATOM      1  N   UNL     1       2.720  -7.712   3.488  0.00  0.00    -0.218 N 
ATOM      2  C   UNL     1       2.544  -8.960   3.010  0.00  0.00    +0.316 C 
ATOM      3  O   UNL     1       2.721  -9.920   3.735  0.00  0.00    -0.251 OA
ATOM      4  N   UNL     1       2.171  -9.145   1.728  0.00  0.00    -0.292 N 
ATOM      5  H   UNL     1       2.988  -7.580   4.410  0.00  0.00    +0.174 HD
ATOM      6  H   UNL     1       2.030  -8.379   1.149  0.00  0.00    +0.151 HD
ENDROOT
BRANCH   1   9
ATOM      7  C   UNL     1       2.692  -5.359   3.130  0.00  0.00    +0.267 C 
ATOM      8  O   UNL     1       3.028  -5.193   4.287  0.00  0.00    -0.268 OA
ATOM      9  N   UNL     1       2.516  -6.607   2.652  0.00  0.00    -0.229 N 
ATOM     10  H   UNL     1       2.247  -6.739   1.729  0.00  0.00    +0.173 HD
BRANCH   7  18
ATOM     11  C   UNL     1       1.892   1.735   0.616  0.00  0.00    +0.008 C 
ATOM     12  C   UNL     1       1.656   0.224   0.560  0.00  0.00    -0.009 C 
ATOM     13  C   UNL     1       2.129  -0.315  -0.793  0.00  0.00    +0.009 C 
ATOM     14  C   UNL     1       1.645  -1.764  -0.944  0.00  0.00    +0.043 C 
ATOM     15  C   UNL     1       1.978  -2.509   0.314  0.00  0.00    -0.006 A 
ATOM     16  C   UNL     1       2.337  -1.967   1.513  0.00  0.00    -0.036 A 
ATOM     17  C   UNL     1       2.603  -2.856   2.544  0.00  0.00    +0.024 A 
ATOM     18  C   UNL     1       2.478  -4.202   2.255  0.00  0.00    +0.076 A 
ATOM     19  S   UNL     1       1.990  -4.164   0.541  0.00  0.00    -0.088 S 
ATOM     20  C   UNL     1       2.435  -0.454   1.687  0.00  0.00    +0.039 C 
ENDBRANCH   7  18
ENDBRANCH   1   9
BRANCH   4  21
ATOM     21  C   UNL     1       1.980 -10.501   1.208  0.00  0.00    +0.103 C 
ATOM     22  C   UNL     1       0.545 -10.955   1.485  0.00  0.00    +0.033 C 
BRANCH  21  23
ATOM     23  C   UNL     1       2.231 -10.510  -0.277  0.00  0.00    -0.013 A 
ATOM     24  C   UNL     1       2.030  -9.361  -1.020  0.00  0.00    +0.006 A 
ATOM     25  C   UNL     1       2.261  -9.369  -2.382  0.00  0.00    +0.000 A 
ATOM     26  C   UNL     1       2.694 -10.526  -3.004  0.00  0.00    +0.001 A 
ATOM     27  C   UNL     1       2.896 -11.675  -2.263  0.00  0.00    +0.015 A 
ATOM     28  C   UNL     1       2.669 -11.666  -0.898  0.00  0.00    +0.023 A 
ATOM     29 BR   UNL     1       2.951 -13.236   0.118  0.00  0.00    -0.050 Br
ENDBRANCH  21  23
ENDBRANCH   4  21
TORSDOF 4
