REMARK  Name = ZINC05516548
REMARK  3 active torsions:
REMARK  status: ('A' for Active; 'I' for Inactive)
REMARK    1  A    between atoms: C_1  and  C_2
REMARK    2  A    between atoms: C_10  and  C_13
REMARK    3  A    between atoms: C_20  and  C_28
REMARK                            x       y       z     vdW  Elec       q    Type
REMARK                         _______ _______ _______ _____ _____    ______ ____
ROOT
ATOM      1  C   UNL     1       0.034   1.421  -0.382  0.00  0.00    +0.044 C 
ATOM      2  C   UNL     1       0.040  -0.083  -0.297  0.00  0.00    -0.050 A 
ATOM      3  C   UNL     1       0.032  -0.839  -1.456  0.00  0.00    +0.007 A 
ATOM      4  C   UNL     1       0.039  -2.221  -1.393  0.00  0.00    +0.046 A 
ATOM      5  C   UNL     1       0.054  -2.855  -0.163  0.00  0.00    +0.131 A 
ATOM      6  C   UNL     1       0.061  -2.089   1.010  0.00  0.00    +0.043 A 
ATOM      7  C   UNL     1       0.061  -0.703   0.939  0.00  0.00    +0.017 A 
ATOM      8  C   UNL     1       0.072  -2.800   2.313  0.00  0.00    +0.083 C 
ATOM      9  C   UNL     1      -0.253  -4.110   2.311  0.00  0.00    +0.028 C 
ATOM     10  C   UNL     1      -0.620  -4.804   1.032  0.00  0.00    +0.234 C 
ATOM     11  O   UNL     1       0.065  -4.209  -0.072  0.00  0.00    -0.479 OA
ATOM     12  C   UNL     1      -0.235  -4.848   3.630  0.00  0.00    +0.164 C 
ATOM     13  N   UNL     1       0.140  -4.054   4.809  0.00  0.00    -0.182 N 
ATOM     14  C   UNL     1       0.436  -2.732   4.643  0.00  0.00    +0.209 C 
ATOM     15  N   UNL     1       0.398  -2.158   3.461  0.00  0.00    -0.216 NA
ATOM     16  N   UNL     1       0.743  -2.247   5.888  0.00  0.00    -0.275 N 
ATOM     17  C   UNL     1       0.631  -3.278   6.789  0.00  0.00    +0.208 C 
ATOM     18  N   UNL     1       0.275  -4.354   6.165  0.00  0.00    -0.169 NA
ATOM     19  H   UNL     1       0.996  -1.334   6.096  0.00  0.00    +0.156 HD
ENDROOT
BRANCH  10  20
ATOM     20  C   UNL     1      -2.106  -4.689   0.810  0.00  0.00    -0.000 A 
ATOM     21  C   UNL     1      -2.647  -3.500   0.358  0.00  0.00    +0.008 A 
ATOM     22  C   UNL     1      -4.010  -3.394   0.154  0.00  0.00    +0.003 A 
ATOM     23  C   UNL     1      -4.834  -4.476   0.403  0.00  0.00    +0.038 A 
ATOM     24  C   UNL     1      -4.293  -5.667   0.857  0.00  0.00    +0.124 A 
ATOM     25  C   UNL     1      -2.926  -5.774   1.054  0.00  0.00    +0.046 A 
ATOM     26  F   UNL     1      -5.096  -6.724   1.101  0.00  0.00    -0.205 F 
ENDBRANCH  10  20
BRANCH  12  27
ATOM     27  C   UNL     1       0.735  -5.995   3.514  0.00  0.00    -0.003 A 
ATOM     28  C   UNL     1       0.276  -7.281   3.271  0.00  0.00    +0.009 A 
ATOM     29  C   UNL     1       1.205  -8.305   3.172  0.00  0.00    +0.020 A 
ATOM     30  C   UNL     1       2.548  -8.013   3.316  0.00  0.00    +0.111 A 
ATOM     31  N   UNL     1       2.948  -6.778   3.547  0.00  0.00    -0.263 NA
ATOM     32  C   UNL     1       2.094  -5.778   3.641  0.00  0.00    +0.116 A 
ENDBRANCH  12  27
TORSDOF 2
