REMARK  Name = ZINC47872023
REMARK  6 active torsions:
REMARK  status: ('A' for Active; 'I' for Inactive)
REMARK    1  A    between atoms: C_7  and  C_12
REMARK    2  A    between atoms: C_12  and  C_13
REMARK    3  A    between atoms: N_15  and  N_16
REMARK    4  A    between atoms: N_16  and  C_17
REMARK    5  A    between atoms: C_17  and  N_19
REMARK    6  A    between atoms: N_19  and  C_20
REMARK                            x       y       z     vdW  Elec       q    Type
REMARK                         _______ _______ _______ _____ _____    ______ ____
ROOT
ATOM      1  C   UNL     1       1.289  -4.290  -1.214  0.00  0.00    +0.233 C 
ATOM      2  O   UNL     1       1.879  -4.759  -0.263  0.00  0.00    -0.274 OA
ATOM      3  N   UNL     1       0.879  -5.094  -2.215  0.00  0.00    -0.235 N 
ATOM      4  H   UNL     1       0.407  -4.720  -2.975  0.00  0.00    +0.173 HD
ENDROOT
BRANCH   3   5
ATOM      5  N   UNL     1       1.135  -6.470  -2.158  0.00  0.00    -0.246 N 
ATOM      6  H   UNL     1       1.607  -6.845  -1.398  0.00  0.00    +0.172 HD
BRANCH   5   7
ATOM      7  C   UNL     1       0.726  -7.274  -3.160  0.00  0.00    +0.147 C 
ATOM      8  S   UNL     1       1.039  -8.956  -3.091  0.00  0.00    -0.017 S 
BRANCH   7   9
ATOM      9  N   UNL     1       0.071  -6.753  -4.216  0.00  0.00    -0.323 N 
ATOM     10  H   UNL     1      -0.107  -5.801  -4.256  0.00  0.00    +0.148 HD
BRANCH   9  11
ATOM     11  C   UNL     1      -0.374  -7.627  -5.305  0.00  0.00    +0.072 C 
ATOM     12  C   UNL     1       0.748  -7.779  -6.353  0.00  0.00    +0.022 C 
ATOM     13  C   UNL     1      -0.001  -7.813  -7.708  0.00  0.00    +0.002 C 
ATOM     14  C   UNL     1      -1.137  -6.782  -7.498  0.00  0.00    +0.002 C 
ATOM     15  C   UNL     1      -1.573  -6.993  -6.033  0.00  0.00    +0.022 C 
ENDBRANCH   9  11
ENDBRANCH   7   9
ENDBRANCH   5   7
ENDBRANCH   3   5
BRANCH   1  16
ATOM     16  C   UNL     1       1.013  -2.810  -1.275  0.00  0.00    +0.146 C 
BRANCH  16  23
ATOM     17  C   UNL     1      -0.017   1.381   0.010  0.00  0.00    +0.000 A 
ATOM     18  C   UNL     1       1.169   2.094   0.002  0.00  0.00    +0.001 A 
ATOM     19  C   UNL     1       2.380   1.432  -0.013  0.00  0.00    +0.015 A 
ATOM     20  C   UNL     1       2.406   0.037  -0.021  0.00  0.00    +0.066 A 
ATOM     21  C   UNL     1       1.203  -0.674  -0.013  0.00  0.00    +0.007 A 
ATOM     22  C   UNL     1       0.002  -0.004   0.002  0.00  0.00    +0.008 A 
ATOM     23  C   UNL     1       1.578  -2.134  -0.024  0.00  0.00    +0.216 C 
ATOM     24  O   UNL     1       3.007  -2.192  -0.038  0.00  0.00    -0.453 OA
ATOM     25  C   UNL     1       3.506  -0.945  -0.037  0.00  0.00    +0.340 C 
ATOM     26  O   UNL     1       4.688  -0.667  -0.047  0.00  0.00    -0.245 OA
ENDBRANCH  16  23
ENDBRANCH   1  16
TORSDOF 6
