REMARK  Name = ZINC32488148
REMARK  3 active torsions:
REMARK  status: ('A' for Active; 'I' for Inactive)
REMARK    1  A    between atoms: C_4  and  O_25
REMARK    2  A    between atoms: C_5  and  N_7
REMARK    3  A    between atoms: C_13  and  C_15
REMARK                            x       y       z     vdW  Elec       q    Type
REMARK                         _______ _______ _______ _____ _____    ______ ____
ROOT
ATOM      1  N   UNL     1      -6.731   6.102  -0.594  0.00  0.00    -0.324 N 
ATOM      2  C   UNL     1      -7.415   4.814  -0.768  0.00  0.00    +0.124 C 
ATOM      3  C   UNL     1      -6.895   3.818   0.274  0.00  0.00    +0.127 C 
ATOM      4  N   UNL     1      -5.429   3.761   0.174  0.00  0.00    -0.292 N 
ATOM      5  C   UNL     1      -4.679   5.026   0.208  0.00  0.00    +0.127 C 
ATOM      6  C   UNL     1      -5.287   5.975  -0.836  0.00  0.00    +0.124 C 
ATOM      7  C   UNL     1      -4.789   2.580   0.060  0.00  0.00    +0.282 C 
ATOM      8  O   UNL     1      -5.426   1.553  -0.076  0.00  0.00    -0.267 OA
ENDROOT
BRANCH   7   9
ATOM      9  C   UNL     1      -3.320   2.534   0.099  0.00  0.00    +0.191 A 
ATOM     10  C   UNL     1      -2.566   1.432  -0.148  0.00  0.00    +0.063 A 
ATOM     11  C   UNL     1      -1.173   1.852  -0.001  0.00  0.00    +0.022 A 
ATOM     12  C   UNL     1       0.058   1.201  -0.114  0.00  0.00    +0.012 A 
ATOM     13  C   UNL     1       1.214   1.897   0.099  0.00  0.00    +0.002 A 
ATOM     14  C   UNL     1       1.174   3.244   0.430  0.00  0.00    +0.019 A 
ATOM     15  C   UNL     1      -0.030   3.904   0.552  0.00  0.00    +0.061 A 
ATOM     16  C   UNL     1      -1.221   3.216   0.340  0.00  0.00    +0.150 A 
ATOM     17  O   UNL     1      -2.518   3.580   0.385  0.00  0.00    -0.449 OA
ATOM     18 BR   UNL     1      -0.064   5.740   1.004  0.00  0.00    -0.046 Br
ENDBRANCH   7   9
BRANCH   1  23
ATOM     19  C   UNL     1      -7.113   8.593  -3.273  0.00  0.00    +0.002 A 
ATOM     20  C   UNL     1      -8.405   9.030  -3.046  0.00  0.00    +0.004 A 
ATOM     21  C   UNL     1      -9.146   8.498  -2.006  0.00  0.00    +0.047 A 
ATOM     22  C   UNL     1      -8.595   7.526  -1.189  0.00  0.00    +0.138 A 
ATOM     23  C   UNL     1      -7.293   7.085  -1.417  0.00  0.00    +0.072 A 
ATOM     24  C   UNL     1      -6.554   7.626  -2.458  0.00  0.00    +0.027 A 
BRANCH  22  25
ATOM     25  O   UNL     1      -9.322   7.003  -0.165  0.00  0.00    -0.505 OA
ATOM     26  H   UNL     1      -8.883   6.231   0.483  0.00  0.00    +0.292 HD
ENDBRANCH  22  25
ENDBRANCH   1  23
TORSDOF 3
