REMARK  Name = ZINC09123780
REMARK  14 active torsions:
REMARK  status: ('A' for Active; 'I' for Inactive)
REMARK    1  A    between atoms: C_1  and  C_2
REMARK    2  A    between atoms: C_2  and  C_3
REMARK    3  A    between atoms: C_6  and  C_9
REMARK    4  A    between atoms: C_12  and  C_32
REMARK    5  A    between atoms: N_19  and  C_20
REMARK    6  A    between atoms: C_20  and  C_21
REMARK    7  A    between atoms: C_21  and  C_22
REMARK    8  A    between atoms: C_25  and  O_30
REMARK    9  A    between atoms: C_26  and  O_28
REMARK   10  A    between atoms: O_28  and  C_29
REMARK   11  A    between atoms: O_30  and  C_31
REMARK   12  A    between atoms: C_34  and  C_40
REMARK   13  A    between atoms: C_36  and  C_39
REMARK   14  A    between atoms: C_37  and  O_38
REMARK                            x       y       z     vdW  Elec       q    Type
REMARK                         _______ _______ _______ _____ _____    ______ ____
ROOT
ATOM      1  C   UNL     1       2.707  -1.868  -4.752  0.00  0.00    +0.141 C 
ATOM      2  C   UNL     1       3.394  -0.720  -5.440  0.00  0.00    +0.035 A 
ATOM      3  C   UNL     1       3.277   0.485  -6.054  0.00  0.00    +0.075 A 
ATOM      4  N   UNL     1       4.539   0.864  -6.416  0.00  0.00    -0.276 N 
ATOM      5  H   UNL     1       4.762   1.689  -6.875  0.00  0.00    +0.189 HD
ATOM      6  N   UNL     1       5.386  -0.033  -6.056  0.00  0.00    -0.168 NA
ATOM      7  C   UNL     1       4.772  -1.033  -5.455  0.00  0.00    +0.153 A 
ATOM      8  C   UNL     1       4.947  -2.340  -4.795  0.00  0.00    +0.268 C 
ATOM      9  O   UNL     1       6.014  -2.901  -4.640  0.00  0.00    -0.268 OA
ATOM     10  N   UNL     1       3.760  -2.824  -4.390  0.00  0.00    -0.285 N 
ENDROOT
BRANCH   3  11
ATOM     11  C   UNL     1       2.027   1.241  -6.287  0.00  0.00    +0.042 A 
ATOM     12  C   UNL     1       1.573   1.462  -7.587  0.00  0.00    +0.017 A 
ATOM     13  C   UNL     1       0.406   2.167  -7.799  0.00  0.00    -0.049 A 
ATOM     14  C   UNL     1      -0.316   2.657  -6.725  0.00  0.00    +0.010 A 
ATOM     15  C   UNL     1       0.124   2.445  -5.432  0.00  0.00    -0.008 A 
ATOM     16  C   UNL     1       1.291   1.733  -5.204  0.00  0.00    +0.129 A 
ATOM     17  C   UNL     1      -0.669   2.983  -4.269  0.00  0.00    +0.047 C 
ATOM     18  C   UNL     1      -0.083   2.405  -9.204  0.00  0.00    +0.044 C 
BRANCH  16  19
ATOM     19  O   UNL     1       1.721   1.519  -3.933  0.00  0.00    -0.506 OA
ATOM     20  H   UNL     1       2.307   2.210  -3.595  0.00  0.00    +0.292 HD
ENDBRANCH  16  19
ENDBRANCH   3  11
BRANCH   1  24
ATOM     21  C   UNL     1       0.707  -0.490  -1.238  0.00  0.00    -0.048 A 
ATOM     22  C   UNL     1      -0.011  -0.719  -2.397  0.00  0.00    +0.004 A 
ATOM     23  C   UNL     1       0.636  -1.164  -3.534  0.00  0.00    +0.006 A 
ATOM     24  C   UNL     1       2.002  -1.381  -3.513  0.00  0.00    -0.022 A 
ATOM     25  C   UNL     1       2.720  -1.152  -2.354  0.00  0.00    +0.006 A 
ATOM     26  C   UNL     1       2.073  -0.702  -1.218  0.00  0.00    +0.004 A 
BRANCH  21  28
ATOM     27  C   UNL     1      -0.019   1.526   0.010  0.00  0.00    +0.009 C 
ATOM     28  C   UNL     1       0.002  -0.004   0.002  0.00  0.00    +0.032 C 
ENDBRANCH  21  28
ENDBRANCH   1  24
BRANCH  10  29
ATOM     29  C   UNL     1       3.550  -4.099  -3.699  0.00  0.00    +0.114 C 
BRANCH  29  30
ATOM     30  C   UNL     1       3.313  -5.205  -4.729  0.00  0.00    +0.054 C 
BRANCH  30  31
ATOM     31  C   UNL     1       3.098  -6.516  -4.018  0.00  0.00    -0.042 A 
ATOM     32  C   UNL     1       4.178  -7.329  -3.727  0.00  0.00    +0.007 A 
ATOM     33  C   UNL     1       3.986  -8.532  -3.075  0.00  0.00    +0.049 A 
ATOM     34  C   UNL     1       2.708  -8.926  -2.710  0.00  0.00    +0.161 A 
ATOM     35  C   UNL     1       1.621  -8.108  -3.002  0.00  0.00    +0.162 A 
ATOM     36  C   UNL     1       1.821  -6.901  -3.651  0.00  0.00    +0.053 A 
BRANCH  35  37
ATOM     37  O   UNL     1       0.365  -8.490  -2.645  0.00  0.00    -0.491 OA
ATOM     38  C   UNL     1      -0.702  -7.600  -2.977  0.00  0.00    +0.277 C 
ENDBRANCH  35  37
BRANCH  34  39
ATOM     39  O   UNL     1       2.517 -10.110  -2.069  0.00  0.00    -0.491 OA
ATOM     40  C   UNL     1       3.679 -10.898  -1.802  0.00  0.00    +0.277 C 
ENDBRANCH  34  39
ENDBRANCH  30  31
ENDBRANCH  29  30
ENDBRANCH  10  29
TORSDOF 9
