REMARK  Name = ZINC36255884
REMARK  8 active torsions:
REMARK  status: ('A' for Active; 'I' for Inactive)
REMARK    1  A    between atoms: C_1  and  C_2
REMARK    2  A    between atoms: C_2  and  C_3
REMARK    3  A    between atoms: C_3  and  O_4
REMARK    4  A    between atoms: O_4  and  C_5
REMARK    5  A    between atoms: C_8  and  C_11
REMARK    6  A    between atoms: C_16  and  C_20
REMARK    7  A    between atoms: C_17  and  C_19
REMARK    8  A    between atoms: C_20  and  C_21
REMARK                            x       y       z     vdW  Elec       q    Type
REMARK                         _______ _______ _______ _____ _____    ______ ____
ROOT
ATOM      1  C   UNL     1      -6.377  -4.577   0.038  0.00  0.00    +0.063 A 
ATOM      2  C   UNL     1      -7.206  -4.456  -1.016  0.00  0.00    +0.075 A 
ATOM      3  S   UNL     1      -8.598  -5.452  -0.507  0.00  0.00    -0.057 S 
ATOM      4  C   UNL     1      -7.967  -5.955   1.077  0.00  0.00    +0.178 A 
ATOM      5  N   UNL     1      -6.741  -5.348   1.128  0.00  0.00    -0.289 N 
ATOM      6  C   UNL     1      -6.208  -5.725   2.357  0.00  0.00    +0.061 A 
ATOM      7  C   UNL     1      -7.105  -6.518   2.966  0.00  0.00    +0.062 A 
ATOM      8  N   UNL     1      -8.176  -6.638   2.166  0.00  0.00    -0.226 NA
ATOM      9  C   UNL     1      -6.942  -7.156   4.321  0.00  0.00    +0.067 C 
ENDROOT
BRANCH   1  13
ATOM     10  C   UNL     1      -2.616  -2.596   0.013  0.00  0.00    +0.121 A 
ATOM     11  C   UNL     1      -3.790  -1.854   0.022  0.00  0.00    +0.046 A 
ATOM     12  C   UNL     1      -5.012  -2.493   0.031  0.00  0.00    +0.013 A 
ATOM     13  C   UNL     1      -5.068  -3.887   0.029  0.00  0.00    -0.000 A 
ATOM     14  C   UNL     1      -3.886  -4.630   0.019  0.00  0.00    +0.013 A 
ATOM     15  C   UNL     1      -2.668  -3.983   0.006  0.00  0.00    +0.046 A 
BRANCH  10  16
ATOM     16  O   UNL     1      -1.414  -1.962   0.005  0.00  0.00    -0.492 OA
BRANCH  16  17
ATOM     17  C   UNL     1      -1.433  -0.534   0.013  0.00  0.00    +0.229 C 
BRANCH  17  19
ATOM     18  C   UNL     1      -0.019   1.526   0.010  0.00  0.00    +0.007 C 
ATOM     19  C   UNL     1       0.002  -0.004   0.002  0.00  0.00    +0.038 C 
ENDBRANCH  17  19
ENDBRANCH  16  17
ENDBRANCH  10  16
ENDBRANCH   1  13
BRANCH   6  20
ATOM     20  C   UNL     1      -4.866  -5.316   2.907  0.00  0.00    +0.174 C 
BRANCH  20  21
ATOM     21  C   UNL     1      -5.010  -4.071   3.679  0.00  0.00    +0.069 C 
ATOM     22  N   UNL     1      -5.121  -3.110   4.274  0.00  0.00    -0.196 NA
ENDBRANCH  20  21
ENDBRANCH   6  20
TORSDOF 6
