REMARK  Name = ZINC29406041
REMARK  10 active torsions:
REMARK  status: ('A' for Active; 'I' for Inactive)
REMARK    1  A    between atoms: C_1  and  O_2
REMARK    2  A    between atoms: O_2  and  C_3
REMARK    3  A    between atoms: C_8  and  N_9
REMARK    4  A    between atoms: N_9  and  S_10
REMARK    5  A    between atoms: S_10  and  C_13
REMARK    6  A    between atoms: C_16  and  O_35
REMARK    7  A    between atoms: C_17  and  N_19
REMARK    8  A    between atoms: C_20  and  C_22
REMARK    9  A    between atoms: C_25  and  C_27
REMARK   10  A    between atoms: C_27  and  N_28
REMARK                            x       y       z     vdW  Elec       q    Type
REMARK                         _______ _______ _______ _____ _____    ______ ____
ROOT
ATOM      1  C   UNL     1       1.486   2.864   1.284  0.00  0.00    +0.110 A 
ATOM      2  C   UNL     1       0.956   4.138   1.194  0.00  0.00    +0.032 A 
ATOM      3  C   UNL     1       1.013   4.993   2.280  0.00  0.00    +0.049 A 
ATOM      4  C   UNL     1       1.612   4.578   3.458  0.00  0.00    +0.138 A 
ATOM      5  C   UNL     1       2.151   3.297   3.548  0.00  0.00    +0.078 A 
ATOM      6  C   UNL     1       2.085   2.442   2.456  0.00  0.00    +0.055 A 
ENDROOT
BRANCH   5   7
ATOM      7  N   UNL     1       2.757   2.872   4.736  0.00  0.00    -0.276 N 
ATOM      8  C   UNL     1       3.819   2.042   4.692  0.00  0.00    +0.284 C 
ATOM      9  O   UNL     1       4.201   1.599   3.625  0.00  0.00    -0.266 OA
ATOM     10  H   UNL     1       2.367   3.215   5.706  0.00  0.00    +0.155 HD
BRANCH   8  11
ATOM     11  C   UNL     1       4.513   1.674   5.930  0.00  0.00    +0.190 A 
ATOM     12  C   UNL     1       5.596   0.848   6.027  0.00  0.00    +0.055 A 
ATOM     13  C   UNL     1       5.929   0.777   7.389  0.00  0.00    +0.047 A 
ATOM     14  C   UNL     1       5.046   1.554   8.055  0.00  0.00    +0.126 A 
ATOM     15  O   UNL     1       4.198   2.097   7.172  0.00  0.00    -0.453 OA
BRANCH  14  16
ATOM     16  C   UNL     1       5.024   1.777   9.545  0.00  0.00    +0.199 C 
BRANCH  16  17
ATOM     17  N   UNL     1       5.857   2.934   9.878  0.00  0.00    -0.308 N 
ATOM     18  C   UNL     1       5.304   4.173   9.910  0.00  0.00    +0.089 A 
ATOM     19  C   UNL     1       6.054   5.258  10.215  0.00  0.00    +0.018 A 
ATOM     20  C   UNL     1       7.418   5.107  10.502  0.00  0.00    +0.007 A 
ATOM     21  C   UNL     1       7.973   3.861  10.470  0.00  0.00    +0.070 A 
ATOM     22  C   UNL     1       7.163   2.756  10.154  0.00  0.00    +0.252 A 
ATOM     23  O   UNL     1       7.646   1.635  10.127  0.00  0.00    -0.268 OA
ENDBRANCH  16  17
ENDBRANCH  14  16
ENDBRANCH   8  11
ENDBRANCH   5   7
BRANCH   1  24
ATOM     24  S   UNL     1       1.403   1.778  -0.101  0.00  0.00    +0.073 S 
ATOM     25  O   UNL     1       2.458   0.839   0.056  0.00  0.00    -0.150 OA
ATOM     26  O   UNL     1       1.279   2.599  -1.254  0.00  0.00    -0.150 OA
BRANCH  24  27
ATOM     27  N   UNL     1      -0.011   0.927   0.028  0.00  0.00    -0.213 N 
ATOM     28  H   UNL     1       0.013  -0.170   0.110  0.00  0.00    +0.174 HD
BRANCH  27  34
ATOM     29  C   UNL     1      -2.286   1.140   0.825  0.00  0.00    +0.142 A 
ATOM     30  C   UNL     1      -3.497   1.812   0.825  0.00  0.00    +0.047 A 
ATOM     31  C   UNL     1      -3.662   2.940   0.043  0.00  0.00    +0.004 A 
ATOM     32  C   UNL     1      -2.621   3.400  -0.742  0.00  0.00    +0.002 A 
ATOM     33  C   UNL     1      -1.408   2.738  -0.745  0.00  0.00    +0.028 A 
ATOM     34  C   UNL     1      -1.237   1.602   0.033  0.00  0.00    +0.090 A 
BRANCH  29  36
ATOM     35  C   UNL     1      -3.241  -0.386   2.380  0.00  0.00    +0.277 C 
ATOM     36  O   UNL     1      -2.122   0.030   1.594  0.00  0.00    -0.493 OA
ENDBRANCH  29  36
ENDBRANCH  27  34
ENDBRANCH  24  27
ENDBRANCH   1  24
BRANCH   4  37
ATOM     37  O   UNL     1       1.673   5.420   4.524  0.00  0.00    -0.505 OA
ATOM     38  H   UNL     1       2.149   5.089   5.459  0.00  0.00    +0.292 HD
ENDBRANCH   4  37
TORSDOF 9
