REMARK  Name = ZINC04752008
REMARK  7 active torsions:
REMARK  status: ('A' for Active; 'I' for Inactive)
REMARK    1  A    between atoms: C_1  and  C_2
REMARK    2  A    between atoms: C_4  and  N_15
REMARK    3  A    between atoms: C_6  and  C_8
REMARK    4  A    between atoms: C_13  and  O_14
REMARK    5  A    between atoms: N_15  and  N_16
REMARK    6  A    between atoms: C_17  and  C_18
REMARK    7  A    between atoms: C_21  and  N_24
REMARK                            x       y       z     vdW  Elec       q    Type
REMARK                         _______ _______ _______ _____ _____    ______ ____
ROOT
ATOM      1  C   UNL     1      -9.761   0.926   0.056  0.00  0.00    +0.066 C 
ATOM      2  C   UNL     1      -8.433   1.639   0.053  0.00  0.00    +0.044 A 
ATOM      3  C   UNL     1      -7.253   0.918   0.043  0.00  0.00    +0.068 A 
ATOM      4  C   UNL     1      -6.044   1.618   0.040  0.00  0.00    +0.142 A 
ATOM      5  N   UNL     1      -6.068   2.947   0.053  0.00  0.00    -0.211 NA
ATOM      6  C   UNL     1      -7.221   3.601   0.057  0.00  0.00    +0.166 A 
ATOM      7  N   UNL     1      -8.384   2.962   0.060  0.00  0.00    -0.232 NA
ENDROOT
BRANCH   6   8
ATOM      8  C   UNL     1      -7.211   5.083   0.066  0.00  0.00    +0.061 A 
ATOM      9  C   UNL     1      -8.412   5.791   0.070  0.00  0.00    +0.015 A 
ATOM     10  C   UNL     1      -8.396   7.170   0.084  0.00  0.00    +0.001 A 
ATOM     11  C   UNL     1      -7.193   7.855   0.082  0.00  0.00    +0.004 A 
ATOM     12  C   UNL     1      -5.997   7.164   0.071  0.00  0.00    +0.046 A 
ATOM     13  C   UNL     1      -5.997   5.777   0.063  0.00  0.00    +0.128 A 
BRANCH  13  14
ATOM     14  O   UNL     1      -4.822   5.096   0.052  0.00  0.00    -0.506 OA
ATOM     15  H   UNL     1      -4.487   4.904  -0.834  0.00  0.00    +0.292 HD
ENDBRANCH  13  14
ENDBRANCH   6   8
BRANCH   4  16
ATOM     16  N   UNL     1      -4.838   0.936   0.031  0.00  0.00    -0.221 N 
ATOM     17  H   UNL     1      -4.828  -0.034   0.026  0.00  0.00    +0.176 HD
BRANCH  16  18
ATOM     18  N   UNL     1      -3.631   1.648   0.029  0.00  0.00    -0.189 NA
ATOM     19  C   UNL     1      -2.501   1.010   0.020  0.00  0.00    +0.138 C 
BRANCH  19  20
ATOM     20  C   UNL     1      -1.231   1.760   0.017  0.00  0.00    -0.005 A 
ATOM     21  C   UNL     1      -0.013   1.076   0.008  0.00  0.00    +0.012 A 
ATOM     22  C   UNL     1       1.171   1.783   0.001  0.00  0.00    +0.033 A 
ATOM     23  C   UNL     1       1.155   3.167   0.008  0.00  0.00    +0.126 A 
ATOM     24  C   UNL     1      -0.048   3.851   0.022  0.00  0.00    +0.033 A 
ATOM     25  C   UNL     1      -1.240   3.156   0.030  0.00  0.00    +0.012 A 
BRANCH  23  26
ATOM     26  N   UNL     1       2.429   3.919  -0.001  0.00  0.00    +0.056 N 
ATOM     27  O   UNL     1       3.490   3.320  -0.013  0.00  0.00    -0.126 OA
ATOM     28  O   UNL     1       2.418   5.137   0.006  0.00  0.00    -0.126 OA
ENDBRANCH  23  26
ENDBRANCH  19  20
ENDBRANCH  16  18
ENDBRANCH   4  16
TORSDOF 6
