REMARK  Name = ZINC11784566
REMARK  9 active torsions:
REMARK  status: ('A' for Active; 'I' for Inactive)
REMARK    1  A    between atoms: C_1  and  C_2
REMARK    2  A    between atoms: C_2  and  C_3
REMARK    3  A    between atoms: C_2  and  C_4
REMARK    4  A    between atoms: C_4  and  C_5
REMARK    5  A    between atoms: C_5  and  C_6
REMARK    6  A    between atoms: C_6  and  C_13
REMARK    7  A    between atoms: C_18  and  C_19
REMARK    8  A    between atoms: C_18  and  N_61
REMARK    9  A    between atoms: C_24  and  C_25
REMARK                            x       y       z     vdW  Elec       q    Type
REMARK                         _______ _______ _______ _____ _____    ______ ____
ROOT
ATOM      1  C   UNL     1      -0.031   0.352  -1.408  0.00  0.00    +0.018 C 
ATOM      2  C   UNL     1      -0.355   0.726  -2.857  0.00  0.00    -0.013 C 
ATOM      3  C   UNL     1       0.649   0.046  -3.791  0.00  0.00    -0.078 C 
ATOM      4  C   UNL     1       0.933  -1.796  -2.241  0.00  0.00    -0.078 C 
ATOM      5  C   UNL     1      -0.064  -1.172  -1.261  0.00  0.00    -0.013 C 
ATOM      6  N   UNL     1       0.550  -1.419  -3.619  0.00  0.00    +0.382 N 
ATOM      7  H   UNL     1      -0.420  -1.710  -3.786  0.00  0.00    -0.081 HD
ENDROOT
BRANCH   1   8
ATOM      8  C   UNL     1      -1.069   0.978  -0.474  0.00  0.00    +0.115 C 
ATOM      9  C   UNL     1      -2.428   0.340  -0.682  0.00  0.00    +0.244 C 
ATOM     10  O   UNL     1      -3.086   0.335  -1.700  0.00  0.00    -0.273 OA
ATOM     11  N   UNL     1      -2.752  -0.222   0.499  0.00  0.00    -0.238 N 
ATOM     12  C   UNL     1      -1.796  -0.029   1.416  0.00  0.00    +0.307 C 
ATOM     13  O   UNL     1      -1.861  -0.443   2.557  0.00  0.00    -0.252 OA
ATOM     14  N   UNL     1      -0.755   0.673   0.933  0.00  0.00    -0.285 N 
ATOM     15  H   UNL     1      -3.575  -0.707   0.665  0.00  0.00    +0.159 HD
ATOM     16  H   UNL     1       0.045   0.929   1.417  0.00  0.00    +0.151 HD
BRANCH   8  17
ATOM     17  C   UNL     1      -1.145   2.490  -0.693  0.00  0.00    +0.036 C 
BRANCH  17  18
ATOM     18  C   UNL     1      -2.054   3.114   0.368  0.00  0.00    +0.005 C 
BRANCH  18  20
ATOM     19  C   UNL     1      -2.814   4.914  -1.190  0.00  0.00    +0.007 C 
ATOM     20  C   UNL     1      -2.130   4.626   0.148  0.00  0.00    -0.017 C 
ATOM     21  C   UNL     1      -2.937   5.266   1.281  0.00  0.00    +0.007 C 
ENDBRANCH  18  20
ENDBRANCH  17  18
ENDBRANCH   8  17
ENDBRANCH   1   8
BRANCH   6  22
ATOM     22  C   UNL     1       1.430  -2.102  -4.590  0.00  0.00    -0.039 C 
BRANCH  22  23
ATOM     23  C   UNL     1       0.808  -1.999  -5.959  0.00  0.00    -0.019 A 
ATOM     24  C   UNL     1       1.234  -1.211  -6.970  0.00  0.00    +0.107 A 
ATOM     25  N   UNL     1       0.417  -1.409  -8.026  0.00  0.00    -0.284 N 
ATOM     26  H   UNL     1       0.493  -0.964  -8.918  0.00  0.00    +0.188 HD
ATOM     27  N   UNL     1      -0.557  -2.345  -7.655  0.00  0.00    -0.174 NA
ATOM     28  C   UNL     1      -0.325  -2.704  -6.410  0.00  0.00    +0.094 A 
BRANCH  28  29
ATOM     29  C   UNL     1      -1.118  -3.680  -5.621  0.00  0.00    +0.002 A 
ATOM     30  C   UNL     1      -0.472  -4.625  -4.827  0.00  0.00    +0.011 A 
ATOM     31  C   UNL     1      -1.213  -5.527  -4.091  0.00  0.00    +0.020 A 
ATOM     32  C   UNL     1      -2.596  -5.501  -4.149  0.00  0.00    +0.041 A 
ATOM     33  C   UNL     1      -3.242  -4.567  -4.941  0.00  0.00    +0.020 A 
ATOM     34  C   UNL     1      -2.510  -3.658  -5.677  0.00  0.00    +0.011 A 
ATOM     35 CL   UNL     1      -3.523  -6.642  -3.226  0.00  0.00    -0.084 Cl
ENDBRANCH  28  29
ENDBRANCH  22  23
ENDBRANCH   6  22
TORSDOF 7
