REMARK  Name = ZINC23078088
REMARK  6 active torsions:
REMARK  status: ('A' for Active; 'I' for Inactive)
REMARK    1  A    between atoms: C_1  and  C_2
REMARK    2  A    between atoms: C_2  and  C_3
REMARK    3  A    between atoms: C_2  and  C_4
REMARK    4  A    between atoms: C_2  and  C_5
REMARK    5  A    between atoms: C_11  and  C_13
REMARK    6  A    between atoms: C_16  and  C_18
REMARK                            x       y       z     vdW  Elec       q    Type
REMARK                         _______ _______ _______ _____ _____    ______ ____
ROOT
ATOM      1  C   UNL     1      -2.628   8.876  -4.347  0.00  0.00    +0.056 A 
ATOM      2  C   UNL     1      -2.177  10.033  -3.802  0.00  0.00    +0.072 A 
ATOM      3  S   UNL     1      -1.085   9.400  -2.537  0.00  0.00    -0.060 S 
ATOM      4  C   UNL     1      -1.331   7.710  -2.850  0.00  0.00    +0.165 A 
ATOM      5  N   UNL     1      -2.185   7.736  -3.856  0.00  0.00    -0.229 NA
ATOM      6  N   UNL     1      -0.769   6.614  -2.211  0.00  0.00    -0.258 N 
ATOM      7  C   UNL     1       0.098   6.797  -1.195  0.00  0.00    +0.285 C 
ATOM      8  O   UNL     1       0.388   7.924  -0.839  0.00  0.00    -0.266 OA
ATOM      9  H   UNL     1      -1.030   5.595  -2.533  0.00  0.00    +0.157 HD
ENDROOT
BRANCH   7  10
ATOM     10  C   UNL     1       0.691   5.641  -0.521  0.00  0.00    +0.190 A 
ATOM     11  C   UNL     1       1.586   5.686   0.526  0.00  0.00    +0.055 A 
ATOM     12  C   UNL     1       1.883   4.361   0.861  0.00  0.00    +0.051 A 
ATOM     13  C   UNL     1       1.173   3.563   0.009  0.00  0.00    +0.139 A 
ATOM     14  O   UNL     1       0.456   4.345  -0.816  0.00  0.00    -0.450 OA
BRANCH  13  15
ATOM     15  C   UNL     1       1.185   2.087   0.002  0.00  0.00    +0.052 A 
ATOM     16  C   UNL     1      -0.017   1.375   0.010  0.00  0.00    +0.014 A 
ATOM     17  C   UNL     1       0.002  -0.004   0.002  0.00  0.00    +0.001 A 
ATOM     18  C   UNL     1       1.208  -0.684  -0.014  0.00  0.00    +0.003 A 
ATOM     19  C   UNL     1       2.402   0.012  -0.021  0.00  0.00    +0.039 A 
ATOM     20  C   UNL     1       2.400   1.394  -0.013  0.00  0.00    +0.134 A 
ATOM     21  F   UNL     1       3.567   2.074  -0.019  0.00  0.00    -0.205 F 
ENDBRANCH  13  15
ENDBRANCH   7  10
BRANCH   1  23
ATOM     22  C   UNL     1      -2.882   9.287  -6.779  0.00  0.00    +0.017 C 
ATOM     23  C   UNL     1      -3.609   8.894  -5.491  0.00  0.00    +0.005 C 
ATOM     24  C   UNL     1      -4.224   7.503  -5.657  0.00  0.00    +0.017 C 
ATOM     25  C   UNL     1      -4.715   9.909  -5.199  0.00  0.00    +0.017 C 
ENDBRANCH   1  23
TORSDOF 3
