REMARK  Name = ZINC14992822
REMARK  11 active torsions:
REMARK  status: ('A' for Active; 'I' for Inactive)
REMARK    1  A    between atoms: C_1  and  N_2
REMARK    2  A    between atoms: N_2  and  C_3
REMARK    3  A    between atoms: C_3  and  C_4
REMARK    4  A    between atoms: C_9  and  C_11
REMARK    5  A    between atoms: C_14  and  C_31
REMARK    6  A    between atoms: C_16  and  N_17
REMARK    7  A    between atoms: C_20  and  N_75
REMARK    8  A    between atoms: C_26  and  C_29
REMARK    9  A    between atoms: C_29  and  O_30
REMARK   10  A    between atoms: C_34  and  S_37
REMARK   11  A    between atoms: S_37  and  C_38
REMARK                            x       y       z     vdW  Elec       q    Type
REMARK                         _______ _______ _______ _____ _____    ______ ____
ROOT
ATOM      1  C   UNL     1       1.000   3.254   0.066  0.00  0.00    +0.077 A 
ATOM      2  C   UNL     1       1.116   1.891   0.373  0.00  0.00    +0.018 A 
ATOM      3  C   UNL     1      -0.006   1.096   0.271  0.00  0.00    +0.029 A 
ATOM      4  C   UNL     1      -1.214   1.663  -0.137  0.00  0.00    +0.073 A 
ATOM      5  N   UNL     1      -1.301   2.958  -0.417  0.00  0.00    -0.231 NA
ATOM      6  C   UNL     1      -0.251   3.758  -0.333  0.00  0.00    +0.134 A 
ENDROOT
BRANCH   6   7
ATOM      7  N   UNL     1      -0.385   5.100  -0.639  0.00  0.00    -0.315 N 
ATOM      8  C   UNL     1      -0.262   5.325  -2.086  0.00  0.00    +0.105 C 
ATOM      9  C   UNL     1      -0.268   6.828  -2.372  0.00  0.00    +0.004 C 
ATOM     10  C   UNL     1      -1.573   7.436  -1.851  0.00  0.00    -0.066 C 
ATOM     11  C   UNL     1      -1.700   7.146  -0.353  0.00  0.00    +0.004 C 
ATOM     12  C   UNL     1      -1.652   5.634  -0.125  0.00  0.00    +0.105 C 
BRANCH  10  18
ATOM     13  C   UNL     1      -0.494   9.530  -1.294  0.00  0.00    -0.078 C 
ATOM     14  C   UNL     1      -0.603  11.050  -1.432  0.00  0.00    -0.018 C 
ATOM     15  C   UNL     1      -0.485  11.433  -2.910  0.00  0.00    +0.002 C 
ATOM     16  C   UNL     1      -1.579  10.714  -3.705  0.00  0.00    -0.002 C 
ATOM     17  C   UNL     1      -1.441   9.203  -3.500  0.00  0.00    -0.073 C 
ATOM     18  N   UNL     1      -1.589   8.898  -2.061  0.00  0.00    +0.382 N 
ATOM     19  H   UNL     1      -2.486   9.273  -1.732  0.00  0.00    -0.081 HD
BRANCH  16  20
ATOM     20  C   UNL     1      -1.431  11.044  -5.191  0.00  0.00    +0.157 C 
BRANCH  20  21
ATOM     21  O   UNL     1      -1.675  12.437  -5.397  0.00  0.00    -0.395 OA
ATOM     22  H   UNL     1      -1.599  12.718  -6.319  0.00  0.00    +0.209 HD
ENDBRANCH  20  21
ENDBRANCH  16  20
ENDBRANCH  10  18
ENDBRANCH   6   7
BRANCH   4  23
ATOM     23  C   UNL     1      -2.418   0.810  -0.253  0.00  0.00    +0.000 A 
ATOM     24  C   UNL     1      -2.340  -0.553   0.039  0.00  0.00    +0.011 A 
ATOM     25  C   UNL     1      -3.463  -1.344  -0.064  0.00  0.00    +0.015 A 
ATOM     26  C   UNL     1      -4.673  -0.787  -0.469  0.00  0.00    +0.008 A 
ATOM     27  C   UNL     1      -4.752   0.570  -0.767  0.00  0.00    +0.015 A 
ATOM     28  C   UNL     1      -3.633   1.366  -0.660  0.00  0.00    +0.011 A 
BRANCH  26  29
ATOM     29  S   UNL     1      -6.106  -1.803  -0.607  0.00  0.00    -0.129 S 
ATOM     30  C   UNL     1      -5.522  -3.452  -0.129  0.00  0.00    +0.090 C 
ENDBRANCH  26  29
ENDBRANCH   4  23
BRANCH   1  33
ATOM     31  C   UNL     1       2.670   3.164   2.334  0.00  0.00    +0.132 C 
ATOM     32  N   UNL     1       2.938   4.132   1.267  0.00  0.00    -0.295 N 
ATOM     33  C   UNL     1       2.168   4.145   0.160  0.00  0.00    +0.250 C 
ATOM     34  O   UNL     1       2.440   4.892  -0.760  0.00  0.00    -0.270 OA
BRANCH  32  35
ATOM     35  C   UNL     1       4.041   5.085   1.403  0.00  0.00    +0.166 C 
BRANCH  35  36
ATOM     36  C   UNL     1       3.542   6.340   2.071  0.00  0.00    +0.101 A 
ATOM     37  C   UNL     1       3.604   6.649   3.449  0.00  0.00    +0.069 A 
ATOM     38  C   UNL     1       3.030   7.873   3.537  0.00  0.00    +0.230 A 
ATOM     39  O   UNL     1       2.676   8.216   2.291  0.00  0.00    -0.363 OA
ATOM     40  N   UNL     1       2.972   7.358   1.492  0.00  0.00    -0.082 NA
ENDBRANCH  35  36
ENDBRANCH  32  35
ENDBRANCH   1  33
TORSDOF 9
