REMARK  Name = ZINC63589160
REMARK  12 active torsions:
REMARK  status: ('A' for Active; 'I' for Inactive)
REMARK    1  A    between atoms: C_1  and  C_2
REMARK    2  A    between atoms: C_5  and  C_35
REMARK    3  A    between atoms: C_6  and  N_8
REMARK    4  A    between atoms: N_10  and  C_11
REMARK    5  A    between atoms: C_11  and  C_12
REMARK    6  A    between atoms: C_12  and  C_13
REMARK    7  A    between atoms: N_22  and  C_23
REMARK    8  A    between atoms: C_23  and  C_25
REMARK    9  A    between atoms: C_28  and  O_33
REMARK   10  A    between atoms: C_29  and  O_31
REMARK   11  A    between atoms: O_31  and  C_32
REMARK   12  A    between atoms: O_33  and  C_34
REMARK                            x       y       z     vdW  Elec       q    Type
REMARK                         _______ _______ _______ _____ _____    ______ ____
ROOT
ATOM      1  N   UNL     1      -0.140  -2.800   2.493  0.00  0.00    -0.328 N 
ATOM      2  C   UNL     1      -0.262  -2.130   3.677  0.00  0.00    +0.194 C 
ATOM      3  N   UNL     1      -0.232  -2.817   4.855  0.00  0.00    -0.357 N 
ATOM      4  N   UNL     1      -0.409  -0.814   3.681  0.00  0.00    -0.143 NA
ATOM      5  H   UNL     1      -0.319  -2.341   5.696  0.00  0.00    +0.162 HD
ATOM      6  H   UNL     1      -0.836  -3.412   2.208  0.00  0.00    +0.169 HD
ENDROOT
BRANCH   1  12
ATOM      7  C   UNL     1       4.016  -0.341   1.566  0.00  0.00    +0.044 C 
ATOM      8  C   UNL     1       3.020  -1.418   1.218  0.00  0.00    -0.048 A 
ATOM      9  C   UNL     1       3.223  -2.213   0.105  0.00  0.00    +0.004 A 
ATOM     10  C   UNL     1       2.312  -3.202  -0.217  0.00  0.00    +0.005 A 
ATOM     11  C   UNL     1       1.196  -3.399   0.573  0.00  0.00    -0.027 A 
ATOM     12  C   UNL     1       0.990  -2.603   1.691  0.00  0.00    +0.045 A 
ATOM     13  C   UNL     1       1.909  -1.614   2.015  0.00  0.00    +0.029 A 
ATOM     14  C   UNL     1       0.204  -4.477   0.221  0.00  0.00    +0.046 C 
ENDBRANCH   1  12
BRANCH   4  15
ATOM     15  C   UNL     1      -0.476  -0.144   2.522  0.00  0.00    +0.270 C 
ATOM     16  O   UNL     1      -0.514  -0.753   1.467  0.00  0.00    -0.268 OA
BRANCH  15  17
ATOM     17  C   UNL     1      -0.503   1.335   2.524  0.00  0.00    +0.043 A 
ATOM     18  C   UNL     1      -0.402   2.035   3.727  0.00  0.00    +0.017 A 
ATOM     19  C   UNL     1      -0.427   3.413   3.728  0.00  0.00    +0.050 A 
ATOM     20  C   UNL     1      -0.554   4.108   2.533  0.00  0.00    +0.162 A 
ATOM     21  C   UNL     1      -0.656   3.415   1.328  0.00  0.00    +0.162 A 
ATOM     22  C   UNL     1      -0.626   2.034   1.321  0.00  0.00    +0.062 A 
BRANCH  21  23
ATOM     23  O   UNL     1      -0.780   4.098   0.159  0.00  0.00    -0.491 OA
ATOM     24  C   UNL     1      -0.990   3.326  -1.025  0.00  0.00    +0.277 C 
ENDBRANCH  21  23
BRANCH  20  25
ATOM     25  O   UNL     1      -0.579   5.466   2.538  0.00  0.00    -0.491 OA
ATOM     26  C   UNL     1      -0.471   6.112   3.808  0.00  0.00    +0.277 C 
ENDBRANCH  20  25
ENDBRANCH  15  17
ENDBRANCH   4  15
BRANCH   3  27
ATOM     27  C   UNL     1      -0.069  -4.272   4.851  0.00  0.00    +0.120 C 
BRANCH  27  28
ATOM     28  C   UNL     1      -0.069  -4.790   6.291  0.00  0.00    +0.054 C 
BRANCH  28  29
ATOM     29  C   UNL     1       0.099  -6.287   6.286  0.00  0.00    -0.040 C 
ATOM     30  C   UNL     1       1.254  -6.977   6.426  0.00  0.00    -0.001 A 
ATOM     31  C   UNL     1       2.647  -6.555   6.616  0.00  0.00    +0.010 A 
ATOM     32  C   UNL     1       3.609  -7.499   6.725  0.00  0.00    +0.001 A 
ATOM     33  C   UNL     1       3.310  -8.867   6.661  0.00  0.00    +0.002 A 
ATOM     34  C   UNL     1       2.054  -9.332   6.489  0.00  0.00    +0.026 A 
ATOM     35  C   UNL     1       0.964  -8.427   6.363  0.00  0.00    +0.043 A 
ATOM     36  N   UNL     1      -0.320  -8.627   6.190  0.00  0.00    -0.380 N 
ATOM     37  C   UNL     1      -0.992  -7.324   6.131  0.00  0.00    +0.144 C 
ATOM     38  H   UNL     1      -0.754  -9.491   6.118  0.00  0.00    +0.160 HD
ENDBRANCH  28  29
ENDBRANCH  27  28
ENDBRANCH   3  27
TORSDOF 8
