REMARK  Name = ZINC14158022
REMARK  11 active torsions:
REMARK  status: ('A' for Active; 'I' for Inactive)
REMARK    1  A    between atoms: C_1  and  C_2
REMARK    2  A    between atoms: C_2  and  N_3
REMARK    3  A    between atoms: N_3  and  C_4
REMARK    4  A    between atoms: C_4  and  N_6
REMARK    5  A    between atoms: C_11  and  C_16
REMARK    6  A    between atoms: C_13  and  C_15
REMARK    7  A    between atoms: N_17  and  C_18
REMARK    8  A    between atoms: C_20  and  C_26
REMARK    9  A    between atoms: C_20  and  C_27
REMARK   10  A    between atoms: C_22  and  C_24
REMARK   11  A    between atoms: C_22  and  C_25
REMARK                            x       y       z     vdW  Elec       q    Type
REMARK                         _______ _______ _______ _____ _____    ______ ____
ROOT
ATOM      1  N   UNL     1       1.391  -3.289  -3.591  0.00  0.00    -0.160 NA
ATOM      2  C   UNL     1       0.272  -3.706  -3.025  0.00  0.00    +0.196 C 
ATOM      3  N   UNL     1       0.321  -4.444  -1.873  0.00  0.00    -0.297 N 
ATOM      4  C   UNL     1      -0.078  -3.880  -0.669  0.00  0.00    +0.231 A 
ATOM      5  N   UNL     1      -0.406  -2.598  -0.634  0.00  0.00    -0.217 NA
ATOM      6  C   UNL     1      -0.791  -2.029   0.497  0.00  0.00    +0.044 A 
ATOM      7  C   UNL     1      -0.848  -2.792   1.652  0.00  0.00    +0.046 A 
ATOM      8  C   UNL     1      -0.498  -4.131   1.579  0.00  0.00    +0.044 A 
ATOM      9  N   UNL     1      -0.127  -4.639   0.415  0.00  0.00    -0.217 NA
ATOM     10  C   UNL     1      -0.545  -5.000   2.810  0.00  0.00    +0.066 C 
ATOM     11  C   UNL     1      -1.162  -0.569   0.528  0.00  0.00    +0.066 C 
ATOM     12  N   UNL     1      -0.933  -3.401  -3.588  0.00  0.00    -0.355 N 
ATOM     13  H   UNL     1       0.635  -5.362  -1.898  0.00  0.00    +0.171 HD
ATOM     14  H   UNL     1      -0.967  -2.932  -4.437  0.00  0.00    +0.163 HD
ENDROOT
BRANCH  12  15
ATOM     15  C   UNL     1      -2.179  -3.782  -2.910  0.00  0.00    +0.079 C 
ATOM     16  C   UNL     1      -2.539  -5.219  -3.292  0.00  0.00    +0.011 C 
ATOM     17  C   UNL     1      -3.841  -5.627  -2.603  0.00  0.00    -0.071 C 
ATOM     18  N   UNL     1      -4.921  -4.691  -2.874  0.00  0.00    +0.386 N 
ATOM     19  C   UNL     1      -4.634  -3.272  -2.742  0.00  0.00    -0.071 C 
ATOM     20  C   UNL     1      -3.308  -2.865  -3.377  0.00  0.00    +0.011 C 
ATOM     21  C   UNL     1      -5.753  -2.501  -3.483  0.00  0.00    -0.010 C 
ATOM     22  C   UNL     1      -4.673  -2.819  -1.280  0.00  0.00    -0.010 C 
ATOM     23  C   UNL     1      -3.608  -5.820  -1.105  0.00  0.00    -0.010 C 
ATOM     24  C   UNL     1      -4.255  -6.999  -3.183  0.00  0.00    -0.010 C 
ATOM     25  H   UNL     1      -5.264  -4.863  -3.822  0.00  0.00    -0.084 HD
ATOM     26  H   UNL     1      -5.706  -4.919  -2.259  0.00  0.00    -0.084 HD
ENDBRANCH  12  15
BRANCH   1  27
ATOM     27  C   UNL     1       2.569  -3.509  -2.990  0.00  0.00    +0.157 C 
ATOM     28  S   UNL     1       2.642  -4.474  -1.577  0.00  0.00    -0.017 S 
BRANCH  27  29
ATOM     29  N   UNL     1       3.695  -2.970  -3.497  0.00  0.00    -0.325 N 
ATOM     30  H   UNL     1       3.649  -2.389  -4.273  0.00  0.00    +0.148 HD
BRANCH  29  32
ATOM     31  C   UNL     1       6.108  -2.631  -3.710  0.00  0.00    +0.024 C 
ATOM     32  C   UNL     1       4.990  -3.260  -2.876  0.00  0.00    +0.100 C 
ENDBRANCH  29  32
ENDBRANCH  27  29
ENDBRANCH   1  27
TORSDOF 4
