REMARK  Name = ZINC60163337
REMARK  9 active torsions:
REMARK  status: ('A' for Active; 'I' for Inactive)
REMARK    1  A    between atoms: C_1  and  C_2
REMARK    2  A    between atoms: C_2  and  C_3
REMARK    3  A    between atoms: C_2  and  C_4
REMARK    4  A    between atoms: C_4  and  O_5
REMARK    5  A    between atoms: O_5  and  C_6
REMARK    6  A    between atoms: N_8  and  C_9
REMARK    7  A    between atoms: C_13  and  N_15
REMARK    8  A    between atoms: C_16  and  C_18
REMARK    9  A    between atoms: C_21  and  C_26
REMARK                            x       y       z     vdW  Elec       q    Type
REMARK                         _______ _______ _______ _____ _____    ______ ____
ROOT
ATOM      1  N   UNL     1      -7.901  -0.531  -5.350  0.00  0.00    -0.281 N 
ATOM      2  C   UNL     1      -9.160  -0.954  -5.578  0.00  0.00    +0.253 C 
ATOM      3  O   UNL     1      -9.727  -1.651  -4.757  0.00  0.00    -0.270 OA
ATOM      4  H   UNL     1      -7.408  -0.074  -6.050  0.00  0.00    +0.155 HD
ENDROOT
BRANCH   2   5
ATOM      5  C   UNL     1      -9.848  -0.573  -6.817  0.00  0.00    +0.101 A 
ATOM      6  C   UNL     1     -11.211  -0.846  -6.981  0.00  0.00    +0.020 A 
ATOM      7  C   UNL     1     -11.837  -0.476  -8.160  0.00  0.00    +0.030 A 
ATOM      8  C   UNL     1     -11.109   0.157  -9.160  0.00  0.00    +0.085 A 
ATOM      9  N   UNL     1      -9.777   0.421  -8.994  0.00  0.00    -0.319 N 
ATOM     10  H   UNL     1      -9.284   0.863  -9.703  0.00  0.00    +0.169 HD
ATOM     11  C   UNL     1      -9.142   0.079  -7.857  0.00  0.00    +0.261 A 
ATOM     12  O   UNL     1      -7.956   0.327  -7.724  0.00  0.00    -0.267 OA
BRANCH   8  13
ATOM     13  C   UNL     1     -11.775   0.546 -10.405  0.00  0.00    +0.151 A 
ATOM     14  C   UNL     1     -11.187   1.167 -11.471  0.00  0.00    +0.051 A 
ATOM     15  C   UNL     1     -12.189   1.347 -12.437  0.00  0.00    +0.042 A 
ATOM     16  C   UNL     1     -13.331   0.835 -11.926  0.00  0.00    +0.196 A 
ATOM     17  O   UNL     1     -13.076   0.348 -10.703  0.00  0.00    -0.461 OA
ENDBRANCH   8  13
ENDBRANCH   2   5
BRANCH   1  22
ATOM     18  C   UNL     1      -5.662  -0.173  -2.451  0.00  0.00    +0.038 A 
ATOM     19  C   UNL     1      -6.127  -1.197  -1.635  0.00  0.00    +0.023 A 
ATOM     20  C   UNL     1      -7.175  -1.994  -2.054  0.00  0.00    +0.004 A 
ATOM     21  C   UNL     1      -7.764  -1.775  -3.285  0.00  0.00    +0.023 A 
ATOM     22  C   UNL     1      -7.304  -0.752  -4.105  0.00  0.00    +0.035 A 
ATOM     23  C   UNL     1      -6.255   0.053  -3.684  0.00  0.00    +0.046 A 
BRANCH  18  26
ATOM     24  C   UNL     1      -3.592   0.098  -1.310  0.00  0.00    +0.405 C 
ATOM     25  O   UNL     1      -3.612  -1.082  -1.021  0.00  0.00    -0.226 OA
ATOM     26  N   UNL     1      -4.600   0.634  -2.026  0.00  0.00    -0.251 N 
ATOM     27  H   UNL     1      -4.590   1.578  -2.246  0.00  0.00    +0.158 HD
BRANCH  24  28
ATOM     28  O   UNL     1      -2.562   0.871  -0.914  0.00  0.00    -0.450 OA
BRANCH  28  29
ATOM     29  C   UNL     1      -1.528   0.237  -0.159  0.00  0.00    +0.236 C 
BRANCH  29  31
ATOM     30  C   UNL     1      -1.048   2.322   1.131  0.00  0.00    +0.010 C 
ATOM     31  C   UNL     1      -0.453   1.266   0.197  0.00  0.00    +0.021 C 
ATOM     32  C   UNL     1       0.712   0.564   0.897  0.00  0.00    +0.010 C 
ENDBRANCH  29  31
ENDBRANCH  28  29
ENDBRANCH  24  28
ENDBRANCH  18  26
ENDBRANCH   1  22
TORSDOF 7
