REMARK  Name = ZINC12716796
REMARK  12 active torsions:
REMARK  status: ('A' for Active; 'I' for Inactive)
REMARK    1  A    between atoms: C_1  and  C_2
REMARK    2  A    between atoms: C_5  and  C_7
REMARK    3  A    between atoms: N_10  and  C_12
REMARK    4  A    between atoms: C_12  and  C_13
REMARK    5  A    between atoms: N_15  and  C_16
REMARK    6  A    between atoms: N_15  and  C_22
REMARK    7  A    between atoms: C_16  and  C_17
REMARK    8  A    between atoms: C_22  and  C_24
REMARK    9  A    between atoms: C_22  and  C_30
REMARK   10  A    between atoms: C_27  and  C_29
REMARK   11  A    between atoms: N_32  and  C_33
REMARK   12  A    between atoms: C_33  and  C_34
REMARK                            x       y       z     vdW  Elec       q    Type
REMARK                         _______ _______ _______ _____ _____    ______ ____
ROOT
ATOM      1  C   UNL     1      -1.356  -2.937   0.879  0.00  0.00    +0.240 C 
ATOM      2  O   UNL     1      -2.309  -2.613   1.554  0.00  0.00    -0.273 OA
ATOM      3  N   UNL     1      -0.798  -2.050   0.031  0.00  0.00    -0.277 N 
ENDROOT
BRANCH   1   4
ATOM      4  C   UNL     1      -0.795  -4.331   0.987  0.00  0.00    +0.264 C 
BRANCH   4   8
ATOM      5  C   UNL     1      -1.698  -5.701   4.112  0.00  0.00    +0.239 A 
ATOM      6  N   UNL     1      -2.686  -6.153   3.324  0.00  0.00    -0.105 NA
ATOM      7  N   UNL     1      -2.459  -5.708   2.135  0.00  0.00    -0.045 NA
ATOM      8  N   UNL     1      -1.381  -5.005   2.148  0.00  0.00    -0.154 N 
ATOM      9  N   UNL     1      -0.895  -4.990   3.342  0.00  0.00    -0.127 NA
BRANCH   5  14
ATOM     10  C   UNL     1       0.187  -5.622   8.765  0.00  0.00    +0.086 C 
ATOM     11  C   UNL     1      -0.716  -5.924   7.597  0.00  0.00    +0.103 A 
ATOM     12  C   UNL     1      -1.837  -6.670   7.643  0.00  0.00    +0.045 A 
ATOM     13  C   UNL     1      -2.373  -6.691   6.339  0.00  0.00    +0.053 A 
ATOM     14  C   UNL     1      -1.536  -5.955   5.560  0.00  0.00    +0.175 A 
ATOM     15  O   UNL     1      -0.537  -5.494   6.337  0.00  0.00    -0.457 OA
ENDBRANCH   5  14
ENDBRANCH   4   8
ENDBRANCH   1   4
BRANCH   3  16
ATOM     16  C   UNL     1       0.275  -2.474  -0.872  0.00  0.00    +0.151 C 
BRANCH  16  17
ATOM     17  C   UNL     1      -0.279  -3.431  -1.895  0.00  0.00    +0.007 A 
ATOM     18  C   UNL     1      -0.790  -3.167  -3.123  0.00  0.00    +0.013 A 
ATOM     19  C   UNL     1      -1.241  -4.216  -3.901  0.00  0.00    +0.008 A 
ATOM     20  C   UNL     1      -1.170  -5.477  -3.410  0.00  0.00    +0.045 A 
ATOM     21  S   UNL     1      -0.439  -5.207  -1.803  0.00  0.00    -0.100 S 
ENDBRANCH  16  17
ENDBRANCH   3  16
BRANCH   3  22
ATOM     22  C   UNL     1      -1.264  -0.661   0.012  0.00  0.00    +0.228 C 
BRANCH  22  23
ATOM     23  C   UNL     1      -1.587  -0.259  -1.404  0.00  0.00    +0.135 A 
ATOM     24  C   UNL     1      -2.637   0.487  -1.790  0.00  0.00    +0.047 A 
ATOM     25  C   UNL     1      -2.551   0.621  -3.195  0.00  0.00    +0.045 A 
ATOM     26  C   UNL     1      -1.457  -0.059  -3.584  0.00  0.00    +0.102 A 
ATOM     27  O   UNL     1      -0.877  -0.590  -2.495  0.00  0.00    -0.462 OA
ATOM     28  C   UNL     1      -0.967  -0.201  -5.002  0.00  0.00    +0.086 C 
ENDBRANCH  22  23
BRANCH  22  29
ATOM     29  C   UNL     1      -0.185   0.239   0.557  0.00  0.00    +0.241 C 
ATOM     30  O   UNL     1       0.966  -0.141   0.581  0.00  0.00    -0.273 OA
ATOM     31  N   UNL     1      -0.500   1.466   1.017  0.00  0.00    -0.311 N 
ATOM     32  H   UNL     1      -1.421   1.771   0.995  0.00  0.00    +0.149 HD
BRANCH  31  33
ATOM     33  C   UNL     1       0.549   2.341   1.547  0.00  0.00    +0.135 C 
BRANCH  33  34
ATOM     34  C   UNL     1      -0.071   3.664   1.999  0.00  0.00    +0.135 C 
ATOM     35  C   UNL     1       1.028   4.636   2.482  0.00  0.00    +0.035 C 
ATOM     36  C   UNL     1       0.383   5.369   3.679  0.00  0.00    +0.031 C 
ATOM     37  C   UNL     1      -1.031   4.754   3.778  0.00  0.00    +0.160 C 
ATOM     38  O   UNL     1      -0.915   3.456   3.153  0.00  0.00    -0.375 OA
ENDBRANCH  33  34
ENDBRANCH  31  33
ENDBRANCH  22  29
ENDBRANCH   3  22
TORSDOF 10
