REMARK  Name = ZINC19864037
REMARK  4 active torsions:
REMARK  status: ('A' for Active; 'I' for Inactive)
REMARK    1  A    between atoms: C_1  and  C_2
REMARK    2  A    between atoms: C_3  and  C_12
REMARK    3  A    between atoms: C_12  and  C_14
REMARK    4  A    between atoms: C_12  and  N_23
REMARK                            x       y       z     vdW  Elec       q    Type
REMARK                         _______ _______ _______ _____ _____    ______ ____
ROOT
ATOM      1  C   UNL     1       2.912  -0.456   2.331  0.00  0.00    +0.120 C 
ENDROOT
BRANCH   1   4
ATOM      2  C   UNL     1       5.676  -1.853   2.536  0.00  0.00    +0.063 C 
ATOM      3  C   UNL     1       5.456  -0.383   2.289  0.00  0.00    +0.019 A 
ATOM      4  C   UNL     1       4.256   0.212   2.202  0.00  0.00    +0.002 A 
ATOM      5  C   UNL     1       4.501   1.635   1.952  0.00  0.00    +0.005 A 
ATOM      6  C   UNL     1       3.674   2.746   1.779  0.00  0.00    +0.010 A 
ATOM      7  C   UNL     1       4.227   3.977   1.564  0.00  0.00    +0.001 A 
ATOM      8  C   UNL     1       5.606   4.132   1.521  0.00  0.00    +0.002 A 
ATOM      9  C   UNL     1       6.441   3.050   1.696  0.00  0.00    +0.026 A 
ATOM     10  C   UNL     1       5.899   1.788   1.916  0.00  0.00    +0.047 A 
ATOM     11  N   UNL     1       6.449   0.542   2.121  0.00  0.00    -0.358 N 
ATOM     12  H   UNL     1       7.503   0.231   2.161  0.00  0.00    +0.166 HD
ENDBRANCH   1   4
BRANCH   1  13
ATOM     13  C   UNL     1       2.331  -0.159   3.690  0.00  0.00    -0.022 A 
ATOM     14  C   UNL     1       1.739   1.067   3.933  0.00  0.00    +0.009 A 
ATOM     15  C   UNL     1       1.205   1.344   5.178  0.00  0.00    +0.050 A 
ATOM     16  C   UNL     1       1.261   0.394   6.184  0.00  0.00    +0.166 A 
ATOM     17  C   UNL     1       1.857  -0.841   5.939  0.00  0.00    +0.167 A 
ATOM     18  C   UNL     1       2.386  -1.114   4.688  0.00  0.00    +0.055 A 
ATOM     19  O   UNL     1       1.786  -1.593   7.075  0.00  0.00    -0.453 OA
ATOM     20  C   UNL     1       0.781  -0.963   7.892  0.00  0.00    +0.466 C 
ATOM     21  O   UNL     1       0.817   0.415   7.475  0.00  0.00    -0.453 OA
ENDBRANCH   1  13
BRANCH   1  22
ATOM     22  N   UNL     1       2.009   0.053   1.290  0.00  0.00    -0.287 NA
ATOM     23  C   UNL     1       2.526  -0.253  -0.051  0.00  0.00    +0.113 C 
ATOM     24  C   UNL     1       1.588   0.346  -1.103  0.00  0.00    +0.175 C 
ATOM     25  O   UNL     1       0.267  -0.163  -0.902  0.00  0.00    -0.377 OA
ATOM     26  C   UNL     1      -0.268   0.118   0.395  0.00  0.00    +0.175 C 
ATOM     27  C   UNL     1       0.651  -0.484   1.461  0.00  0.00    +0.113 C 
ENDBRANCH   1  22
TORSDOF 3
