REMARK  Name = ZINC09588037
REMARK  7 active torsions:
REMARK  status: ('A' for Active; 'I' for Inactive)
REMARK    1  A    between atoms: N_9  and  C_25
REMARK    2  A    between atoms: C_10  and  S_12
REMARK    3  A    between atoms: S_12  and  C_13
REMARK    4  A    between atoms: C_13  and  C_14
REMARK    5  A    between atoms: N_19  and  C_20
REMARK    6  A    between atoms: C_25  and  C_26
REMARK    7  A    between atoms: C_26  and  C_27
REMARK                            x       y       z     vdW  Elec       q    Type
REMARK                         _______ _______ _______ _____ _____    ______ ____
ROOT
ATOM      1  C   UNL     1       1.063  -4.232  12.232  0.00  0.00    +0.001 A 
ATOM      2  C   UNL     1       1.125  -4.503  10.872  0.00  0.00    +0.002 A 
ATOM      3  C   UNL     1       0.831  -3.540   9.948  0.00  0.00    +0.028 A 
ATOM      4  C   UNL     1       0.463  -2.261  10.376  0.00  0.00    +0.079 A 
ATOM      5  C   UNL     1       0.401  -1.988  11.762  0.00  0.00    +0.065 A 
ATOM      6  C   UNL     1       0.706  -2.990  12.682  0.00  0.00    +0.015 A 
ATOM      7  C   UNL     1       0.011  -0.637  12.186  0.00  0.00    +0.262 A 
ATOM      8  O   UNL     1      -0.060  -0.341  13.365  0.00  0.00    -0.267 OA
ATOM      9  N   UNL     1      -0.267   0.266  11.218  0.00  0.00    -0.287 N 
ATOM     10  C   UNL     1      -0.181  -0.083   9.900  0.00  0.00    +0.173 A 
ATOM     11  N   UNL     1       0.160  -1.283   9.499  0.00  0.00    -0.223 NA
ENDROOT
BRANCH  10  12
ATOM     12  S   UNL     1      -0.554   1.135   8.683  0.00  0.00    -0.078 S 
BRANCH  12  13
ATOM     13  C   UNL     1      -0.289   0.166   7.177  0.00  0.00    +0.173 C 
BRANCH  13  14
ATOM     14  C   UNL     1      -0.557   1.028   5.971  0.00  0.00    +0.231 C 
ATOM     15  O   UNL     1      -0.894   2.184   6.115  0.00  0.00    -0.274 OA
ATOM     16  N   UNL     1      -0.423   0.515   4.732  0.00  0.00    -0.239 N 
ATOM     17  C   UNL     1      -0.663   1.286   3.653  0.00  0.00    +0.306 C 
ATOM     18  O   UNL     1      -1.000   2.444   3.797  0.00  0.00    -0.252 OA
ATOM     19  N   UNL     1      -0.528   0.772   2.414  0.00  0.00    -0.296 N 
ATOM     20  H   UNL     1      -0.153  -0.410   4.617  0.00  0.00    +0.159 HD
ATOM     21  H   UNL     1      -0.258  -0.152   2.299  0.00  0.00    +0.151 HD
BRANCH  19  22
ATOM     22  C   UNL     1      -0.789   1.611   1.242  0.00  0.00    +0.074 C 
ATOM     23  C   UNL     1      -0.013   1.086   0.008  0.00  0.00    +0.022 C 
ATOM     24  C   UNL     1      -0.809   1.622  -1.200  0.00  0.00    +0.002 C 
ATOM     25  C   UNL     1      -2.243   1.875  -0.703  0.00  0.00    +0.002 C 
ATOM     26  C   UNL     1      -2.268   1.485   0.789  0.00  0.00    +0.022 C 
ENDBRANCH  19  22
ENDBRANCH  13  14
ENDBRANCH  12  13
ENDBRANCH  10  12
BRANCH   9  27
ATOM     27  C   UNL     1      -0.661   1.629  11.585  0.00  0.00    +0.131 C 
BRANCH  27  28
ATOM     28  C   UNL     1      -2.183   1.698  11.731  0.00  0.00    +0.052 C 
BRANCH  28  29
ATOM     29  C   UNL     1      -2.588   3.099  12.108  0.00  0.00    -0.072 C 
ATOM     30  C   UNL     1      -2.940   3.906  11.159  0.00  0.00    -0.028 C 
ATOM     31  C   UNL     1      -3.359   5.330  11.379  0.00  0.00    +0.027 C 
ATOM     32  C   UNL     1      -3.716   5.554  12.850  0.00  0.00    +0.004 C 
ATOM     33  C   UNL     1      -2.580   4.995  13.716  0.00  0.00    +0.005 C 
ATOM     34  C   UNL     1      -2.564   3.471  13.562  0.00  0.00    +0.030 C 
ENDBRANCH  28  29
ENDBRANCH  27  28
ENDBRANCH   9  27
TORSDOF 7
