REMARK  Name = ZINC61874793
REMARK  4 active torsions:
REMARK  status: ('A' for Active; 'I' for Inactive)
REMARK    1  A    between atoms: C_1  and  C_2
REMARK    2  A    between atoms: C_10  and  N_13
REMARK    3  A    between atoms: N_13  and  S_14
REMARK    4  A    between atoms: S_14  and  N_17
REMARK                            x       y       z     vdW  Elec       q    Type
REMARK                         _______ _______ _______ _____ _____    ______ ____
ROOT
ATOM      1  C   UNL     1       0.351   1.766  -0.004  0.00  0.00    +0.028 C 
ATOM      2  C   UNL     1       0.392   0.242  -0.135  0.00  0.00    +0.068 C 
ATOM      3  C   UNL     1      -1.029  -0.302  -0.331  0.00  0.00    +0.026 C 
ATOM      4  C   UNL     1      -0.956  -1.816  -0.527  0.00  0.00    +0.039 C 
ATOM      5  C   UNL     1      -0.150  -2.453   0.574  0.00  0.00    -0.025 A 
ATOM      6  C   UNL     1      -0.319  -3.805   0.832  0.00  0.00    +0.005 A 
ATOM      7  C   UNL     1       0.405  -4.422   1.832  0.00  0.00    +0.002 A 
ATOM      8  C   UNL     1       1.308  -3.696   2.587  0.00  0.00    +0.026 A 
ATOM      9  C   UNL     1       1.484  -2.344   2.339  0.00  0.00    +0.070 A 
ATOM     10  C   UNL     1       0.749  -1.720   1.328  0.00  0.00    +0.053 A 
ATOM     11  N   UNL     1       0.934  -0.349   1.096  0.00  0.00    -0.340 N 
ATOM     12  H   UNL     1       1.411   0.200   1.738  0.00  0.00    +0.146 HD
ENDROOT
BRANCH   9  13
ATOM     13  N   UNL     1       2.396  -1.604   3.100  0.00  0.00    -0.205 N 
ATOM     14  H   UNL     1       2.202  -0.682   3.329  0.00  0.00    +0.175 HD
BRANCH  13  15
ATOM     15  S   UNL     1       3.807  -2.304   3.611  0.00  0.00    +0.112 S 
ATOM     16  O   UNL     1       4.573  -1.275   4.223  0.00  0.00    -0.138 OA
ATOM     17  O   UNL     1       3.445  -3.494   4.298  0.00  0.00    -0.138 OA
BRANCH  15  18
ATOM     18  N   UNL     1       4.640  -2.772   2.259  0.00  0.00    -0.164 NA
ATOM     19  C   UNL     1       4.524  -4.077   1.591  0.00  0.00    +0.111 C 
ATOM     20  C   UNL     1       5.502  -4.068   0.397  0.00  0.00    +0.018 C 
ATOM     21  C   UNL     1       6.525  -2.971   0.793  0.00  0.00    +0.018 C 
ATOM     22  C   UNL     1       5.614  -1.948   1.521  0.00  0.00    +0.111 C 
ENDBRANCH  15  18
ENDBRANCH  13  15
ENDBRANCH   9  13
TORSDOF 3
