REMARK  Name = ZINC09075731
REMARK  14 active torsions:
REMARK  status: ('A' for Active; 'I' for Inactive)
REMARK    1  A    between atoms: C_1  and  C_2
REMARK    2  A    between atoms: C_2  and  C_3
REMARK    3  A    between atoms: C_8  and  C_24
REMARK    4  A    between atoms: C_12  and  C_15
REMARK    5  A    between atoms: C_13  and  O_14
REMARK    6  A    between atoms: C_15  and  N_66
REMARK    7  A    between atoms: C_16  and  C_17
REMARK    8  A    between atoms: C_16  and  N_66
REMARK    9  A    between atoms: C_17  and  C_18
REMARK   10  A    between atoms: C_17  and  C_19
REMARK   11  A    between atoms: C_20  and  C_21
REMARK   12  A    between atoms: C_20  and  N_66
REMARK   13  A    between atoms: C_21  and  C_22
REMARK   14  A    between atoms: C_21  and  C_23
REMARK                            x       y       z     vdW  Elec       q    Type
REMARK                         _______ _______ _______ _____ _____    ______ ____
ROOT
ATOM      1  C   UNL     1       1.792   0.394   0.158  0.00  0.00    -0.005 A 
ATOM      2  C   UNL     1       1.562  -0.941   0.330  0.00  0.00    +0.022 A 
ATOM      3  C   UNL     1       0.252  -1.421   0.353  0.00  0.00    +0.065 A 
ATOM      4  C   UNL     1      -0.034  -2.855   0.537  0.00  0.00    +0.203 A 
ATOM      5  O   UNL     1       0.860  -3.672   0.674  0.00  0.00    -0.286 OA
ATOM      6  C   UNL     1      -1.454  -3.253   0.548  0.00  0.00    +0.099 A 
ATOM      7  C   UNL     1      -2.403  -2.289   0.389  0.00  0.00    +0.211 A 
ATOM      8  O   UNL     1      -2.097  -1.002   0.226  0.00  0.00    -0.462 OA
ATOM      9  C   UNL     1      -0.832  -0.538   0.202  0.00  0.00    +0.143 A 
ATOM     10  C   UNL     1      -0.580   0.817   0.028  0.00  0.00    +0.021 A 
ATOM     11  C   UNL     1       0.726   1.277   0.006  0.00  0.00    +0.125 A 
ENDROOT
BRANCH   6  12
ATOM     12  C   UNL     1      -1.838  -4.667   0.726  0.00  0.00    +0.146 A 
ATOM     13  N   UNL     1      -3.124  -5.137   0.750  0.00  0.00    -0.338 N 
ATOM     14  H   UNL     1      -3.957  -4.592   0.652  0.00  0.00    +0.167 HD
ATOM     15  C   UNL     1      -3.056  -6.505   0.936  0.00  0.00    +0.066 A 
ATOM     16  C   UNL     1      -4.007  -7.511   1.042  0.00  0.00    +0.028 A 
ATOM     17  C   UNL     1      -3.603  -8.816   1.228  0.00  0.00    +0.002 A 
ATOM     18  C   UNL     1      -2.254  -9.130   1.311  0.00  0.00    +0.002 A 
ATOM     19  C   UNL     1      -1.304  -8.153   1.210  0.00  0.00    +0.030 A 
ATOM     20  C   UNL     1      -1.690  -6.823   1.020  0.00  0.00    +0.089 A 
ATOM     21  N   UNL     1      -0.999  -5.664   0.880  0.00  0.00    -0.228 NA
ENDBRANCH   6  12
BRANCH   1  23
ATOM     22  C   UNL     1       3.598   1.398   1.529  0.00  0.00    +0.009 C 
ATOM     23  C   UNL     1       3.206   0.914   0.132  0.00  0.00    +0.035 C 
ENDBRANCH   1  23
BRANCH  11  24
ATOM     24  O   UNL     1       0.969   2.602  -0.165  0.00  0.00    -0.506 OA
ATOM     25  H   UNL     1       1.012   3.103   0.660  0.00  0.00    +0.292 HD
ENDBRANCH  11  24
BRANCH  10  26
ATOM     26  C   UNL     1      -1.725   1.782  -0.143  0.00  0.00    -0.036 C 
BRANCH  26  27
ATOM     27  N   UNL     1      -2.122   2.292   1.185  0.00  0.00    +0.383 N 
ATOM     28  H   UNL     1      -1.303   2.712   1.640  0.00  0.00    -0.081 HD
BRANCH  27  29
ATOM     29  C   UNL     1      -3.170   3.325   1.037  0.00  0.00    -0.075 C 
BRANCH  29  30
ATOM     30  C   UNL     1      -2.494   4.672   0.774  0.00  0.00    -0.034 C 
ATOM     31  C   UNL     1      -1.799   4.636  -0.588  0.00  0.00    +0.005 C 
ATOM     32  C   UNL     1      -3.548   5.781   0.780  0.00  0.00    +0.005 C 
ENDBRANCH  29  30
ENDBRANCH  27  29
BRANCH  27  33
ATOM     33  C   UNL     1      -2.621   1.183   2.025  0.00  0.00    -0.075 C 
BRANCH  33  34
ATOM     34  C   UNL     1      -2.740   1.673   3.469  0.00  0.00    -0.034 C 
ATOM     35  C   UNL     1      -3.342   0.565   4.335  0.00  0.00    +0.005 C 
ATOM     36  C   UNL     1      -1.353   2.038   4.000  0.00  0.00    +0.005 C 
ENDBRANCH  33  34
ENDBRANCH  27  33
ENDBRANCH  26  27
ENDBRANCH  10  26
TORSDOF 9
