REMARK  Name = ZINC27521455
REMARK  6 active torsions:
REMARK  status: ('A' for Active; 'I' for Inactive)
REMARK    1  A    between atoms: C_1  and  C_2
REMARK    2  A    between atoms: C_7  and  N_8
REMARK    3  A    between atoms: C_9  and  C_11
REMARK    4  A    between atoms: C_11  and  N_22
REMARK    5  A    between atoms: C_12  and  C_13
REMARK    6  A    between atoms: C_23  and  C_25
REMARK                            x       y       z     vdW  Elec       q    Type
REMARK                         _______ _______ _______ _____ _____    ______ ____
ROOT
ATOM      1  C   UNL     1      -0.830   1.879  -0.004  0.00  0.00    +0.097 C 
ATOM      2  C   UNL     1       0.408   1.359   0.171  0.00  0.00    +0.036 C 
ENDROOT
BRANCH   2   3
ATOM      3  C   UNL     1       1.588   2.233   0.110  0.00  0.00    -0.019 A 
ATOM      4  C   UNL     1       1.625   3.300  -0.795  0.00  0.00    +0.012 A 
ATOM      5  C   UNL     1       2.730   4.121  -0.846  0.00  0.00    +0.050 A 
ATOM      6  C   UNL     1       3.814   3.888  -0.010  0.00  0.00    +0.166 A 
ATOM      7  C   UNL     1       3.787   2.822   0.890  0.00  0.00    +0.167 A 
ATOM      8  C   UNL     1       2.681   1.998   0.952  0.00  0.00    +0.057 A 
ATOM      9  O   UNL     1       4.961   2.811   1.587  0.00  0.00    -0.453 OA
ATOM     10  C   UNL     1       5.534   4.118   1.394  0.00  0.00    +0.466 C 
ATOM     11  O   UNL     1       5.005   4.541   0.124  0.00  0.00    -0.453 OA
ENDBRANCH   2   3
BRANCH   1  13
ATOM     12  N   UNL     1      -0.909   4.148   0.888  0.00  0.00    -0.280 N 
ATOM     13  C   UNL     1      -1.000   3.327  -0.177  0.00  0.00    +0.262 C 
ATOM     14  O   UNL     1      -1.223   3.786  -1.282  0.00  0.00    -0.268 OA
ATOM     15  H   UNL     1      -0.636   3.743   1.873  0.00  0.00    +0.155 HD
BRANCH  12  22
ATOM     16  C   UNL     1       0.107   5.923   2.865  0.00  0.00    +0.046 C 
ATOM     17  C   UNL     1      -0.684   6.417   1.682  0.00  0.00    -0.028 A 
ATOM     18  C   UNL     1      -0.930   7.768   1.530  0.00  0.00    +0.025 A 
ATOM     19  C   UNL     1      -1.661   8.222   0.448  0.00  0.00    +0.041 A 
ATOM     20  C   UNL     1      -2.144   7.325  -0.490  0.00  0.00    +0.022 A 
ATOM     21  C   UNL     1      -1.896   5.974  -0.346  0.00  0.00    +0.025 A 
ATOM     22  C   UNL     1      -1.162   5.516   0.740  0.00  0.00    +0.037 A 
ATOM     23 CL   UNL     1      -1.974   9.919   0.264  0.00  0.00    -0.084 Cl
ENDBRANCH  12  22
ENDBRANCH   1  13
BRANCH   1  24
ATOM     24  N   UNL     1      -1.947   1.036  -0.021  0.00  0.00    -0.277 N 
ATOM     25  C   UNL     1      -3.180   1.556  -0.180  0.00  0.00    +0.250 C 
ATOM     26  O   UNL     1      -3.315   2.742  -0.411  0.00  0.00    -0.270 OA
ATOM     27  H   UNL     1      -1.818  -0.050   0.097  0.00  0.00    +0.155 HD
BRANCH  25  28
ATOM     28  C   UNL     1      -4.368   0.684  -0.074  0.00  0.00    +0.055 A 
ATOM     29  C   UNL     1      -4.216  -0.680   0.185  0.00  0.00    +0.014 A 
ATOM     30  C   UNL     1      -5.330  -1.488   0.288  0.00  0.00    +0.001 A 
ATOM     31  C   UNL     1      -6.595  -0.952   0.123  0.00  0.00    +0.001 A 
ATOM     32  C   UNL     1      -6.754   0.396  -0.139  0.00  0.00    +0.021 A 
ATOM     33  C   UNL     1      -5.648   1.218  -0.239  0.00  0.00    +0.053 A 
ATOM     34 CL   UNL     1      -5.849   2.911  -0.570  0.00  0.00    -0.083 Cl
ENDBRANCH  25  28
ENDBRANCH   1  24
TORSDOF 5
