REMARK  Name = ZINC14739343
REMARK  14 active torsions:
REMARK  status: ('A' for Active; 'I' for Inactive)
REMARK    1  A    between atoms: C_1  and  C_2
REMARK    2  A    between atoms: C_2  and  N_3
REMARK    3  A    between atoms: C_7  and  S_27
REMARK    4  A    between atoms: C_11  and  C_12
REMARK    5  A    between atoms: C_12  and  C_13
REMARK    6  A    between atoms: C_13  and  C_14
REMARK    7  A    between atoms: N_16  and  C_17
REMARK    8  A    between atoms: C_18  and  C_26
REMARK    9  A    between atoms: C_22  and  C_23
REMARK   10  A    between atoms: C_23  and  C_24
REMARK   11  A    between atoms: C_23  and  C_25
REMARK   12  A    between atoms: S_27  and  N_30
REMARK   13  A    between atoms: N_30  and  C_31
REMARK   14  A    between atoms: N_30  and  C_32
REMARK                            x       y       z     vdW  Elec       q    Type
REMARK                         _______ _______ _______ _____ _____    ______ ____
ROOT
ATOM      1  N   UNL     1      -1.028   1.779   2.636  0.00  0.00    -0.328 N 
ATOM      2  C   UNL     1       0.105   2.515   2.920  0.00  0.00    +0.069 A 
ATOM      3  C   UNL     1       1.053   2.478   3.933  0.00  0.00    +0.030 A 
ATOM      4  C   UNL     1       2.095   3.381   3.926  0.00  0.00    +0.030 A 
ATOM      5  C   UNL     1       2.201   4.325   2.914  0.00  0.00    +0.108 A 
ATOM      6  C   UNL     1       1.282   4.370   1.905  0.00  0.00    +0.058 A 
ATOM      7  C   UNL     1       0.215   3.469   1.893  0.00  0.00    +0.091 A 
ATOM      8  N   UNL     1      -0.839   3.275   1.059  0.00  0.00    -0.232 NA
ATOM      9  C   UNL     1      -1.565   2.287   1.494  0.00  0.00    +0.111 A 
ENDROOT
BRANCH   5  10
ATOM     10  S   UNL     1       3.542   5.468   2.926  0.00  0.00    +0.060 S 
ATOM     11  O   UNL     1       3.118   6.598   2.175  0.00  0.00    -0.153 OA
ATOM     12  O   UNL     1       3.977   5.570   4.275  0.00  0.00    -0.153 OA
BRANCH  10  13
ATOM     13  N   UNL     1       4.784   4.776   2.078  0.00  0.00    -0.183 NA
ATOM     14  C   UNL     1       4.896   4.993   0.634  0.00  0.00    +0.131 C 
ATOM     15  C   UNL     1       5.771   3.945   2.773  0.00  0.00    +0.131 C 
ENDBRANCH  10  13
ENDBRANCH   5  10
BRANCH   1  17
ATOM     16  C   UNL     1      -0.955  -0.649   2.915  0.00  0.00    +0.027 C 
ATOM     17  C   UNL     1      -1.557   0.662   3.422  0.00  0.00    +0.120 C 
ENDBRANCH   1  17
BRANCH   9  18
ATOM     18  C   UNL     1      -2.819   1.780   0.829  0.00  0.00    +0.083 C 
BRANCH  18  19
ATOM     19  C   UNL     1      -4.031   2.530   1.385  0.00  0.00    +0.104 C 
BRANCH  19  20
ATOM     20  C   UNL     1      -5.285   2.023   0.721  0.00  0.00    +0.218 C 
ATOM     21  O   UNL     1      -5.216   1.147  -0.115  0.00  0.00    -0.275 OA
ATOM     22  N   UNL     1      -6.482   2.542   1.056  0.00  0.00    -0.285 N 
ATOM     23  H   UNL     1      -6.544   3.204   1.761  0.00  0.00    +0.155 HD
BRANCH  22  24
ATOM     24  C   UNL     1      -7.638   2.125   0.385  0.00  0.00    +0.040 A 
ATOM     25  C   UNL     1      -7.688   2.159  -1.002  0.00  0.00    -0.029 A 
ATOM     26  C   UNL     1      -8.827   1.741  -1.661  0.00  0.00    +0.005 A 
ATOM     27  C   UNL     1      -9.922   1.300  -0.940  0.00  0.00    +0.001 A 
ATOM     28  C   UNL     1      -9.877   1.270   0.441  0.00  0.00    +0.006 A 
ATOM     29  C   UNL     1      -8.739   1.681   1.106  0.00  0.00    -0.023 A 
ATOM     30  C   UNL     1      -6.498   2.646  -1.788  0.00  0.00    +0.045 C 
BRANCH  29  31
ATOM     31  C   UNL     1      -8.690   1.648   2.612  0.00  0.00    +0.015 C 
ATOM     32  C   UNL     1      -9.792   2.546   3.178  0.00  0.00    +0.012 C 
ATOM     33  C   UNL     1      -8.904   0.212   3.097  0.00  0.00    +0.012 C 
ENDBRANCH  29  31
ENDBRANCH  22  24
ENDBRANCH  19  20
ENDBRANCH  18  19
ENDBRANCH   9  18
TORSDOF 8
