REMARK  Name = ZINC02923141
REMARK  7 active torsions:
REMARK  status: ('A' for Active; 'I' for Inactive)
REMARK    1  A    between atoms: C_1  and  C_2
REMARK    2  A    between atoms: C_5  and  S_8
REMARK    3  A    between atoms: S_8  and  C_9
REMARK    4  A    between atoms: C_12  and  C_19
REMARK    5  A    between atoms: C_14  and  N_15
REMARK    6  A    between atoms: C_16  and  C_18
REMARK    7  A    between atoms: N_24  and  C_27
REMARK                            x       y       z     vdW  Elec       q    Type
REMARK                         _______ _______ _______ _____ _____    ______ ____
ROOT
ATOM      1  C   UNL     1      -1.394  10.352  -4.683  0.00  0.00    +0.034 A 
ATOM      2  C   UNL     1      -1.691   9.388  -3.725  0.00  0.00    +0.017 A 
ATOM      3  C   UNL     1      -0.718   8.960  -2.851  0.00  0.00    +0.014 A 
ATOM      4  C   UNL     1       0.570   9.500  -2.917  0.00  0.00    +0.039 A 
ATOM      5  C   UNL     1       0.871  10.469  -3.879  0.00  0.00    +0.037 A 
ATOM      6  C   UNL     1      -0.107  10.892  -4.758  0.00  0.00    +0.048 A 
ENDROOT
BRANCH   4   7
ATOM      7  C   UNL     1       1.611   9.044  -1.977  0.00  0.00    +0.247 C 
ATOM      8  O   UNL     1       2.775   9.013  -2.327  0.00  0.00    -0.270 OA
ATOM      9  N   UNL     1       1.272   8.663  -0.729  0.00  0.00    -0.295 N 
ATOM     10  C   UNL     1      -0.108   8.811  -0.243  0.00  0.00    +0.127 C 
ATOM     11  C   UNL     1      -0.074   9.541   1.104  0.00  0.00    +0.125 C 
ATOM     12  N   UNL     1       0.834   8.834   2.017  0.00  0.00    -0.314 N 
ATOM     13  C   UNL     1       2.213   8.845   1.512  0.00  0.00    +0.125 C 
ATOM     14  C   UNL     1       2.273   8.087   0.182  0.00  0.00    +0.127 C 
BRANCH  12  15
ATOM     15  C   UNL     1       0.768   9.369   3.299  0.00  0.00    +0.099 A 
ATOM     16  C   UNL     1       1.557   8.833   4.311  0.00  0.00    +0.042 A 
ATOM     17  C   UNL     1       1.485   9.379   5.580  0.00  0.00    +0.005 A 
ATOM     18  C   UNL     1       0.616  10.440   5.797  0.00  0.00    +0.018 A 
ATOM     19  C   UNL     1      -0.138  10.922   4.746  0.00  0.00    +0.084 A 
ATOM     20  N   UNL     1      -0.089  10.414   3.485  0.00  0.00    -0.350 N 
ATOM     21  H   UNL     1      -0.662  10.793   2.722  0.00  0.00    +0.166 HD
ENDBRANCH  12  15
ENDBRANCH   4   7
BRANCH   6  22
ATOM     22  N   UNL     1       0.191  11.863  -5.724  0.00  0.00    -0.285 N 
ATOM     23  C   UNL     1       1.416  11.902  -6.284  0.00  0.00    +0.214 C 
ATOM     24  O   UNL     1       2.288  11.156  -5.890  0.00  0.00    -0.276 OA
ATOM     25  C   UNL     1       1.704  12.873  -7.400  0.00  0.00    +0.109 C 
ATOM     26  H   UNL     1      -0.484  12.506  -5.990  0.00  0.00    +0.155 HD
ENDBRANCH   6  22
BRANCH   1  27
ATOM     27  S   UNL     1      -2.642  10.892  -5.804  0.00  0.00    -0.088 S 
BRANCH  27  32
ATOM     28  C   UNL     1      -1.304   8.052 -10.959  0.00  0.00    +0.044 C 
ATOM     29  C   UNL     1      -1.638   8.761  -9.672  0.00  0.00    -0.050 A 
ATOM     30  C   UNL     1      -2.664   9.689  -9.642  0.00  0.00    +0.004 A 
ATOM     31  C   UNL     1      -2.973  10.340  -8.464  0.00  0.00    +0.015 A 
ATOM     32  C   UNL     1      -2.252  10.063  -7.309  0.00  0.00    +0.013 A 
ATOM     33  C   UNL     1      -1.218   9.134  -7.345  0.00  0.00    +0.015 A 
ATOM     34  C   UNL     1      -0.918   8.483  -8.524  0.00  0.00    +0.004 A 
ENDBRANCH  27  32
ENDBRANCH   1  27
TORSDOF 5
