REMARK  Name = ZINC14458361
REMARK  4 active torsions:
REMARK  status: ('A' for Active; 'I' for Inactive)
REMARK    1  A    between atoms: C_1  and  C_2
REMARK    2  A    between atoms: C_5  and  C_8
REMARK    3  A    between atoms: C_18  and  N_25
REMARK    4  A    between atoms: C_21  and  O_24
REMARK                            x       y       z     vdW  Elec       q    Type
REMARK                         _______ _______ _______ _____ _____    ______ ____
ROOT
ATOM      1  C   UNL     1      -0.139  -3.562   0.259  0.00  0.00    +0.105 C 
ATOM      2  C   UNL     1       1.300  -4.046   0.248  0.00  0.00    +0.029 C 
ATOM      3  C   UNL     1       2.282  -3.300  -0.664  0.00  0.00    +0.033 C 
ATOM      4  C   UNL     1       3.602  -3.486   0.086  0.00  0.00    -0.030 C 
ATOM      5  C   UNL     1       3.367  -3.669   1.380  0.00  0.00    -0.023 C 
ATOM      6  C   UNL     1       1.893  -3.616   1.624  0.00  0.00    +0.051 C 
ATOM      7  C   UNL     1       1.222  -4.411   2.675  0.00  0.00    +0.014 A 
ATOM      8  C   UNL     1       1.877  -4.838   3.812  0.00  0.00    +0.132 A 
ATOM      9  C   UNL     1       1.205  -5.568   4.774  0.00  0.00    +0.037 A 
ATOM     10  C   UNL     1      -0.134  -5.873   4.601  0.00  0.00    +0.049 A 
ATOM     11  C   UNL     1      -0.799  -5.454   3.463  0.00  0.00    +0.138 A 
ATOM     12  C   UNL     1      -0.127  -4.724   2.485  0.00  0.00    +0.076 A 
ATOM     13  N   UNL     1      -0.815  -4.340   1.321  0.00  0.00    -0.334 N 
ATOM     14  H   UNL     1      -1.746  -4.588   1.210  0.00  0.00    +0.147 HD
ENDROOT
BRANCH   1  19
ATOM     15  C   UNL     1      -0.344   2.082   1.481  0.00  0.00    +0.044 C 
ATOM     16  C   UNL     1      -0.291   0.610   1.163  0.00  0.00    -0.050 A 
ATOM     17  C   UNL     1      -0.150   0.191  -0.147  0.00  0.00    +0.004 A 
ATOM     18  C   UNL     1      -0.101  -1.159  -0.440  0.00  0.00    +0.006 A 
ATOM     19  C   UNL     1      -0.192  -2.090   0.578  0.00  0.00    -0.027 A 
ATOM     20  C   UNL     1      -0.332  -1.671   1.888  0.00  0.00    +0.006 A 
ATOM     21  C   UNL     1      -0.377  -0.321   2.180  0.00  0.00    +0.004 A 
ENDBRANCH   1  19
BRANCH   8  22
ATOM     22  N   UNL     1       3.308  -4.514   4.001  0.00  0.00    +0.057 N 
ATOM     23  O   UNL     1       4.101  -5.394   4.245  0.00  0.00    -0.126 OA
ATOM     24  O   UNL     1       3.686  -3.369   3.912  0.00  0.00    -0.126 OA
ENDBRANCH   8  22
BRANCH  11  25
ATOM     25  O   UNL     1      -2.115  -5.756   3.299  0.00  0.00    -0.505 OA
ATOM     26  H   UNL     1      -2.719  -5.092   3.659  0.00  0.00    +0.292 HD
ENDBRANCH  11  25
TORSDOF 3
