REMARK  Name = ZINC63393626
REMARK  6 active torsions:
REMARK  status: ('A' for Active; 'I' for Inactive)
REMARK    1  A    between atoms: C_4  and  C_7
REMARK    2  A    between atoms: C_9  and  C_17
REMARK    3  A    between atoms: C_17  and  C_19
REMARK    4  A    between atoms: N_21  and  C_22
REMARK    5  A    between atoms: C_27  and  C_28
REMARK    6  A    between atoms: N_30  and  C_31
REMARK                            x       y       z     vdW  Elec       q    Type
REMARK                         _______ _______ _______ _____ _____    ______ ____
ROOT
ATOM      1  C   UNL     1       4.276  -0.414   2.510  0.00  0.00    +0.247 C 
ATOM      2  O   UNL     1       4.285   0.801   2.437  0.00  0.00    -0.282 OA
ENDROOT
BRANCH   1   4
ATOM      3  C   UNL     1       5.103  -1.539   0.293  0.00  0.00    +0.144 C 
ATOM      4  C   UNL     1       4.076  -1.189   1.347  0.00  0.00    +0.040 C 
ATOM      5  C   UNL     1       2.898  -1.790   0.931  0.00  0.00    +0.007 A 
ATOM      6  C   UNL     1       1.597  -1.834   1.478  0.00  0.00    +0.010 A 
ATOM      7  C   UNL     1       0.612  -2.513   0.844  0.00  0.00    +0.001 A 
ATOM      8  C   UNL     1       0.825  -3.196  -0.363  0.00  0.00    +0.002 A 
ATOM      9  C   UNL     1       2.032  -3.216  -0.969  0.00  0.00    +0.026 A 
ATOM     10  C   UNL     1       3.158  -2.501  -0.344  0.00  0.00    +0.044 A 
ATOM     11  N   UNL     1       4.404  -2.359  -0.702  0.00  0.00    -0.373 N 
ATOM     12  H   UNL     1       4.805  -2.735  -1.500  0.00  0.00    +0.161 HD
BRANCH   3  16
ATOM     13  C   UNL     1       6.612   2.016  -1.532  0.00  0.00    +0.000 A 
ATOM     14  C   UNL     1       7.352   1.371  -0.559  0.00  0.00    +0.000 A 
ATOM     15  C   UNL     1       6.864   0.221   0.031  0.00  0.00    +0.006 A 
ATOM     16  C   UNL     1       5.635  -0.285  -0.350  0.00  0.00    -0.021 A 
ATOM     17  C   UNL     1       4.894   0.361  -1.323  0.00  0.00    +0.006 A 
ATOM     18  C   UNL     1       5.383   1.511  -1.914  0.00  0.00    +0.000 A 
ENDBRANCH   3  16
ENDBRANCH   1   4
BRANCH   1  19
ATOM     19  C   UNL     1       4.475  -1.082   3.825  0.00  0.00    +0.288 C 
ATOM     20  O   UNL     1       4.557  -2.292   3.885  0.00  0.00    -0.266 OA
ATOM     21  N   UNL     1       4.565  -0.344   4.949  0.00  0.00    -0.278 N 
ATOM     22  H   UNL     1       4.418   0.615   4.913  0.00  0.00    +0.155 HD
BRANCH  21  23
ATOM     23  C   UNL     1       4.866  -0.956   6.161  0.00  0.00    +0.046 A 
ATOM     24  C   UNL     1       5.570  -2.154   6.182  0.00  0.00    +0.024 A 
ATOM     25  C   UNL     1       5.868  -2.760   7.386  0.00  0.00    +0.002 A 
ATOM     26  C   UNL     1       5.470  -2.180   8.580  0.00  0.00    +0.001 A 
ATOM     27  C   UNL     1       4.772  -0.992   8.579  0.00  0.00    +0.015 A 
ATOM     28  C   UNL     1       4.467  -0.364   7.369  0.00  0.00    +0.058 A 
BRANCH  28  29
ATOM     29  C   UNL     1       3.725   0.910   7.361  0.00  0.00    +0.246 C 
ATOM     30  O   UNL     1       3.374   1.403   6.306  0.00  0.00    -0.270 OA
ATOM     31  N   UNL     1       3.436   1.529   8.523  0.00  0.00    -0.308 N 
ATOM     32  H   UNL     1       3.716   1.137   9.365  0.00  0.00    +0.149 HD
BRANCH  31  33
ATOM     33  C   UNL     1       2.699   2.796   8.515  0.00  0.00    +0.073 C 
ATOM     34  C   UNL     1       1.578   2.967   9.542  0.00  0.00    +0.024 C 
ATOM     35  C   UNL     1       2.892   3.732   9.709  0.00  0.00    +0.024 C 
ENDBRANCH  31  33
ENDBRANCH  28  29
ENDBRANCH  21  23
ENDBRANCH   1  19
TORSDOF 6
