REMARK  Name = ZINC12513092
REMARK  9 active torsions:
REMARK  status: ('A' for Active; 'I' for Inactive)
REMARK    1  A    between atoms: C_1  and  N_2
REMARK    2  A    between atoms: N_2  and  C_3
REMARK    3  A    between atoms: N_2  and  C_4
REMARK    4  A    between atoms: C_5  and  C_16
REMARK    5  A    between atoms: C_16  and  N_17
REMARK    6  A    between atoms: N_17  and  C_18
REMARK    7  A    between atoms: C_18  and  C_19
REMARK    8  A    between atoms: C_25  and  C_27
REMARK    9  A    between atoms: C_27  and  C_30
REMARK                            x       y       z     vdW  Elec       q    Type
REMARK                         _______ _______ _______ _____ _____    ______ ____
ROOT
ATOM      1  N   UNL     1      -7.770   5.125  -5.326  0.00  0.00    -0.294 N 
ATOM      2  C   UNL     1      -8.385   5.113  -6.526  0.00  0.00    +0.226 C 
ATOM      3  O   UNL     1      -9.591   5.006  -6.587  0.00  0.00    -0.275 OA
ENDROOT
BRANCH   2   4
ATOM      4  C   UNL     1      -7.574   5.233  -7.790  0.00  0.00    +0.072 C 
ATOM      5  C   UNL     1      -8.206   4.723  -9.086  0.00  0.00    +0.022 C 
ATOM      6  C   UNL     1      -7.068   3.939  -8.430  0.00  0.00    +0.022 C 
BRANCH   4   7
ATOM      7  C   UNL     1      -6.685   6.447  -7.879  0.00  0.00    -0.032 A 
ATOM      8  C   UNL     1      -5.436   6.348  -8.463  0.00  0.00    +0.006 A 
ATOM      9  C   UNL     1      -4.623   7.462  -8.550  0.00  0.00    +0.020 A 
ATOM     10  C   UNL     1      -5.054   8.674  -8.043  0.00  0.00    +0.041 A 
ATOM     11  C   UNL     1      -6.302   8.772  -7.453  0.00  0.00    +0.020 A 
ATOM     12  C   UNL     1      -7.117   7.658  -7.372  0.00  0.00    +0.006 A 
ATOM     13 CL   UNL     1      -4.031  10.073  -8.146  0.00  0.00    -0.084 Cl
ENDBRANCH   4   7
ENDBRANCH   2   4
BRANCH   1  14
ATOM     14  C   UNL     1      -8.537   4.859  -4.107  0.00  0.00    +0.146 C 
BRANCH  14  16
ATOM     15  C   UNL     1      -8.527   6.553  -2.241  0.00  0.00    +0.103 A 
ATOM     16  C   UNL     1      -8.991   6.164  -3.505  0.00  0.00    +0.008 A 
ATOM     17  C   UNL     1      -9.850   6.970  -4.191  0.00  0.00    +0.018 A 
ATOM     18  C   UNL     1     -10.254   8.180  -3.591  0.00  0.00    +0.002 A 
ATOM     19  C   UNL     1     -11.140   9.053  -4.242  0.00  0.00    +0.059 A 
ATOM     20  C   UNL     1     -11.508  10.220  -3.639  0.00  0.00    +0.167 A 
ATOM     21  C   UNL     1     -11.010  10.557  -2.369  0.00  0.00    +0.168 A 
ATOM     22  C   UNL     1     -10.147   9.725  -1.715  0.00  0.00    +0.075 A 
ATOM     23  C   UNL     1      -9.750   8.517  -2.312  0.00  0.00    +0.051 A 
ATOM     24  O   UNL     1     -11.535  11.764  -2.006  0.00  0.00    -0.453 OA
ATOM     25  C   UNL     1     -12.025  12.354  -3.225  0.00  0.00    +0.466 C 
ATOM     26  O   UNL     1     -12.340  11.221  -4.055  0.00  0.00    -0.453 OA
ATOM     27  N   UNL     1      -8.878   7.706  -1.618  0.00  0.00    -0.343 N 
ATOM     28  H   UNL     1      -8.517   7.958  -0.690  0.00  0.00    +0.167 HD
BRANCH  15  30
ATOM     29  C   UNL     1      -6.938   6.465  -0.506  0.00  0.00    +0.130 C 
ATOM     30  N   UNL     1      -7.649   5.725  -1.557  0.00  0.00    -0.322 N 
ATOM     31  C   UNL     1      -8.350   4.561  -0.999  0.00  0.00    +0.130 C 
ENDBRANCH  15  30
ENDBRANCH  14  16
ENDBRANCH   1  14
BRANCH   1  32
ATOM     32  C   UNL     1      -6.334   5.403  -5.242  0.00  0.00    +0.139 C 
BRANCH  32  33
ATOM     33  C   UNL     1      -5.561   4.084  -5.183  0.00  0.00    +0.136 C 
ATOM     34  C   UNL     1      -4.108   4.331  -4.721  0.00  0.00    +0.035 C 
ATOM     35  C   UNL     1      -3.274   3.333  -5.555  0.00  0.00    +0.031 C 
ATOM     36  C   UNL     1      -4.322   2.600  -6.422  0.00  0.00    +0.160 C 
ATOM     37  O   UNL     1      -5.436   3.515  -6.505  0.00  0.00    -0.375 OA
ENDBRANCH  32  33
ENDBRANCH   1  32
TORSDOF 7
