REMARK  Name = ZINC14699117
REMARK  11 active torsions:
REMARK  status: ('A' for Active; 'I' for Inactive)
REMARK    1  A    between atoms: C_1  and  C_2
REMARK    2  A    between atoms: C_2  and  C_3
REMARK    3  A    between atoms: C_3  and  C_4
REMARK    4  A    between atoms: C_4  and  N_5
REMARK    5  A    between atoms: C_6  and  N_36
REMARK    6  A    between atoms: C_7  and  N_14
REMARK    7  A    between atoms: N_14  and  C_15
REMARK    8  A    between atoms: C_15  and  C_16
REMARK    9  A    between atoms: C_16  and  C_17
REMARK   10  A    between atoms: C_18  and  C_20
REMARK   11  A    between atoms: C_27  and  C_29
REMARK                            x       y       z     vdW  Elec       q    Type
REMARK                         _______ _______ _______ _____ _____    ______ ____
ROOT
ATOM      1  N   UNL     1      -2.537   6.475  -1.383  0.00  0.00    -0.264 N 
ATOM      2  C   UNL     1      -1.795   5.850  -0.445  0.00  0.00    +0.225 C 
ATOM      3  O   UNL     1      -1.284   4.778  -0.690  0.00  0.00    -0.275 OA
ENDROOT
BRANCH   1   6
ATOM      4  N   UNL     1      -3.197  10.040  -0.789  0.00  0.00    -0.280 N 
ATOM      5  C   UNL     1      -2.523   8.882  -1.098  0.00  0.00    +0.127 A 
ATOM      6  C   UNL     1      -3.201   7.680  -1.071  0.00  0.00    +0.140 A 
ATOM      7  C   UNL     1      -4.566   7.678  -0.731  0.00  0.00    +0.277 A 
ATOM      8  O   UNL     1      -5.191   6.631  -0.704  0.00  0.00    -0.266 OA
ATOM      9  N   UNL     1      -5.179   8.841  -0.432  0.00  0.00    -0.273 N 
ATOM     10  H   UNL     1      -6.147   8.839  -0.183  0.00  0.00    +0.173 HD
ATOM     11  C   UNL     1      -4.502  10.002  -0.464  0.00  0.00    +0.331 A 
ATOM     12  O   UNL     1      -5.080  11.037  -0.193  0.00  0.00    -0.246 OA
BRANCH   5  13
ATOM     13  N   UNL     1      -1.190   8.921  -1.430  0.00  0.00    -0.343 N 
ATOM     14  H   UNL     1      -0.739   8.113  -1.722  0.00  0.00    +0.144 HD
ATOM     15  H   UNL     1      -0.700   9.756  -1.372  0.00  0.00    +0.144 HD
ENDBRANCH   5  13
BRANCH   4  16
ATOM     16  C   UNL     1      -2.490  11.323  -0.815  0.00  0.00    +0.128 C 
BRANCH  16  17
ATOM     17  C   UNL     1      -2.596  11.936  -2.213  0.00  0.00    +0.021 C 
BRANCH  17  19
ATOM     18  C   UNL     1      -1.963  13.888  -3.638  0.00  0.00    +0.004 C 
ATOM     19  C   UNL     1      -1.857  13.276  -2.240  0.00  0.00    -0.002 C 
ENDBRANCH  17  19
ENDBRANCH  16  17
ENDBRANCH   4  16
ENDBRANCH   1   6
BRANCH   2  20
ATOM     20  C   UNL     1      -1.601   6.485   0.908  0.00  0.00    +0.093 C 
ATOM     21  C   UNL     1      -0.254   6.050   1.488  0.00  0.00    +0.016 C 
ATOM     22  C   UNL     1      -0.039   6.717   2.849  0.00  0.00    +0.020 C 
ATOM     23  C   UNL     1      -1.148   6.276   3.810  0.00  0.00    +0.108 C 
ATOM     24  N   UNL     1      -2.452   6.560   3.194  0.00  0.00    -0.297 N 
ATOM     25  C   UNL     1      -2.726   6.039   1.848  0.00  0.00    +0.120 C 
ATOM     26  C   UNL     1      -3.378   7.285   3.852  0.00  0.00    +0.247 C 
ATOM     27  O   UNL     1      -4.417   7.588   3.299  0.00  0.00    -0.270 OA
BRANCH  26  28
ATOM     28  C   UNL     1      -3.131   7.710   5.245  0.00  0.00    +0.037 A 
ATOM     29  C   UNL     1      -2.458   6.864   6.128  0.00  0.00    +0.014 A 
ATOM     30  C   UNL     1      -2.225   7.269   7.425  0.00  0.00    +0.021 A 
ATOM     31  C   UNL     1      -2.668   8.509   7.856  0.00  0.00    +0.041 A 
ATOM     32  C   UNL     1      -3.341   9.351   6.987  0.00  0.00    +0.021 A 
ATOM     33  C   UNL     1      -3.575   8.959   5.686  0.00  0.00    +0.014 A 
ATOM     34 CL   UNL     1      -2.377   9.009   9.493  0.00  0.00    -0.084 Cl
ENDBRANCH  26  28
ENDBRANCH   2  20
BRANCH   1  35
ATOM     35  C   UNL     1      -2.654   5.901  -2.726  0.00  0.00    +0.113 C 
BRANCH  35  36
ATOM     36  C   UNL     1      -3.759   4.844  -2.735  0.00  0.00    +0.016 C 
ATOM     37  C   UNL     1      -3.800   4.160  -4.103  0.00  0.00    +0.005 C 
ENDBRANCH  35  36
ENDBRANCH   1  35
TORSDOF 9
