REMARK  Name = ZINC00238542
REMARK  9 active torsions:
REMARK  status: ('A' for Active; 'I' for Inactive)
REMARK    1  A    between atoms: C_1  and  C_2
REMARK    2  A    between atoms: C_2  and  C_3
REMARK    3  A    between atoms: C_2  and  C_4
REMARK    4  A    between atoms: C_2  and  C_5
REMARK    5  A    between atoms: N_8  and  N_14
REMARK    6  A    between atoms: C_9  and  S_12
REMARK    7  A    between atoms: S_12  and  C_13
REMARK    8  A    between atoms: C_15  and  C_16
REMARK    9  A    between atoms: C_21  and  O_22
REMARK                            x       y       z     vdW  Elec       q    Type
REMARK                         _______ _______ _______ _____ _____    ______ ____
ROOT
ATOM      1  C   UNL     1       0.815  -0.492  -1.177  0.00  0.00    +0.135 A 
ATOM      2  C   UNL     1       0.964  -1.873  -1.418  0.00  0.00    +0.297 A 
ATOM      3  O   UNL     1       0.627  -2.695  -0.582  0.00  0.00    -0.264 OA
ATOM      4  N   UNL     1       1.492  -2.261  -2.601  0.00  0.00    -0.169 N 
ATOM      5  C   UNL     1       1.852  -1.301  -3.502  0.00  0.00    +0.213 A 
ATOM      6  N   UNL     1       1.686  -0.020  -3.215  0.00  0.00    -0.122 NA
ATOM      7  N   UNL     1       1.182   0.368  -2.099  0.00  0.00    -0.146 NA
ENDROOT
BRANCH   1   9
ATOM      8  C   UNL     1       0.177   1.522   0.121  0.00  0.00    +0.017 C 
ATOM      9  C   UNL     1       0.233  -0.007   0.126  0.00  0.00    +0.012 C 
ATOM     10  C   UNL     1       1.110  -0.482   1.285  0.00  0.00    +0.017 C 
ATOM     11  C   UNL     1      -1.181  -0.568   0.293  0.00  0.00    +0.017 C 
ENDBRANCH   1   9
BRANCH   5  12
ATOM     12  S   UNL     1       2.542  -1.769  -5.054  0.00  0.00    -0.088 S 
ATOM     13  C   UNL     1       2.854  -0.190  -5.890  0.00  0.00    +0.093 C 
ENDBRANCH   5  12
BRANCH   4  14
ATOM     14  N   UNL     1       1.665  -3.620  -2.897  0.00  0.00    -0.169 NA
ATOM     15  C   UNL     1       0.629  -4.391  -3.037  0.00  0.00    +0.145 C 
BRANCH  15  16
ATOM     16  C   UNL     1       0.810  -5.840  -3.234  0.00  0.00    +0.036 A 
ATOM     17  C   UNL     1      -0.301  -6.672  -3.392  0.00  0.00    +0.013 A 
ATOM     18  C   UNL     1      -0.124  -8.027  -3.576  0.00  0.00    +0.001 A 
ATOM     19  C   UNL     1       1.151  -8.567  -3.607  0.00  0.00    +0.004 A 
ATOM     20  C   UNL     1       2.258  -7.755  -3.452  0.00  0.00    +0.046 A 
ATOM     21  C   UNL     1       2.099  -6.390  -3.271  0.00  0.00    +0.125 A 
BRANCH  21  22
ATOM     22  O   UNL     1       3.187  -5.591  -3.125  0.00  0.00    -0.506 OA
ATOM     23  H   UNL     1       3.474  -5.482  -2.208  0.00  0.00    +0.292 HD
ENDBRANCH  21  22
ENDBRANCH  15  16
ENDBRANCH   4  14
TORSDOF 5
