REMARK  Name = ZINC09579599
REMARK  7 active torsions:
REMARK  status: ('A' for Active; 'I' for Inactive)
REMARK    1  A    between atoms: C_6  and  N_7
REMARK    2  A    between atoms: N_7  and  S_8
REMARK    3  A    between atoms: S_8  and  C_11
REMARK    4  A    between atoms: C_13  and  N_28
REMARK    5  A    between atoms: C_16  and  N_17
REMARK    6  A    between atoms: N_17  and  C_18
REMARK    7  A    between atoms: C_18  and  C_19
REMARK                            x       y       z     vdW  Elec       q    Type
REMARK                         _______ _______ _______ _____ _____    ______ ____
ROOT
ATOM      1  C   UNL     1      -3.691   1.549   0.057  0.00  0.00    +0.131 A 
ATOM      2  C   UNL     1      -2.587   0.721  -0.005  0.00  0.00    +0.063 A 
ATOM      3  C   UNL     1      -1.314   1.260   0.011  0.00  0.00    +0.128 A 
ATOM      4  C   UNL     1      -1.141   2.629   0.095  0.00  0.00    +0.034 A 
ATOM      5  C   UNL     1      -2.240   3.464   0.151  0.00  0.00    +0.027 A 
ATOM      6  C   UNL     1      -3.520   2.925   0.135  0.00  0.00    +0.054 A 
ENDROOT
BRANCH   1   7
ATOM      7  S   UNL     1      -5.313   0.861   0.035  0.00  0.00    +0.074 S 
ATOM      8  O   UNL     1      -5.156  -0.544  -0.107  0.00  0.00    -0.150 OA
ATOM      9  O   UNL     1      -6.015   1.442   1.125  0.00  0.00    -0.150 OA
BRANCH   7  10
ATOM     10  N   UNL     1      -6.054   1.397  -1.345  0.00  0.00    -0.216 N 
ATOM     11  H   UNL     1      -6.809   2.003  -1.286  0.00  0.00    +0.174 HD
BRANCH  10  17
ATOM     12  C   UNL     1      -4.231   0.993  -2.875  0.00  0.00    +0.026 A 
ATOM     13  C   UNL     1      -3.776   0.571  -4.109  0.00  0.00    +0.022 A 
ATOM     14  C   UNL     1      -4.675   0.144  -5.070  0.00  0.00    +0.041 A 
ATOM     15  C   UNL     1      -6.031   0.133  -4.796  0.00  0.00    +0.022 A 
ATOM     16  C   UNL     1      -6.491   0.548  -3.562  0.00  0.00    +0.026 A 
ATOM     17  C   UNL     1      -5.591   0.977  -2.595  0.00  0.00    +0.048 A 
ATOM     18 CL   UNL     1      -4.100  -0.378  -6.623  0.00  0.00    -0.084 Cl
ENDBRANCH  10  17
ENDBRANCH   7  10
ENDBRANCH   1   7
BRANCH   3  19
ATOM     19  N   UNL     1      -0.134   0.369  -0.054  0.00  0.00    +0.056 N 
ATOM     20  O   UNL     1      -0.285  -0.838  -0.123  0.00  0.00    -0.126 OA
ATOM     21  O   UNL     1       0.988   0.843  -0.045  0.00  0.00    -0.126 OA
ENDBRANCH   3  19
BRANCH   6  22
ATOM     22  N   UNL     1      -4.634   3.766   0.197  0.00  0.00    -0.338 N 
ATOM     23  H   UNL     1      -5.525   3.387   0.258  0.00  0.00    +0.146 HD
BRANCH  22  24
ATOM     24  C   UNL     1      -4.457   5.220   0.170  0.00  0.00    +0.137 C 
BRANCH  24  25
ATOM     25  C   UNL     1      -5.790   5.893   0.369  0.00  0.00    -0.027 A 
ATOM     26  C   UNL     1      -6.529   6.299  -0.727  0.00  0.00    +0.009 A 
ATOM     27  C   UNL     1      -7.755   6.911  -0.549  0.00  0.00    +0.050 A 
ATOM     28  C   UNL     1      -8.242   7.130   0.729  0.00  0.00    +0.166 A 
ATOM     29  C   UNL     1      -7.496   6.726   1.833  0.00  0.00    +0.167 A 
ATOM     30  C   UNL     1      -6.270   6.108   1.648  0.00  0.00    +0.054 A 
ATOM     31  O   UNL     1      -8.184   7.051   2.967  0.00  0.00    -0.453 OA
ATOM     32  C   UNL     1      -9.165   8.021   2.557  0.00  0.00    +0.466 C 
ATOM     33  O   UNL     1      -9.397   7.708   1.171  0.00  0.00    -0.453 OA
ENDBRANCH  24  25
ENDBRANCH  22  24
ENDBRANCH   6  22
TORSDOF 7
