REMARK  Name = ZINC39708185
REMARK  6 active torsions:
REMARK  status: ('A' for Active; 'I' for Inactive)
REMARK    1  A    between atoms: C_1  and  C_2
REMARK    2  A    between atoms: C_2  and  C_29
REMARK    3  A    between atoms: C_12  and  N_15
REMARK    4  A    between atoms: C_16  and  C_18
REMARK    5  A    between atoms: C_18  and  S_19
REMARK    6  A    between atoms: S_19  and  C_20
REMARK                            x       y       z     vdW  Elec       q    Type
REMARK                         _______ _______ _______ _____ _____    ______ ____
ROOT
ATOM      1  N   UNL     1      -3.728  -3.024   1.037  0.00  0.00    -0.291 N 
ATOM      2  C   UNL     1      -3.989  -4.257   1.515  0.00  0.00    +0.225 C 
ATOM      3  O   UNL     1      -4.087  -4.436   2.711  0.00  0.00    -0.275 OA
ATOM      4  H   UNL     1      -3.649  -2.881   0.081  0.00  0.00    +0.151 HD
ENDROOT
BRANCH   1  14
ATOM      5  C   UNL     1      -0.019   1.526   0.010  0.00  0.00    +0.011 C 
ATOM      6  C   UNL     1       0.002  -0.004   0.002  0.00  0.00    -0.027 C 
ATOM      7  C   UNL     1      -1.426  -0.539   0.046  0.00  0.00    +0.027 C 
ATOM      8  C   UNL     1      -2.218   0.067   1.206  0.00  0.00    +0.077 C 
ATOM      9  C   UNL     1      -1.487  -0.182   2.548  0.00  0.00    +0.132 C 
ATOM     10  C   UNL     1      -0.013   0.020   2.446  0.00  0.00    +0.148 C 
ATOM     11  O   UNL     1       0.575   0.579   3.341  0.00  0.00    -0.296 OA
ATOM     12  C   UNL     1       0.744  -0.519   1.244  0.00  0.00    +0.082 C 
ATOM     13  S   UNL     1      -1.907  -1.961   2.775  0.00  0.00    -0.110 S 
ATOM     14  C   UNL     1      -3.563  -1.899   1.962  0.00  0.00    +0.202 C 
ATOM     15  N   UNL     1      -3.533  -0.604   1.219  0.00  0.00    -0.286 NA
ATOM     16  C   UNL     1       0.703  -0.504  -1.263  0.00  0.00    +0.011 C 
ATOM     17  H   UNL     1      -4.255   0.021   1.544  0.00  0.00    +0.125 HD
ENDBRANCH   1  14
BRANCH   2  18
ATOM     18  C   UNL     1      -4.159  -5.413   0.564  0.00  0.00    +0.173 C 
BRANCH  18  19
ATOM     19  S   UNL     1      -4.498  -6.926   1.505  0.00  0.00    -0.079 S 
BRANCH  19  20
ATOM     20  C   UNL     1      -4.669  -8.169   0.268  0.00  0.00    +0.168 A 
ATOM     21  N   UNL     1      -4.561  -7.967  -1.022  0.00  0.00    -0.222 NA
ATOM     22  C   UNL     1      -4.748  -9.138  -1.685  0.00  0.00    +0.090 A 
ATOM     23  C   UNL     1      -4.742  -9.487  -3.037  0.00  0.00    +0.030 A 
ATOM     24  C   UNL     1      -4.971 -10.793  -3.408  0.00  0.00    +0.002 A 
ATOM     25  C   UNL     1      -5.209 -11.765  -2.448  0.00  0.00    +0.002 A 
ATOM     26  C   UNL     1      -5.219 -11.437  -1.108  0.00  0.00    +0.028 A 
ATOM     27  C   UNL     1      -4.989 -10.127  -0.717  0.00  0.00    +0.067 A 
ATOM     28  N   UNL     1      -4.928  -9.488   0.511  0.00  0.00    -0.333 N 
ATOM     29  H   UNL     1      -5.049  -9.900   1.381  0.00  0.00    +0.168 HD
ENDBRANCH  19  20
ENDBRANCH  18  19
ENDBRANCH   2  18
TORSDOF 4
