REMARK  Name = ZINC59166785
REMARK  10 active torsions:
REMARK  status: ('A' for Active; 'I' for Inactive)
REMARK    1  A    between atoms: C_1  and  C_2
REMARK    2  A    between atoms: C_2  and  C_3
REMARK    3  A    between atoms: C_2  and  C_4
REMARK    4  A    between atoms: C_2  and  S_5
REMARK    5  A    between atoms: S_5  and  C_6
REMARK    6  A    between atoms: C_6  and  C_7
REMARK    7  A    between atoms: N_9  and  N_10
REMARK    8  A    between atoms: C_11  and  C_12
REMARK    9  A    between atoms: C_15  and  C_17
REMARK   10  A    between atoms: C_20  and  N_23
REMARK                            x       y       z     vdW  Elec       q    Type
REMARK                         _______ _______ _______ _____ _____    ______ ____
ROOT
ATOM      1  C   UNL     1       7.337  -0.223  -4.892  0.00  0.00    +0.148 A 
ATOM      2  C   UNL     1       8.739   0.137  -5.152  0.00  0.00    +0.051 A 
ATOM      3  C   UNL     1       9.071  -0.449  -6.330  0.00  0.00    +0.050 A 
ATOM      4  C   UNL     1       7.929  -1.149  -6.796  0.00  0.00    +0.136 A 
ATOM      5  O   UNL     1       6.923  -0.998  -5.918  0.00  0.00    -0.454 OA
ENDROOT
BRANCH   4   6
ATOM      6  C   UNL     1       7.861  -1.896  -7.998  0.00  0.00    +0.017 A 
ATOM      7  C   UNL     1       8.988  -1.992  -8.838  0.00  0.00    +0.014 A 
ATOM      8  C   UNL     1       8.911  -2.715  -9.995  0.00  0.00    +0.033 A 
ATOM      9  C   UNL     1       7.729  -3.353 -10.343  0.00  0.00    +0.126 A 
ATOM     10  C   UNL     1       6.613  -3.264  -9.523  0.00  0.00    +0.033 A 
ATOM     11  C   UNL     1       6.669  -2.551  -8.359  0.00  0.00    +0.014 A 
BRANCH   9  12
ATOM     12  N   UNL     1       7.657  -4.133 -11.599  0.00  0.00    +0.056 N 
ATOM     13  O   UNL     1       8.714  -4.220 -12.381  0.00  0.00    -0.126 OA
ATOM     14  O   UNL     1       6.538  -4.740 -11.934  0.00  0.00    -0.126 OA
ENDBRANCH   9  12
ENDBRANCH   4   6
BRANCH   1  16
ATOM     15  N   UNL     1       5.320  -0.244  -3.681  0.00  0.00    -0.185 NA
ATOM     16  C   UNL     1       6.580   0.160  -3.792  0.00  0.00    +0.176 C 
BRANCH  15  19
ATOM     17  C   UNL     1       3.338  -0.298  -2.546  0.00  0.00    +0.242 C 
ATOM     18  O   UNL     1       2.850  -0.998  -3.402  0.00  0.00    -0.273 OA
ATOM     19  N   UNL     1       4.617   0.111  -2.659  0.00  0.00    -0.206 N 
ATOM     20  H   UNL     1       5.009   0.673  -1.972  0.00  0.00    +0.177 HD
BRANCH  17  21
ATOM     21  C   UNL     1       2.517   0.116  -1.353  0.00  0.00    +0.167 C 
BRANCH  21  22
ATOM     22  S   UNL     1       0.851  -0.589  -1.490  0.00  0.00    -0.145 S 
BRANCH  22  24
ATOM     23  C   UNL     1      -0.019   1.526   0.010  0.00  0.00    +0.022 C 
ATOM     24  C   UNL     1       0.002  -0.004   0.002  0.00  0.00    +0.009 C 
ATOM     25  C   UNL     1       0.742  -0.511   1.242  0.00  0.00    +0.022 C 
ATOM     26  C   UNL     1      -1.433  -0.534   0.013  0.00  0.00    +0.022 C 
ENDBRANCH  22  24
ENDBRANCH  21  22
ENDBRANCH  17  21
ENDBRANCH  15  19
ENDBRANCH   1  16
TORSDOF 7
