REMARK  Name = ZINC02899511
REMARK  6 active torsions:
REMARK  status: ('A' for Active; 'I' for Inactive)
REMARK    1  A    between atoms: C_4  and  O_20
REMARK    2  A    between atoms: C_5  and  C_7
REMARK    3  A    between atoms: N_8  and  C_9
REMARK    4  A    between atoms: C_10  and  C_18
REMARK    5  A    between atoms: O_20  and  C_21
REMARK    6  A    between atoms: C_21  and  C_22
REMARK                            x       y       z     vdW  Elec       q    Type
REMARK                         _______ _______ _______ _____ _____    ______ ____
ROOT
ATOM      1  C   UNL     1       1.254  -2.153  -0.023  0.00  0.00    +0.123 C 
ATOM      2  N   UNL     1       2.399  -2.784  -0.038  0.00  0.00    -0.246 NA
ENDROOT
BRANCH   2   3
ATOM      3  C   UNL     1       2.425  -4.134  -0.047  0.00  0.00    +0.119 A 
ATOM      4  C   UNL     1       3.528  -4.996  -0.057  0.00  0.00    +0.088 A 
ATOM      5  C   UNL     1       3.297  -6.383  -0.065  0.00  0.00    -0.018 A 
ATOM      6  C   UNL     1       2.004  -6.790  -0.062  0.00  0.00    -0.004 A 
ATOM      7  S   UNL     1       1.062  -5.288  -0.039  0.00  0.00    -0.073 S 
ATOM      8  C   UNL     1       1.493  -8.197  -0.069  0.00  0.00    +0.043 C 
ATOM      9  C   UNL     1       2.651  -9.130  -0.453  0.00  0.00    +0.005 C 
ATOM     10  C   UNL     1       3.879  -8.757   0.383  0.00  0.00    +0.005 C 
ATOM     11  C   UNL     1       4.430  -7.407  -0.075  0.00  0.00    +0.037 C 
BRANCH   4  12
ATOM     12  C   UNL     1       4.862  -4.476  -0.060  0.00  0.00    +0.102 C 
ATOM     13  N   UNL     1       5.921  -4.063  -0.063  0.00  0.00    -0.191 NA
ENDBRANCH   4  12
ENDBRANCH   2   3
BRANCH   1  18
ATOM     14  C   UNL     1      -0.017   1.373   0.010  0.00  0.00    +0.001 A 
ATOM     15  C   UNL     1       1.170   2.089   0.002  0.00  0.00    +0.004 A 
ATOM     16  C   UNL     1       2.384   1.431  -0.013  0.00  0.00    +0.046 A 
ATOM     17  C   UNL     1       2.425   0.046  -0.021  0.00  0.00    +0.131 A 
ATOM     18  C   UNL     1       1.225  -0.685  -0.014  0.00  0.00    +0.035 A 
ATOM     19  C   UNL     1       0.002  -0.004   0.002  0.00  0.00    +0.013 A 
BRANCH  17  20
ATOM     20  O   UNL     1       3.617  -0.602  -0.037  0.00  0.00    -0.477 OA
BRANCH  20  21
ATOM     21  C   UNL     1       4.795   0.207  -0.044  0.00  0.00    +0.346 C 
BRANCH  21  22
ATOM     22  C   UNL     1       5.985  -0.658  -0.061  0.00  0.00    +0.104 C 
ATOM     23  N   UNL     1       6.904  -1.327  -0.075  0.00  0.00    -0.193 NA
ENDBRANCH  21  22
ENDBRANCH  20  21
ENDBRANCH  17  20
ENDBRANCH   1  18
TORSDOF 6
