REMARK  Name = ZINC18103943
REMARK  2 active torsions:
REMARK  status: ('A' for Active; 'I' for Inactive)
REMARK    1  A    between atoms: C_1  and  N_2
REMARK    2  A    between atoms: C_11  and  C_13
REMARK                            x       y       z     vdW  Elec       q    Type
REMARK                         _______ _______ _______ _____ _____    ______ ____
ROOT
ATOM      1  C   UNL     1      -0.018   1.465   0.010  0.00  0.00    +0.105 C 
ATOM      2  N   UNL     1       0.002  -0.004   0.002  0.00  0.00    -0.300 NA
ATOM      3  C   UNL     1      -1.362  -0.549   0.020  0.00  0.00    +0.090 C 
ATOM      4  C   UNL     1      -1.348  -2.033  -0.362  0.00  0.00    +0.071 C 
ATOM      5  C   UNL     1      -0.326  -2.738   0.519  0.00  0.00    +0.056 A 
ATOM      6  C   UNL     1       0.616  -2.008   1.173  0.00  0.00    +0.028 A 
ATOM      7  S   UNL     1       1.534  -3.250   2.037  0.00  0.00    -0.055 S 
ATOM      8  C   UNL     1       0.655  -4.585   1.500  0.00  0.00    +0.165 A 
ATOM      9  N   UNL     1      -0.259  -4.049   0.721  0.00  0.00    -0.229 NA
ATOM     10  N   UNL     1       0.850  -5.926   1.806  0.00  0.00    -0.260 N 
ATOM     11  C   UNL     1       1.850  -6.290   2.633  0.00  0.00    +0.256 C 
ATOM     12  O   UNL     1       2.583  -5.443   3.112  0.00  0.00    -0.269 OA
ATOM     13  C   UNL     1       0.790  -0.529   1.135  0.00  0.00    +0.128 C 
ATOM     14  H   UNL     1       0.267  -6.600   1.425  0.00  0.00    +0.157 HD
ENDROOT
BRANCH  11  15
ATOM     15  C   UNL     1       2.056  -7.703   2.956  0.00  0.00    +0.075 A 
ATOM     16  C   UNL     1       3.012  -8.279   3.780  0.00  0.00    +0.025 A 
ATOM     17  C   UNL     1       3.028  -9.641   3.951  0.00  0.00    -0.032 A 
ATOM     18  C   UNL     1       2.045 -10.362   3.267  0.00  0.00    +0.023 A 
ATOM     19  S   UNL     1       1.134  -9.129   2.395  0.00  0.00    -0.083 S 
ATOM     20  C   UNL     1       1.894 -11.811   3.355  0.00  0.00    -0.008 A 
ATOM     21  C   UNL     1       1.112 -12.548   2.474  0.00  0.00    +0.009 A 
ATOM     22  C   UNL     1       1.046 -13.921   2.603  0.00  0.00    +0.001 A 
ATOM     23  C   UNL     1       1.758 -14.557   3.604  0.00  0.00    +0.000 A 
ATOM     24  C   UNL     1       2.528 -13.828   4.492  0.00  0.00    +0.004 A 
ATOM     25  C   UNL     1       2.592 -12.454   4.390  0.00  0.00    -0.039 A 
ATOM     26  C   UNL     1       3.356 -11.646   5.401  0.00  0.00    +0.040 C 
ATOM     27  C   UNL     1       4.026 -10.415   4.804  0.00  0.00    +0.041 C 
ENDBRANCH  11  15
TORSDOF 1
