REMARK  Name = ZINC01595354
REMARK  4 active torsions:
REMARK  status: ('A' for Active; 'I' for Inactive)
REMARK    1  A    between atoms: C_2  and  N_21
REMARK    2  A    between atoms: C_3  and  S_9
REMARK    3  A    between atoms: S_9  and  C_10
REMARK    4  A    between atoms: C_15  and  N_16
REMARK                            x       y       z     vdW  Elec       q    Type
REMARK                         _______ _______ _______ _____ _____    ______ ____
ROOT
ATOM      1  S   UNL     1       2.663   4.348  -0.001  0.00  0.00    -0.085 S 
ENDROOT
BRANCH   1   4
ATOM      2  C   UNL     1      -1.226   3.386  -0.366  0.00  0.00    +0.075 A 
ATOM      3  C   UNL     1      -0.045   4.100  -0.305  0.00  0.00    +0.143 A 
ATOM      4  C   UNL     1       1.156   3.439  -0.078  0.00  0.00    +0.046 A 
ATOM      5  C   UNL     1       1.166   2.059   0.088  0.00  0.00    +0.058 A 
ATOM      6  C   UNL     1      -0.018   1.349   0.026  0.00  0.00    +0.160 A 
ATOM      7  C   UNL     1      -1.214   2.011  -0.207  0.00  0.00    +0.161 A 
ATOM      8  F   UNL     1      -2.370   1.315  -0.272  0.00  0.00    -0.202 F 
ATOM      9  F   UNL     1      -0.010   0.007   0.188  0.00  0.00    -0.202 F 
BRANCH   3  10
ATOM     10  N   UNL     1      -0.058   5.570  -0.482  0.00  0.00    +0.058 N 
ATOM     11  O   UNL     1      -1.111   6.150  -0.681  0.00  0.00    -0.126 OA
ATOM     12  O   UNL     1       0.983   6.199  -0.428  0.00  0.00    -0.126 OA
ENDBRANCH   3  10
ENDBRANCH   1   4
BRANCH   1  13
ATOM     13  C   UNL     1       3.905   3.105   0.129  0.00  0.00    +0.046 A 
ATOM     14  C   UNL     1       4.502   2.844   1.357  0.00  0.00    +0.058 A 
ATOM     15  C   UNL     1       5.472   1.864   1.457  0.00  0.00    +0.160 A 
ATOM     16  C   UNL     1       5.856   1.150   0.331  0.00  0.00    +0.161 A 
ATOM     17  C   UNL     1       5.266   1.414  -0.893  0.00  0.00    +0.075 A 
ATOM     18  C   UNL     1       4.292   2.389  -0.996  0.00  0.00    +0.143 A 
ATOM     19  F   UNL     1       6.809   0.197   0.429  0.00  0.00    -0.202 F 
ATOM     20  F   UNL     1       6.050   1.605   2.650  0.00  0.00    -0.202 F 
BRANCH  18  21
ATOM     21  N   UNL     1       3.662   2.669  -2.306  0.00  0.00    +0.058 N 
ATOM     22  O   UNL     1       4.001   2.041  -3.292  0.00  0.00    -0.126 OA
ATOM     23  O   UNL     1       2.803   3.528  -2.396  0.00  0.00    -0.126 OA
ENDBRANCH  18  21
ENDBRANCH   1  13
TORSDOF 4
