REMARK  Name = ZINC38806166
REMARK  10 active torsions:
REMARK  status: ('A' for Active; 'I' for Inactive)
REMARK    1  A    between atoms: C_1  and  C_2
REMARK    2  A    between atoms: C_2  and  O_3
REMARK    3  A    between atoms: O_3  and  C_4
REMARK    4  A    between atoms: C_4  and  C_6
REMARK    5  A    between atoms: C_10  and  N_11
REMARK    6  A    between atoms: C_12  and  C_14
REMARK    7  A    between atoms: C_20  and  C_26
REMARK    8  A    between atoms: C_20  and  C_27
REMARK    9  A    between atoms: C_22  and  C_24
REMARK   10  A    between atoms: C_22  and  C_25
REMARK                            x       y       z     vdW  Elec       q    Type
REMARK                         _______ _______ _______ _____ _____    ______ ____
ROOT
ATOM      1  C   UNL     1       1.449  -2.344  -2.516  0.00  0.00    +0.091 A 
ATOM      2  C   UNL     1       2.869  -2.615  -2.534  0.00  0.00    -0.024 A 
ATOM      3  C   UNL     1       3.334  -3.113  -3.703  0.00  0.00    -0.016 A 
ATOM      4  S   UNL     1       1.903  -3.218  -4.736  0.00  0.00    -0.079 S 
ATOM      5  C   UNL     1       0.741  -2.622  -3.680  0.00  0.00    +0.087 A 
ATOM      6  C   UNL     1       4.749  -3.471  -4.011  0.00  0.00    -0.041 C 
ATOM      7  N   UNL     1       5.603  -3.441  -2.826  0.00  0.00    +0.389 N 
ATOM      8  C   UNL     1       4.933  -3.490  -1.534  0.00  0.00    -0.069 C 
ATOM      9  C   UNL     1       3.857  -2.406  -1.397  0.00  0.00    +0.024 C 
ATOM     10  C   UNL     1       4.305  -4.864  -1.292  0.00  0.00    -0.010 C 
ATOM     11  C   UNL     1       5.984  -3.251  -0.433  0.00  0.00    -0.010 C 
ATOM     12  C   UNL     1       4.793  -4.863  -4.658  0.00  0.00    -0.005 C 
ATOM     13  C   UNL     1       5.292  -2.457  -5.037  0.00  0.00    -0.005 C 
ATOM     14  H   UNL     1       6.259  -4.223  -2.880  0.00  0.00    -0.084 HD
ATOM     15  H   UNL     1       6.179  -2.598  -2.861  0.00  0.00    -0.084 HD
ENDROOT
BRANCH   5  16
ATOM     16  N   UNL     1      -0.612  -2.445  -3.914  0.00  0.00    -0.273 N 
ATOM     17  C   UNL     1      -1.137  -2.770  -5.112  0.00  0.00    +0.284 C 
ATOM     18  O   UNL     1      -0.422  -3.219  -5.988  0.00  0.00    -0.266 OA
ATOM     19  H   UNL     1      -1.182  -2.088  -3.215  0.00  0.00    +0.156 HD
BRANCH  17  20
ATOM     20  C   UNL     1      -2.569  -2.583  -5.359  0.00  0.00    +0.191 A 
ATOM     21  C   UNL     1      -3.228  -2.875  -6.520  0.00  0.00    +0.056 A 
ATOM     22  C   UNL     1      -4.575  -2.541  -6.314  0.00  0.00    +0.058 A 
ATOM     23  C   UNL     1      -4.679  -2.066  -5.052  0.00  0.00    +0.171 A 
ATOM     24  O   UNL     1      -3.469  -2.098  -4.478  0.00  0.00    -0.444 OA
ATOM     25 BR   UNL     1      -6.272  -1.461  -4.231  0.00  0.00    -0.008 Br
ENDBRANCH  17  20
ENDBRANCH   5  16
BRANCH   1  26
ATOM     26  C   UNL     1       0.776  -1.800  -1.335  0.00  0.00    +0.342 C 
ATOM     27  O   UNL     1       0.312  -2.552  -0.499  0.00  0.00    -0.245 OA
BRANCH  26  28
ATOM     28  O   UNL     1       0.671  -0.465  -1.174  0.00  0.00    -0.461 OA
BRANCH  28  30
ATOM     29  C   UNL     1      -0.019   1.526   0.010  0.00  0.00    +0.048 C 
ATOM     30  C   UNL     1       0.002  -0.004   0.002  0.00  0.00    +0.229 C 
ENDBRANCH  28  30
ENDBRANCH  26  28
ENDBRANCH   1  26
TORSDOF 5
