REMARK  Name = ZINC09984508
REMARK  9 active torsions:
REMARK  status: ('A' for Active; 'I' for Inactive)
REMARK    1  A    between atoms: C_1  and  C_2
REMARK    2  A    between atoms: C_2  and  C_3
REMARK    3  A    between atoms: C_2  and  C_4
REMARK    4  A    between atoms: C_7  and  C_10
REMARK    5  A    between atoms: C_10  and  C_12
REMARK    6  A    between atoms: C_10  and  N_17
REMARK    7  A    between atoms: C_18  and  C_20
REMARK    8  A    between atoms: C_20  and  C_21
REMARK    9  A    between atoms: C_21  and  N_22
REMARK                            x       y       z     vdW  Elec       q    Type
REMARK                         _______ _______ _______ _____ _____    ______ ____
ROOT
ATOM      1  N   UNL     1      -5.431  -3.391  -0.431  0.00  0.00    -0.304 N 
ATOM      2  C   UNL     1      -6.424  -4.222  -0.057  0.00  0.00    +0.215 C 
ATOM      3  O   UNL     1      -7.307  -3.823   0.672  0.00  0.00    -0.276 OA
ATOM      4  H   UNL     1      -4.725  -3.710  -1.014  0.00  0.00    +0.150 HD
ENDROOT
BRANCH   1   5
ATOM      5  C   UNL     1      -5.419  -2.005   0.043  0.00  0.00    +0.140 C 
BRANCH   5   9
ATOM      6  C   UNL     1      -1.412  -0.526   0.013  0.00  0.00    -0.045 A 
ATOM      7  C   UNL     1      -2.259  -0.204   1.056  0.00  0.00    +0.004 A 
ATOM      8  C   UNL     1      -3.556  -0.683   1.066  0.00  0.00    +0.006 A 
ATOM      9  C   UNL     1      -4.006  -1.482   0.032  0.00  0.00    -0.022 A 
ATOM     10  C   UNL     1      -3.159  -1.803  -1.012  0.00  0.00    +0.006 A 
ATOM     11  C   UNL     1      -1.863  -1.321  -1.024  0.00  0.00    +0.004 A 
BRANCH   6  13
ATOM     12  C   UNL     1      -0.019   1.526   0.010  0.00  0.00    +0.012 C 
ATOM     13  C   UNL     1       0.002  -0.004   0.002  0.00  0.00    +0.013 C 
ATOM     14  C   UNL     1       0.742  -0.511   1.242  0.00  0.00    +0.012 C 
ENDBRANCH   6  13
ENDBRANCH   5   9
BRANCH   5  15
ATOM     15  C   UNL     1      -6.275  -1.157  -0.862  0.00  0.00    +0.014 A 
ATOM     16  C   UNL     1      -7.126  -0.152  -0.537  0.00  0.00    +0.013 A 
ATOM     17  C   UNL     1      -7.815   0.495  -1.546  0.00  0.00    +0.008 A 
ATOM     18  C   UNL     1      -7.620   0.105  -2.829  0.00  0.00    +0.045 A 
ATOM     19  S   UNL     1      -6.427  -1.209  -2.639  0.00  0.00    -0.099 S 
ENDBRANCH   5  15
ENDBRANCH   1   5
BRANCH   2  20
ATOM     20  C   UNL     1      -6.436  -5.648  -0.545  0.00  0.00    +0.117 C 
BRANCH  20  21
ATOM     21  C   UNL     1      -7.660  -6.370   0.022  0.00  0.00    +0.136 C 
BRANCH  21  22
ATOM     22  N   UNL     1      -7.672  -7.756  -0.453  0.00  0.00    -0.293 N 
ATOM     23  C   UNL     1      -8.316  -8.070  -1.641  0.00  0.00    +0.059 A 
ATOM     24  C   UNL     1      -8.956  -7.101  -2.398  0.00  0.00    +0.027 A 
ATOM     25  C   UNL     1      -9.586  -7.456  -3.574  0.00  0.00    +0.002 A 
ATOM     26  C   UNL     1      -9.586  -8.773  -4.007  0.00  0.00    +0.001 A 
ATOM     27  C   UNL     1      -8.955  -9.751  -3.266  0.00  0.00    +0.015 A 
ATOM     28  C   UNL     1      -8.316  -9.406  -2.078  0.00  0.00    +0.063 A 
ATOM     29  C   UNL     1      -7.627 -10.411  -1.248  0.00  0.00    +0.262 A 
ATOM     30  O   UNL     1      -7.597 -11.580  -1.582  0.00  0.00    -0.267 OA
ATOM     31  N   UNL     1      -7.030 -10.000  -0.108  0.00  0.00    -0.274 N 
ATOM     32  H   UNL     1      -6.572 -10.648   0.449  0.00  0.00    +0.173 HD
ATOM     33  C   UNL     1      -7.054  -8.711   0.264  0.00  0.00    +0.330 A 
ATOM     34  O   UNL     1      -6.497  -8.393   1.297  0.00  0.00    -0.246 OA
ENDBRANCH  21  22
ENDBRANCH  20  21
ENDBRANCH   2  20
TORSDOF 7
