REMARK  Name = ZINC02258047
REMARK  12 active torsions:
REMARK  status: ('A' for Active; 'I' for Inactive)
REMARK    1  A    between atoms: C_1  and  C_2
REMARK    2  A    between atoms: C_2  and  N_57
REMARK    3  A    between atoms: C_3  and  C_4
REMARK    4  A    between atoms: C_3  and  N_57
REMARK    5  A    between atoms: C_5  and  C_6
REMARK    6  A    between atoms: C_5  and  N_57
REMARK    7  A    between atoms: C_6  and  C_7
REMARK    8  A    between atoms: C_7  and  N_8
REMARK    9  A    between atoms: C_9  and  C_30
REMARK   10  A    between atoms: C_15  and  C_23
REMARK   11  A    between atoms: C_17  and  C_21
REMARK   12  A    between atoms: C_18  and  N_20
REMARK                            x       y       z     vdW  Elec       q    Type
REMARK                         _______ _______ _______ _____ _____    ______ ____
ROOT
ATOM      1  N   UNL     1       1.227  -0.854   0.339  0.00  0.00    -0.312 N 
ATOM      2  C   UNL     1       2.437  -0.237   0.331  0.00  0.00    +0.022 A 
ATOM      3  C   UNL     1       2.532   1.105   0.447  0.00  0.00    +0.068 A 
ATOM      4  C   UNL     1       1.362   1.881   0.578  0.00  0.00    +0.141 A 
ATOM      5  C   UNL     1       0.137   1.247   0.585  0.00  0.00    +0.072 A 
ATOM      6  C   UNL     1       0.088  -0.147   0.463  0.00  0.00    +0.259 A 
ATOM      7  O   UNL     1      -0.989  -0.722   0.467  0.00  0.00    -0.267 OA
ATOM      8  C   UNL     1      -1.136   2.037   0.717  0.00  0.00    +0.103 C 
ATOM      9  C   UNL     1      -0.835   3.418   1.232  0.00  0.00    +0.098 C 
ATOM     10  C   UNL     1       0.419   3.925   1.190  0.00  0.00    +0.199 C 
ATOM     11  O   UNL     1       1.453   3.223   0.694  0.00  0.00    -0.441 OA
ATOM     12  C   UNL     1       3.691  -1.061   0.191  0.00  0.00    +0.064 C 
ENDROOT
BRANCH   8  13
ATOM     13  C   UNL     1      -1.805   2.135  -0.630  0.00  0.00    -0.033 A 
ATOM     14  C   UNL     1      -3.077   1.625  -0.809  0.00  0.00    +0.004 A 
ATOM     15  C   UNL     1      -3.691   1.715  -2.043  0.00  0.00    +0.002 A 
ATOM     16  C   UNL     1      -3.034   2.316  -3.101  0.00  0.00    +0.020 A 
ATOM     17  C   UNL     1      -1.760   2.826  -2.922  0.00  0.00    +0.041 A 
ATOM     18  C   UNL     1      -1.148   2.740  -1.685  0.00  0.00    +0.024 A 
ATOM     19 CL   UNL     1      -0.933   3.580  -4.250  0.00  0.00    -0.084 Cl
ENDBRANCH   8  13
BRANCH  10  20
ATOM     20  N   UNL     1       0.642   5.192   1.667  0.00  0.00    -0.328 N 
ATOM     21  H   UNL     1       1.536   5.569   1.643  0.00  0.00    +0.145 HD
ATOM     22  H   UNL     1      -0.093   5.712   2.028  0.00  0.00    +0.145 HD
ENDBRANCH  10  20
BRANCH   9  23
ATOM     23  C   UNL     1      -1.897   4.214   1.772  0.00  0.00    +0.101 C 
ATOM     24  N   UNL     1      -2.738   4.845   2.201  0.00  0.00    -0.191 NA
ENDBRANCH   9  23
BRANCH   1  25
ATOM     25  C   UNL     1       1.160  -2.312   0.212  0.00  0.00    +0.123 C 
BRANCH  25  26
ATOM     26  C   UNL     1       0.972  -2.688  -1.259  0.00  0.00    +0.003 C 
BRANCH  26  27
ATOM     27  C   UNL     1       0.903  -4.210  -1.392  0.00  0.00    -0.077 C 
BRANCH  27  28
ATOM     28  N   UNL     1       0.700  -4.556  -2.815  0.00  0.00    +0.379 N 
ATOM     29  H   UNL     1      -0.100  -4.023  -3.177  0.00  0.00    -0.082 HD
BRANCH  28  31
ATOM     30  C   UNL     1       3.112  -5.008  -3.111  0.00  0.00    -0.017 C 
ATOM     31  C   UNL     1       1.904  -4.205  -3.597  0.00  0.00    -0.082 C 
ENDBRANCH  28  31
BRANCH  28  32
ATOM     32  C   UNL     1       0.414  -6.000  -2.948  0.00  0.00    -0.082 C 
ATOM     33  C   UNL     1      -0.133  -6.266  -4.352  0.00  0.00    -0.017 C 
ENDBRANCH  28  32
ENDBRANCH  27  28
ENDBRANCH  26  27
ENDBRANCH  25  26
ENDBRANCH   1  25
TORSDOF 9
