REMARK  Name = ZINC64889795
REMARK  6 active torsions:
REMARK  status: ('A' for Active; 'I' for Inactive)
REMARK    1  A    between atoms: C_1  and  C_2
REMARK    2  A    between atoms: C_10  and  S_14
REMARK    3  A    between atoms: S_14  and  N_17
REMARK    4  A    between atoms: C_23  and  C_25
REMARK    5  A    between atoms: C_25  and  C_26
REMARK    6  A    between atoms: C_26  and  C_27
REMARK                            x       y       z     vdW  Elec       q    Type
REMARK                         _______ _______ _______ _____ _____    ______ ____
ROOT
ATOM      1  S   UNL     1       2.773  -4.733   3.080  0.00  0.00    +0.062 S 
ATOM      2  O   UNL     1       3.141  -5.968   2.481  0.00  0.00    -0.153 OA
ATOM      3  O   UNL     1       3.663  -3.628   3.155  0.00  0.00    -0.153 OA
ENDROOT
BRANCH   1  12
ATOM      4  C   UNL     1      -2.716  -5.766  -1.940  0.00  0.00    +0.062 C 
ATOM      5  C   UNL     1      -2.309  -5.158  -0.596  0.00  0.00    +0.256 C 
ATOM      6  C   UNL     1      -2.748  -3.717  -0.544  0.00  0.00    +0.258 C 
ATOM      7  O   UNL     1      -3.720  -3.353  -1.172  0.00  0.00    -0.271 OA
ATOM      8  N   UNL     1      -2.055  -2.832   0.205  0.00  0.00    -0.279 N 
ATOM      9  C   UNL     1      -0.914  -3.271   0.893  0.00  0.00    +0.077 A 
ATOM     10  C   UNL     1      -0.363  -2.507   1.909  0.00  0.00    +0.049 A 
ATOM     11  C   UNL     1       0.763  -2.958   2.574  0.00  0.00    +0.069 A 
ATOM     12  C   UNL     1       1.339  -4.168   2.228  0.00  0.00    +0.127 A 
ATOM     13  C   UNL     1       0.792  -4.934   1.215  0.00  0.00    +0.077 A 
ATOM     14  C   UNL     1      -0.335  -4.490   0.546  0.00  0.00    +0.145 A 
ATOM     15  O   UNL     1      -0.888  -5.233  -0.451  0.00  0.00    -0.478 OA
ATOM     16 CL   UNL     1       1.457  -2.002   3.847  0.00  0.00    -0.081 Cl
ATOM     17  H   UNL     1      -2.341  -1.908   0.267  0.00  0.00    +0.155 HD
ENDBRANCH   1  12
BRANCH   1  18
ATOM     18  N   UNL     1       2.316  -5.079   4.634  0.00  0.00    -0.174 NA
ATOM     19  C   UNL     1       2.517  -4.097   5.708  0.00  0.00    +0.128 C 
ATOM     20  C   UNL     1       1.170  -3.839   6.395  0.00  0.00    +0.125 C 
ATOM     21  N   UNL     1       0.555  -5.133   6.723  0.00  0.00    -0.299 N 
ATOM     22  C   UNL     1       0.354  -6.115   5.649  0.00  0.00    +0.125 C 
ATOM     23  C   UNL     1       1.696  -6.370   4.961  0.00  0.00    +0.128 C 
ATOM     24  C   UNL     1       0.182  -5.414   7.988  0.00  0.00    +0.216 C 
ATOM     25  O   UNL     1       0.354  -4.596   8.867  0.00  0.00    -0.276 OA
BRANCH  24  26
ATOM     26  C   UNL     1      -0.447  -6.745   8.310  0.00  0.00    +0.096 C 
BRANCH  26  27
ATOM     27  C   UNL     1      -0.773  -6.808   9.803  0.00  0.00    +0.013 C 
BRANCH  27  28
ATOM     28  C   UNL     1      -1.411  -8.159  10.130  0.00  0.00    -0.011 C 
ATOM     29  C   UNL     1      -0.364  -9.294  10.022  0.00  0.00    +0.003 C 
ATOM     30  C   UNL     1      -0.961 -10.399  10.929  0.00  0.00    +0.000 C 
ATOM     31  C   UNL     1      -1.577  -9.624  12.112  0.00  0.00    +0.000 C 
ATOM     32  C   UNL     1      -1.863  -8.200  11.604  0.00  0.00    +0.003 C 
ENDBRANCH  27  28
ENDBRANCH  26  27
ENDBRANCH  24  26
ENDBRANCH   1  18
TORSDOF 5
