REMARK  Name = ZINC41585346
REMARK  13 active torsions:
REMARK  status: ('A' for Active; 'I' for Inactive)
REMARK    1  A    between atoms: C_1  and  C_2
REMARK    2  A    between atoms: C_10  and  C_28
REMARK    3  A    between atoms: C_11  and  O_27
REMARK    4  A    between atoms: C_12  and  C_13
REMARK    5  A    between atoms: C_13  and  N_14
REMARK    6  A    between atoms: N_17  and  C_20
REMARK    7  A    between atoms: C_28  and  C_29
REMARK    8  A    between atoms: C_29  and  C_30
REMARK    9  A    between atoms: C_30  and  O_32
REMARK   10  A    between atoms: O_32  and  C_33
REMARK   11  A    between atoms: C_33  and  C_34
REMARK   12  A    between atoms: C_34  and  O_35
REMARK   13  A    between atoms: O_35  and  C_36
REMARK                            x       y       z     vdW  Elec       q    Type
REMARK                         _______ _______ _______ _____ _____    ______ ____
ROOT
ATOM      1  C   UNL     1       0.044   1.538   0.038  0.00  0.00    +0.045 C 
ATOM      2  C   UNL     1       0.055   0.032   0.019  0.00  0.00    -0.033 A 
ATOM      3  C   UNL     1       0.063  -0.651  -1.155  0.00  0.00    +0.096 A 
ATOM      4  C   UNL     1       0.074  -2.061  -1.147  0.00  0.00    +0.337 A 
ATOM      5  O   UNL     1       0.081  -2.661  -2.207  0.00  0.00    -0.245 OA
ATOM      6  O   UNL     1       0.075  -2.760  -0.000  0.00  0.00    -0.422 OA
ATOM      7  C   UNL     1       0.068  -2.143   1.201  0.00  0.00    +0.147 A 
ATOM      8  C   UNL     1       0.063  -0.736   1.266  0.00  0.00    +0.021 A 
ATOM      9  C   UNL     1       0.059  -0.093   2.509  0.00  0.00    +0.019 A 
ATOM     10  C   UNL     1       0.066  -0.833   3.656  0.00  0.00    -0.004 A 
ATOM     11  C   UNL     1       0.076  -2.225   3.597  0.00  0.00    +0.128 A 
ATOM     12  C   UNL     1       0.069  -2.879   2.376  0.00  0.00    +0.051 A 
ENDROOT
BRANCH  11  13
ATOM     13  O   UNL     1       0.084  -2.947   4.747  0.00  0.00    -0.506 OA
ATOM     14  H   UNL     1      -0.798  -3.163   5.082  0.00  0.00    +0.292 HD
ENDBRANCH  11  13
BRANCH  12  15
ATOM     15  C   UNL     1       0.080  -4.385   2.324  0.00  0.00    +0.127 C 
BRANCH  15  16
ATOM     16  N   UNL     1       1.468  -4.864   2.311  0.00  0.00    -0.295 NA
ATOM     17  C   UNL     1       2.154  -4.460   1.077  0.00  0.00    +0.103 C 
ATOM     18  C   UNL     1       3.640  -4.819   1.180  0.00  0.00    +0.120 C 
ATOM     19  N   UNL     1       3.753  -6.247   1.516  0.00  0.00    -0.327 N 
ATOM     20  C   UNL     1       2.984  -6.755   2.662  0.00  0.00    +0.120 C 
ATOM     21  C   UNL     1       1.524  -6.320   2.500  0.00  0.00    +0.103 C 
BRANCH  19  22
ATOM     22  C   UNL     1       4.570  -7.097   0.767  0.00  0.00    +0.031 A 
ATOM     23  C   UNL     1       4.753  -8.415   1.165  0.00  0.00    +0.023 A 
ATOM     24  C   UNL     1       5.561  -9.254   0.422  0.00  0.00    +0.003 A 
ATOM     25  C   UNL     1       6.188  -8.782  -0.717  0.00  0.00    +0.020 A 
ATOM     26  C   UNL     1       6.008  -7.470  -1.117  0.00  0.00    +0.043 A 
ATOM     27  C   UNL     1       5.196  -6.627  -0.381  0.00  0.00    +0.043 A 
ATOM     28 CL   UNL     1       6.797  -6.883  -2.547  0.00  0.00    -0.083 Cl
ENDBRANCH  19  22
ENDBRANCH  15  16
ENDBRANCH  12  15
BRANCH  10  29
ATOM     29  C   UNL     1       0.063  -0.140   4.994  0.00  0.00    +0.050 C 
BRANCH  29  30
ATOM     30  C   UNL     1       1.500  -0.007   5.502  0.00  0.00    +0.125 C 
BRANCH  30  31
ATOM     31  C   UNL     1       1.497   0.686   6.840  0.00  0.00    +0.307 C 
ATOM     32  O   UNL     1       0.453   1.038   7.337  0.00  0.00    -0.251 OA
BRANCH  31  33
ATOM     33  O   UNL     1       2.655   0.913   7.481  0.00  0.00    -0.462 OA
BRANCH  33  34
ATOM     34  C   UNL     1       2.577   1.575   8.746  0.00  0.00    +0.260 C 
BRANCH  34  35
ATOM     35  C   UNL     1       3.986   1.744   9.319  0.00  0.00    +0.200 C 
BRANCH  35  36
ATOM     36  O   UNL     1       4.740   2.621   8.480  0.00  0.00    -0.380 OA
ATOM     37  C   UNL     1       6.077   2.848   8.929  0.00  0.00    +0.194 C 
ENDBRANCH  35  36
ENDBRANCH  34  35
ENDBRANCH  33  34
ENDBRANCH  31  33
ENDBRANCH  30  31
ENDBRANCH  29  30
ENDBRANCH  10  29
TORSDOF 11
