REMARK  Name = ZINC21722429
REMARK  6 active torsions:
REMARK  status: ('A' for Active; 'I' for Inactive)
REMARK    1  A    between atoms: C_1  and  C_2
REMARK    2  A    between atoms: C_2  and  C_34
REMARK    3  A    between atoms: C_6  and  C_26
REMARK    4  A    between atoms: C_16  and  C_18
REMARK    5  A    between atoms: C_21  and  O_24
REMARK    6  A    between atoms: O_24  and  C_25
REMARK                            x       y       z     vdW  Elec       q    Type
REMARK                         _______ _______ _______ _____ _____    ______ ____
ROOT
ATOM      1  C   UNL     1      -7.947  -3.665   4.439  0.00  0.00    +0.011 C 
ATOM      2  C   UNL     1      -9.107  -2.698   4.194  0.00  0.00    -0.023 C 
ATOM      3  C   UNL     1      -8.563  -1.331   3.783  0.00  0.00    +0.058 C 
ATOM      4  C   UNL     1      -7.739  -1.462   2.512  0.00  0.00    +0.017 C 
ATOM      5  C   UNL     1      -8.066  -2.376   1.585  0.00  0.00    +0.040 C 
ATOM      6  C   UNL     1      -7.359  -2.593   0.266  0.00  0.00    +0.182 C 
ATOM      7  N   UNL     1      -6.093  -1.902   0.150  0.00  0.00    -0.251 N 
ATOM      8  C   UNL     1      -6.030  -0.510   0.163  0.00  0.00    +0.059 A 
ATOM      9  C   UNL     1      -5.634   0.198  -0.967  0.00  0.00    +0.025 A 
ATOM     10  C   UNL     1      -5.642   1.581  -0.938  0.00  0.00    +0.002 A 
ATOM     11  C   UNL     1      -6.046   2.257   0.199  0.00  0.00    +0.002 A 
ATOM     12  C   UNL     1      -6.421   1.553   1.331  0.00  0.00    +0.025 A 
ATOM     13  C   UNL     1      -6.388   0.170   1.311  0.00  0.00    +0.053 A 
ATOM     14  N   UNL     1      -6.694  -0.599   2.429  0.00  0.00    -0.316 N 
ATOM     15  C   UNL     1      -4.956  -2.616   0.034  0.00  0.00    +0.252 C 
ATOM     16  O   UNL     1      -5.006  -3.825  -0.079  0.00  0.00    -0.270 OA
ATOM     17  C   UNL     1      -9.158  -3.250   1.796  0.00  0.00    +0.163 C 
ATOM     18  O   UNL     1      -9.439  -4.056   0.931  0.00  0.00    -0.292 OA
ATOM     19  C   UNL     1      -9.983  -3.216   3.047  0.00  0.00    +0.086 C 
ATOM     20  C   UNL     1      -9.946  -2.561   5.466  0.00  0.00    +0.011 C 
ATOM     21  H   UNL     1      -6.018  -0.470   3.287  0.00  0.00    +0.152 HD
ENDROOT
BRANCH  15  22
ATOM     22  C   UNL     1      -3.649  -1.929   0.043  0.00  0.00    +0.037 A 
ATOM     23  C   UNL     1      -2.583  -2.442  -0.701  0.00  0.00    +0.016 A 
ATOM     24  C   UNL     1      -1.366  -1.799  -0.690  0.00  0.00    +0.046 A 
ATOM     25  C   UNL     1      -1.197  -0.640   0.059  0.00  0.00    +0.120 A 
ATOM     26  C   UNL     1      -2.253  -0.130   0.805  0.00  0.00    +0.046 A 
ATOM     27  C   UNL     1      -3.475  -0.765   0.795  0.00  0.00    +0.016 A 
BRANCH  25  28
ATOM     28  O   UNL     1       0.004  -0.009   0.066  0.00  0.00    -0.495 OA
ATOM     29  C   UNL     1       0.109   1.177   0.858  0.00  0.00    +0.277 C 
ENDBRANCH  25  28
ENDBRANCH  15  22
BRANCH   6  30
ATOM     30  C   UNL     1      -8.264  -2.125  -0.845  0.00  0.00    +0.130 A 
ATOM     31  C   UNL     1      -9.093  -2.902  -1.564  0.00  0.00    +0.047 A 
ATOM     32  C   UNL     1      -9.747  -2.057  -2.489  0.00  0.00    +0.041 A 
ATOM     33  C   UNL     1      -9.272  -0.815  -2.286  0.00  0.00    +0.195 A 
ATOM     34  O   UNL     1      -8.374  -0.862  -1.288  0.00  0.00    -0.466 OA
ENDBRANCH   6  30
TORSDOF 3
