REMARK  Name = ZINC08507730
REMARK  5 active torsions:
REMARK  status: ('A' for Active; 'I' for Inactive)
REMARK    1  A    between atoms: C_1  and  C_2
REMARK    2  A    between atoms: C_5  and  C_8
REMARK    3  A    between atoms: C_11  and  N_12
REMARK    4  A    between atoms: N_12  and  C_13
REMARK    5  A    between atoms: C_14  and  C_22
REMARK                            x       y       z     vdW  Elec       q    Type
REMARK                         _______ _______ _______ _____ _____    ______ ____
ROOT
ATOM      1  C   UNL     1       0.058  -4.250  -0.021  0.00  0.00    +0.232 C 
ATOM      2  N   UNL     1       0.068  -4.990   1.051  0.00  0.00    -0.204 NA
ATOM      3  C   UNL     1       0.085  -6.307   0.684  0.00  0.00    +0.166 C 
ATOM      4  C   UNL     1       0.099  -7.406   1.518  0.00  0.00    +0.107 C 
ATOM      5  C   UNL     1       0.085  -6.305  -0.784  0.00  0.00    +0.366 C 
ATOM      6  O   UNL     1       0.097  -7.272  -1.524  0.00  0.00    -0.243 OA
ATOM      7  O   UNL     1       0.062  -5.003  -1.139  0.00  0.00    -0.402 OA
ENDROOT
BRANCH   1  12
ATOM      8  C   UNL     1      -0.018   1.503   0.010  0.00  0.00    +0.044 C 
ATOM      9  C   UNL     1       0.002  -0.004   0.002  0.00  0.00    -0.050 A 
ATOM     10  C   UNL     1       0.006  -0.686  -1.202  0.00  0.00    +0.004 A 
ATOM     11  C   UNL     1       0.024  -2.065  -1.217  0.00  0.00    +0.013 A 
ATOM     12  C   UNL     1       0.039  -2.773  -0.013  0.00  0.00    +0.037 A 
ATOM     13  C   UNL     1       0.036  -2.079   1.198  0.00  0.00    +0.013 A 
ATOM     14  C   UNL     1       0.023  -0.699   1.198  0.00  0.00    +0.004 A 
ENDBRANCH   1  12
BRANCH   4  15
ATOM     15  N   UNL     1       0.114  -8.661   0.990  0.00  0.00    -0.312 N 
ATOM     16  H   UNL     1       0.116  -8.782   0.028  0.00  0.00    +0.152 HD
BRANCH  15  17
ATOM     17  C   UNL     1       0.128  -9.764   1.827  0.00  0.00    +0.087 A 
ATOM     18  C   UNL     1       0.151 -11.113   1.492  0.00  0.00    +0.084 A 
ATOM     19  C   UNL     1       0.162 -12.081   2.575  0.00  0.00    -0.018 A 
ATOM     20  C   UNL     1       0.149 -11.575   3.829  0.00  0.00    -0.004 A 
ATOM     21  S   UNL     1       0.130  -9.816   3.610  0.00  0.00    -0.077 S 
ATOM     22  C   UNL     1       0.155 -12.341   5.116  0.00  0.00    +0.043 C 
ATOM     23  C   UNL     1      -0.197 -13.804   4.811  0.00  0.00    +0.005 C 
ATOM     24  C   UNL     1       0.653 -14.277   3.628  0.00  0.00    +0.005 C 
ATOM     25  C   UNL     1       0.188 -13.588   2.344  0.00  0.00    +0.037 C 
BRANCH  18  26
ATOM     26  C   UNL     1       0.162 -11.534   0.123  0.00  0.00    +0.102 C 
ATOM     27  N   UNL     1       0.171 -11.868  -0.962  0.00  0.00    -0.191 NA
ENDBRANCH  18  26
ENDBRANCH  15  17
ENDBRANCH   4  15
TORSDOF 4
