REMARK  Name = ZINC05520010
REMARK  5 active torsions:
REMARK  status: ('A' for Active; 'I' for Inactive)
REMARK    1  A    between atoms: C_1  and  N_2
REMARK    2  A    between atoms: N_2  and  C_3
REMARK    3  A    between atoms: N_2  and  C_4
REMARK    4  A    between atoms: C_7  and  C_10
REMARK    5  A    between atoms: N_16  and  C_17
REMARK                            x       y       z     vdW  Elec       q    Type
REMARK                         _______ _______ _______ _____ _____    ______ ____
ROOT
ATOM      1  C   UNL     1      -5.751   2.758   4.366  0.00  0.00    +0.028 C 
ATOM      2  C   UNL     1      -5.063   1.879   3.592  0.00  0.00    +0.078 C 
ATOM      3  C   UNL     1      -5.482   0.563   3.073  0.00  0.00    +0.256 C 
ATOM      4  O   UNL     1      -6.584   0.105   3.314  0.00  0.00    -0.269 OA
ATOM      5  N   UNL     1      -4.606  -0.097   2.334  0.00  0.00    -0.260 N 
ATOM      6  C   UNL     1      -3.363   0.439   2.073  0.00  0.00    +0.166 C 
ATOM      7  N   UNL     1      -2.384  -0.077   1.365  0.00  0.00    -0.226 NA
ATOM      8  S   UNL     1      -3.405   2.001   2.937  0.00  0.00    -0.049 S 
ATOM      9  H   UNL     1      -4.840  -0.966   1.973  0.00  0.00    +0.157 HD
ENDROOT
BRANCH   7  10
ATOM     10  C   UNL     1      -1.210   0.611   1.216  0.00  0.00    +0.067 A 
ATOM     11  C   UNL     1       0.013  -0.047   1.364  0.00  0.00    +0.029 A 
ATOM     12  C   UNL     1       1.192   0.651   1.206  0.00  0.00    +0.022 A 
ATOM     13  C   UNL     1       1.164   2.003   0.908  0.00  0.00    +0.041 A 
ATOM     14  C   UNL     1      -0.045   2.663   0.766  0.00  0.00    +0.022 A 
ATOM     15  C   UNL     1      -1.231   1.976   0.920  0.00  0.00    +0.029 A 
ATOM     16 CL   UNL     1       2.653   2.875   0.713  0.00  0.00    -0.084 Cl
ENDBRANCH   7  10
BRANCH   1  20
ATOM     17  C   UNL     1      -3.799   6.172   5.937  0.00  0.00    +0.029 A 
ATOM     18  C   UNL     1      -5.188   6.092   5.968  0.00  0.00    +0.023 A 
ATOM     19  C   UNL     1      -5.824   4.989   5.460  0.00  0.00    +0.010 A 
ATOM     20  C   UNL     1      -5.074   3.941   4.910  0.00  0.00    -0.024 A 
ATOM     21  C   UNL     1      -3.676   4.024   4.887  0.00  0.00    +0.010 A 
ATOM     22  C   UNL     1      -3.049   5.134   5.392  0.00  0.00    +0.023 A 
BRANCH  17  24
ATOM     23  C   UNL     1      -3.945   8.429   6.943  0.00  0.00    +0.129 C 
ATOM     24  N   UNL     1      -3.157   7.295   6.454  0.00  0.00    -0.336 N 
ATOM     25  C   UNL     1      -1.694   7.342   6.508  0.00  0.00    +0.129 C 
ENDBRANCH  17  24
ENDBRANCH   1  20
TORSDOF 3
