REMARK  Name = ZINC59367487
REMARK  9 active torsions:
REMARK  status: ('A' for Active; 'I' for Inactive)
REMARK    1  A    between atoms: C_1  and  C_2
REMARK    2  A    between atoms: C_2  and  C_3
REMARK    3  A    between atoms: C_3  and  C_4
REMARK    4  A    between atoms: C_4  and  C_5
REMARK    5  A    between atoms: C_6  and  C_24
REMARK    6  A    between atoms: C_7  and  N_23
REMARK    7  A    between atoms: C_11  and  N_22
REMARK    8  A    between atoms: C_12  and  C_14
REMARK    9  A    between atoms: C_14  and  C_16
REMARK                            x       y       z     vdW  Elec       q    Type
REMARK                         _______ _______ _______ _____ _____    ______ ____
ROOT
ATOM      1  C   UNL     1      -3.127  -2.022  -0.074  0.00  0.00    -0.015 A 
ATOM      2  C   UNL     1      -3.854  -2.145   1.102  0.00  0.00    +0.095 A 
ATOM      3  C   UNL     1      -5.156  -2.689   1.071  0.00  0.00    +0.135 A 
ATOM      4  N   UNL     1      -5.682  -3.082  -0.078  0.00  0.00    -0.224 NA
ATOM      5  C   UNL     1      -5.021  -2.979  -1.212  0.00  0.00    +0.113 A 
ATOM      6  C   UNL     1      -3.713  -2.442  -1.292  0.00  0.00    +0.034 A 
ATOM      7  C   UNL     1      -3.142  -2.401  -2.629  0.00  0.00    +0.052 A 
ATOM      8  C   UNL     1      -3.906  -2.872  -3.681  0.00  0.00    +0.083 A 
ATOM      9  S   UNL     1      -5.415  -3.397  -2.893  0.00  0.00    -0.063 S 
ENDROOT
BRANCH   7  10
ATOM     10  N   UNL     1      -1.868  -1.904  -2.843  0.00  0.00    -0.356 N 
ATOM     11  H   UNL     1      -1.246  -1.827  -2.103  0.00  0.00    +0.142 HD
ATOM     12  H   UNL     1      -1.597  -1.632  -3.734  0.00  0.00    +0.142 HD
ENDBRANCH   7  10
BRANCH   3  13
ATOM     13  N   UNL     1      -5.880  -2.813   2.241  0.00  0.00    -0.342 N 
ATOM     14  H   UNL     1      -5.494  -2.526   3.083  0.00  0.00    +0.144 HD
ATOM     15  H   UNL     1      -6.775  -3.187   2.220  0.00  0.00    +0.144 HD
ENDBRANCH   3  13
BRANCH   8  16
ATOM     16  C   UNL     1      -3.568  -2.931  -5.051  0.00  0.00    +0.202 C 
ATOM     17  O   UNL     1      -2.445  -2.629  -5.414  0.00  0.00    -0.286 OA
BRANCH  16  18
ATOM     18  C   UNL     1      -4.577  -3.360  -6.044  0.00  0.00    +0.023 A 
ATOM     19  C   UNL     1      -5.937  -3.210  -5.771  0.00  0.00    +0.012 A 
ATOM     20  C   UNL     1      -6.873  -3.612  -6.701  0.00  0.00    +0.001 A 
ATOM     21  C   UNL     1      -6.465  -4.163  -7.904  0.00  0.00    +0.000 A 
ATOM     22  C   UNL     1      -5.118  -4.314  -8.181  0.00  0.00    +0.001 A 
ATOM     23  C   UNL     1      -4.172  -3.911  -7.261  0.00  0.00    +0.012 A 
ENDBRANCH  16  18
ENDBRANCH   8  16
BRANCH   2  24
ATOM     24  C   UNL     1      -3.284  -1.721   2.345  0.00  0.00    +0.103 C 
ATOM     25  N   UNL     1      -2.832  -1.384   3.331  0.00  0.00    -0.191 NA
ENDBRANCH   2  24
BRANCH   1  26
ATOM     26  C   UNL     1      -1.736  -1.442  -0.056  0.00  0.00    +0.037 C 
BRANCH  26  27
ATOM     27  C   UNL     1      -0.713  -2.575   0.046  0.00  0.00    +0.004 C 
BRANCH  27  29
ATOM     28  C   UNL     1       1.723  -3.120   0.168  0.00  0.00    +0.004 C 
ATOM     29  C   UNL     1       0.700  -1.987   0.066  0.00  0.00    -0.003 C 
ENDBRANCH  27  29
ENDBRANCH  26  27
ENDBRANCH   1  26
TORSDOF 8
