REMARK  Name = ZINC01872388
REMARK  9 active torsions:
REMARK  status: ('A' for Active; 'I' for Inactive)
REMARK    1  A    between atoms: C_1  and  C_2
REMARK    2  A    between atoms: C_2  and  C_3
REMARK    3  A    between atoms: C_3  and  C_33
REMARK    4  A    between atoms: C_13  and  S_19
REMARK    5  A    between atoms: C_15  and  S_17
REMARK    6  A    between atoms: S_17  and  C_18
REMARK    7  A    between atoms: S_19  and  C_20
REMARK    8  A    between atoms: C_20  and  C_21
REMARK    9  A    between atoms: N_23  and  C_24
REMARK                            x       y       z     vdW  Elec       q    Type
REMARK                         _______ _______ _______ _____ _____    ______ ____
ROOT
ATOM      1  C   UNL     1       0.769  -0.483  -1.245  0.00  0.00    +0.071 C 
ATOM      2  C   UNL     1       0.795  -2.014  -1.242  0.00  0.00    +0.071 C 
ATOM      3  C   UNL     1       1.290  -2.481  -2.609  0.00  0.00    -0.019 A 
ATOM      4  C   UNL     1       1.268  -1.622  -3.655  0.00  0.00    +0.021 A 
ATOM      5  S   UNL     1       1.914  -2.548  -5.018  0.00  0.00    -0.071 S 
ATOM      6  C   UNL     1       2.213  -4.084  -4.177  0.00  0.00    +0.115 A 
ATOM      7  C   UNL     1       1.798  -3.823  -2.863  0.00  0.00    +0.056 A 
ATOM      8  C   UNL     1       1.940  -4.957  -1.924  0.00  0.00    +0.174 A 
ATOM      9  N   UNL     1       1.678  -5.123  -0.651  0.00  0.00    -0.128 NA
ATOM     10  N   UNL     1       1.989  -6.322  -0.297  0.00  0.00    -0.122 NA
ATOM     11  C   UNL     1       2.467  -6.990  -1.321  0.00  0.00    +0.198 A 
ATOM     12  N   UNL     1       2.453  -6.145  -2.397  0.00  0.00    -0.248 N 
ATOM     13  C   UNL     1       2.821  -6.269  -3.711  0.00  0.00    +0.177 A 
ATOM     14  N   UNL     1       2.696  -5.267  -4.550  0.00  0.00    -0.216 NA
ATOM     15  C   UNL     1       0.792  -0.203  -3.626  0.00  0.00    +0.203 C 
ATOM     16  O   UNL     1       0.073  -0.004  -2.399  0.00  0.00    -0.368 OA
ATOM     17  C   UNL     1       2.205   0.045  -1.263  0.00  0.00    +0.042 C 
ENDROOT
BRANCH   1  19
ATOM     18  C   UNL     1       0.050   1.544   0.026  0.00  0.00    +0.007 C 
ATOM     19  C   UNL     1       0.061   0.015   0.017  0.00  0.00    +0.032 C 
ENDBRANCH   1  19
BRANCH  13  20
ATOM     20  S   UNL     1       3.473  -7.801  -4.285  0.00  0.00    -0.091 S 
ATOM     21  C   UNL     1       3.811  -7.503  -6.042  0.00  0.00    +0.093 C 
ENDBRANCH  13  20
BRANCH  11  22
ATOM     22  S   UNL     1       3.022  -8.662  -1.311  0.00  0.00    -0.076 S 
BRANCH  22  23
ATOM     23  C   UNL     1       2.773  -9.198   0.404  0.00  0.00    +0.173 C 
BRANCH  23  24
ATOM     24  C   UNL     1       3.214 -10.631   0.552  0.00  0.00    +0.227 C 
ATOM     25  O   UNL     1       3.654 -11.232  -0.405  0.00  0.00    -0.275 OA
ATOM     26  N   UNL     1       3.121 -11.245   1.749  0.00  0.00    -0.285 N 
ATOM     27  H   UNL     1       2.833 -10.745   2.529  0.00  0.00    +0.155 HD
BRANCH  26  28
ATOM     28  C   UNL     1       3.439 -12.603   1.865  0.00  0.00    +0.033 A 
ATOM     29  C   UNL     1       2.729 -13.410   2.744  0.00  0.00    +0.024 A 
ATOM     30  C   UNL     1       3.044 -14.750   2.856  0.00  0.00    +0.017 A 
ATOM     31  C   UNL     1       4.067 -15.288   2.095  0.00  0.00    +0.018 A 
ATOM     32  C   UNL     1       4.776 -14.485   1.219  0.00  0.00    +0.017 A 
ATOM     33  C   UNL     1       4.462 -13.146   1.099  0.00  0.00    +0.024 A 
ATOM     34 BR   UNL     1       4.497 -17.123   2.253  0.00  0.00    -0.050 Br
ENDBRANCH  26  28
ENDBRANCH  23  24
ENDBRANCH  22  23
ENDBRANCH  11  22
TORSDOF 6
