REMARK  Name = ZINC39992572
REMARK  13 active torsions:
REMARK  status: ('A' for Active; 'I' for Inactive)
REMARK    1  A    between atoms: C_1  and  C_2
REMARK    2  A    between atoms: C_2  and  C_3
REMARK    3  A    between atoms: C_3  and  C_4
REMARK    4  A    between atoms: C_7  and  C_10
REMARK    5  A    between atoms: C_10  and  C_12
REMARK    6  A    between atoms: C_10  and  N_17
REMARK    7  A    between atoms: N_17  and  C_18
REMARK    8  A    between atoms: C_18  and  C_20
REMARK    9  A    between atoms: C_18  and  C_21
REMARK   10  A    between atoms: N_23  and  C_24
REMARK   11  A    between atoms: C_25  and  C_37
REMARK   12  A    between atoms: N_26  and  C_36
REMARK   13  A    between atoms: N_27  and  C_30
REMARK                            x       y       z     vdW  Elec       q    Type
REMARK                         _______ _______ _______ _____ _____    ______ ____
ROOT
ATOM      1  C   UNL     1      -0.682  -8.165  -1.381  0.00  0.00    +0.014 C 
ATOM      2  C   UNL     1       0.098  -8.235  -0.066  0.00  0.00    -0.004 C 
ENDROOT
BRANCH   1   3
ATOM      3  C   UNL     1      -2.052  -8.761  -1.185  0.00  0.00    +0.203 C 
ATOM      4  O   UNL     1      -3.041  -8.085  -1.374  0.00  0.00    -0.277 OA
ATOM      5  N   UNL     1      -2.179 -10.046  -0.798  0.00  0.00    -0.281 N 
ATOM      6  H   UNL     1      -1.392 -10.608  -0.718  0.00  0.00    +0.155 HD
BRANCH   5   7
ATOM      7  C   UNL     1      -3.454 -10.573  -0.512  0.00  0.00    +0.121 A 
ATOM      8  C   UNL     1      -4.031 -11.642  -1.104  0.00  0.00    +0.059 A 
ATOM      9  N   UNL     1      -5.269 -11.835  -0.549  0.00  0.00    -0.282 N 
ATOM     10  N   UNL     1      -5.489 -10.859   0.430  0.00  0.00    -0.216 N 
ATOM     11  C   UNL     1      -4.397 -10.069   0.487  0.00  0.00    +0.293 A 
ATOM     12  O   UNL     1      -4.229  -9.117   1.228  0.00  0.00    -0.264 OA
ATOM     13  C   UNL     1      -6.211 -12.893  -0.920  0.00  0.00    +0.171 C 
ATOM     14  C   UNL     1      -3.417 -12.482  -2.195  0.00  0.00    +0.067 C 
BRANCH  10  15
ATOM     15  C   UNL     1      -6.639 -10.728   1.214  0.00  0.00    +0.067 A 
ATOM     16  C   UNL     1      -7.269  -9.495   1.327  0.00  0.00    +0.028 A 
ATOM     17  C   UNL     1      -8.404  -9.369   2.103  0.00  0.00    +0.002 A 
ATOM     18  C   UNL     1      -8.915 -10.470   2.768  0.00  0.00    +0.000 A 
ATOM     19  C   UNL     1      -8.290 -11.698   2.658  0.00  0.00    +0.002 A 
ATOM     20  C   UNL     1      -7.158 -11.832   1.879  0.00  0.00    +0.028 A 
ENDBRANCH  10  15
ENDBRANCH   5   7
ENDBRANCH   1   3
BRANCH   1  21
ATOM     21  N   UNL     1      -0.813  -6.763  -1.799  0.00  0.00    +0.394 N 
ATOM     22  H   UNL     1      -1.233  -6.228  -1.053  0.00  0.00    -0.083 HD
ATOM     23  H   UNL     1      -1.396  -6.710  -2.620  0.00  0.00    -0.083 HD
BRANCH  21  24
ATOM     24  C   UNL     1       0.516  -6.217  -2.105  0.00  0.00    -0.002 C 
BRANCH  24  28
ATOM     25  C   UNL     1       0.176  -2.051  -2.985  0.00  0.00    -0.047 A 
ATOM     26  C   UNL     1       1.240  -2.514  -2.234  0.00  0.00    +0.004 A 
ATOM     27  C   UNL     1       1.350  -3.862  -1.949  0.00  0.00    +0.002 A 
ATOM     28  C   UNL     1       0.396  -4.747  -2.415  0.00  0.00    -0.057 A 
ATOM     29  C   UNL     1      -0.669  -4.284  -3.166  0.00  0.00    +0.002 A 
ATOM     30  C   UNL     1      -0.781  -2.935  -3.447  0.00  0.00    +0.004 A 
BRANCH  25  31
ATOM     31  C   UNL     1       0.057  -0.581  -3.296  0.00  0.00    +0.035 C 
BRANCH  31  33
ATOM     32  C   UNL     1      -0.867   1.602  -2.507  0.00  0.00    +0.004 C 
ATOM     33  C   UNL     1      -0.746   0.110  -2.192  0.00  0.00    +0.001 C 
ENDBRANCH  31  33
ENDBRANCH  25  31
ENDBRANCH  24  28
BRANCH  24  34
ATOM     34  C   UNL     1       1.091  -6.936  -3.298  0.00  0.00    -0.020 A 
ATOM     35  C   UNL     1       2.364  -7.351  -3.512  0.00  0.00    +0.010 A 
ATOM     36  C   UNL     1       2.668  -8.000  -4.694  0.00  0.00    +0.008 A 
ATOM     37  C   UNL     1       1.684  -8.202  -5.605  0.00  0.00    +0.045 A 
ATOM     38  S   UNL     1       0.273  -7.470  -4.792  0.00  0.00    -0.103 S 
ENDBRANCH  24  34
ENDBRANCH  21  24
ENDBRANCH   1  21
TORSDOF 9
