REMARK  Name = ZINC00749323
REMARK  9 active torsions:
REMARK  status: ('A' for Active; 'I' for Inactive)
REMARK    1  A    between atoms: C_1  and  C_2
REMARK    2  A    between atoms: C_7  and  C_8
REMARK    3  A    between atoms: C_8  and  S_9
REMARK    4  A    between atoms: S_9  and  C_10
REMARK    5  A    between atoms: C_13  and  C_24
REMARK    6  A    between atoms: N_14  and  C_15
REMARK    7  A    between atoms: C_18  and  N_21
REMARK    8  A    between atoms: C_24  and  N_25
REMARK    9  A    between atoms: N_28  and  C_29
REMARK                            x       y       z     vdW  Elec       q    Type
REMARK                         _______ _______ _______ _____ _____    ______ ____
ROOT
ATOM      1  C   UNL     1      -1.415   1.183   4.545  0.00  0.00    +0.196 A 
ATOM      2  N   UNL     1      -0.240   1.481   5.051  0.00  0.00    -0.122 NA
ATOM      3  N   UNL     1      -0.389   2.115   6.158  0.00  0.00    -0.132 NA
ATOM      4  C   UNL     1      -1.656   2.251   6.431  0.00  0.00    +0.156 A 
ATOM      5  N   UNL     1      -2.357   1.662   5.412  0.00  0.00    -0.273 N 
ENDROOT
BRANCH   5   6
ATOM      6  C   UNL     1      -3.751   1.568   5.286  0.00  0.00    +0.050 A 
ATOM      7  C   UNL     1      -4.514   2.718   5.130  0.00  0.00    +0.028 A 
ATOM      8  C   UNL     1      -5.886   2.622   5.001  0.00  0.00    +0.035 A 
ATOM      9  C   UNL     1      -6.500   1.384   5.037  0.00  0.00    +0.126 A 
ATOM     10  C   UNL     1      -5.744   0.238   5.198  0.00  0.00    +0.035 A 
ATOM     11  C   UNL     1      -4.371   0.327   5.322  0.00  0.00    +0.028 A 
BRANCH   9  12
ATOM     12  N   UNL     1      -7.971   1.285   4.904  0.00  0.00    +0.056 N 
ATOM     13  O   UNL     1      -8.514   0.195   4.937  0.00  0.00    -0.126 OA
ATOM     14  O   UNL     1      -8.639   2.294   4.763  0.00  0.00    -0.126 OA
ENDBRANCH   9  12
ENDBRANCH   5   6
BRANCH   1  15
ATOM     15  S   UNL     1      -1.718   0.322   3.038  0.00  0.00    -0.081 S 
BRANCH  15  16
ATOM     16  C   UNL     1      -0.017   0.036   2.490  0.00  0.00    +0.112 C 
BRANCH  16  23
ATOM     17  C   UNL     1      -0.061   1.498  -0.002  0.00  0.00    +0.044 C 
ATOM     18  C   UNL     1      -0.050  -0.009  -0.012  0.00  0.00    -0.046 A 
ATOM     19  C   UNL     1      -0.067  -0.693  -1.214  0.00  0.00    +0.003 A 
ATOM     20  C   UNL     1      -0.052  -2.075  -1.223  0.00  0.00    +0.000 A 
ATOM     21  C   UNL     1      -0.031  -2.774  -0.031  0.00  0.00    +0.000 A 
ATOM     22  C   UNL     1      -0.019  -2.091   1.171  0.00  0.00    +0.005 A 
ATOM     23  C   UNL     1      -0.029  -0.709   1.180  0.00  0.00    -0.034 A 
ENDBRANCH  16  23
ENDBRANCH  15  16
ENDBRANCH   1  15
BRANCH   4  24
ATOM     24  C   UNL     1      -2.241   2.931   7.642  0.00  0.00    +0.182 C 
BRANCH  24  25
ATOM     25  N   UNL     1      -2.413   1.950   8.717  0.00  0.00    -0.292 N 
ATOM     26  C   UNL     1      -2.925   2.333   9.903  0.00  0.00    +0.304 C 
ATOM     27  O   UNL     1      -3.244   3.493  10.082  0.00  0.00    -0.252 OA
ATOM     28  N   UNL     1      -3.083   1.431  10.892  0.00  0.00    -0.269 N 
ATOM     29  H   UNL     1      -2.125   0.901   8.556  0.00  0.00    +0.151 HD
ATOM     30  H   UNL     1      -2.866   0.369  10.707  0.00  0.00    +0.156 HD
BRANCH  28  31
ATOM     31  C   UNL     1      -3.523   1.847  12.155  0.00  0.00    +0.038 A 
ATOM     32  C   UNL     1      -3.045   1.220  13.299  0.00  0.00    +0.026 A 
ATOM     33  C   UNL     1      -3.475   1.634  14.544  0.00  0.00    +0.043 A 
ATOM     34  C   UNL     1      -4.391   2.665  14.654  0.00  0.00    +0.159 A 
ATOM     35  C   UNL     1      -4.875   3.290  13.514  0.00  0.00    +0.160 A 
ATOM     36  C   UNL     1      -4.441   2.881  12.265  0.00  0.00    +0.064 A 
ATOM     37  F   UNL     1      -5.768   4.297  13.623  0.00  0.00    -0.202 F 
ATOM     38  F   UNL     1      -4.815   3.064  15.873  0.00  0.00    -0.202 F 
ENDBRANCH  28  31
ENDBRANCH  24  25
ENDBRANCH   4  24
TORSDOF 8
