REMARK  Name = ZINC35755420
REMARK  12 active torsions:
REMARK  status: ('A' for Active; 'I' for Inactive)
REMARK    1  A    between atoms: C_1  and  C_2
REMARK    2  A    between atoms: C_2  and  C_3
REMARK    3  A    between atoms: C_3  and  N_4
REMARK    4  A    between atoms: C_5  and  C_7
REMARK    5  A    between atoms: C_9  and  C_23
REMARK    6  A    between atoms: N_14  and  C_15
REMARK    7  A    between atoms: C_15  and  C_16
REMARK    8  A    between atoms: C_19  and  C_22
REMARK    9  A    between atoms: C_27  and  N_29
REMARK   10  A    between atoms: C_30  and  C_32
REMARK   11  A    between atoms: C_32  and  C_33
REMARK   12  A    between atoms: C_32  and  C_34
REMARK                            x       y       z     vdW  Elec       q    Type
REMARK                         _______ _______ _______ _____ _____    ______ ____
ROOT
ATOM      1  C   UNL     1       1.387  -4.141   2.227  0.00  0.00    +0.210 C 
ATOM      2  C   UNL     1       0.068  -4.709   2.802  0.00  0.00    +0.238 C 
ATOM      3  O   UNL     1       0.405  -4.901   4.190  0.00  0.00    -0.440 OA
ATOM      4  C   UNL     1       1.733  -5.085   4.274  0.00  0.00    +0.405 C 
ATOM      5  O   UNL     1       2.282  -5.589   5.234  0.00  0.00    -0.226 OA
ATOM      6  N   UNL     1       2.394  -4.652   3.178  0.00  0.00    -0.248 N 
ENDROOT
BRANCH   2   7
ATOM      7  C   UNL     1      -1.056  -3.716   2.653  0.00  0.00    -0.003 A 
ATOM      8  C   UNL     1      -1.173  -2.666   3.545  0.00  0.00    +0.007 A 
ATOM      9  C   UNL     1      -2.202  -1.752   3.410  0.00  0.00    +0.002 A 
ATOM     10  C   UNL     1      -3.117  -1.886   2.384  0.00  0.00    +0.023 A 
ATOM     11  C   UNL     1      -3.002  -2.940   1.487  0.00  0.00    +0.034 A 
ATOM     12  C   UNL     1      -1.964  -3.852   1.621  0.00  0.00    +0.030 A 
BRANCH  11  13
ATOM     13  N   UNL     1      -3.927  -3.078   0.446  0.00  0.00    -0.285 N 
ATOM     14  C   UNL     1      -5.217  -2.742   0.642  0.00  0.00    +0.220 C 
ATOM     15  O   UNL     1      -5.560  -2.241   1.692  0.00  0.00    -0.275 OA
ATOM     16  H   UNL     1      -3.640  -3.417  -0.416  0.00  0.00    +0.155 HD
BRANCH  14  17
ATOM     17  C   UNL     1      -6.233  -2.988  -0.443  0.00  0.00    +0.069 C 
ATOM     18  C   UNL     1      -7.610  -2.520   0.032  0.00  0.00    +0.017 C 
ATOM     19  C   UNL     1      -5.836  -2.212  -1.700  0.00  0.00    +0.017 C 
ENDBRANCH  14  17
ENDBRANCH  11  13
ENDBRANCH   2   7
BRANCH   1  21
ATOM     20  N   UNL     1       0.763  -1.971   1.218  0.00  0.00    -0.314 N 
ATOM     21  C   UNL     1       1.367  -2.635   2.224  0.00  0.00    +0.238 C 
ATOM     22  O   UNL     1       1.894  -2.019   3.126  0.00  0.00    -0.274 OA
ATOM     23  H   UNL     1       0.342  -2.463   0.496  0.00  0.00    +0.149 HD
BRANCH  20  24
ATOM     24  C   UNL     1       0.744  -0.506   1.215  0.00  0.00    +0.104 C 
BRANCH  24  26
ATOM     25  C   UNL     1      -0.019   1.522  -0.030  0.00  0.00    +0.005 C 
ATOM     26  C   UNL     1       0.002  -0.008  -0.027  0.00  0.00    +0.015 C 
ENDBRANCH  24  26
ENDBRANCH  20  24
ENDBRANCH   1  21
BRANCH   6  27
ATOM     27  C   UNL     1       3.844  -4.682   2.969  0.00  0.00    +0.147 C 
BRANCH  27  28
ATOM     28  C   UNL     1       4.451  -3.398   3.474  0.00  0.00    -0.030 A 
ATOM     29  C   UNL     1       4.579  -2.314   2.626  0.00  0.00    +0.005 A 
ATOM     30  C   UNL     1       5.136  -1.137   3.090  0.00  0.00    +0.003 A 
ATOM     31  C   UNL     1       5.565  -1.044   4.400  0.00  0.00    -0.050 A 
ATOM     32  C   UNL     1       5.437  -2.128   5.248  0.00  0.00    +0.003 A 
ATOM     33  C   UNL     1       4.875  -3.304   4.786  0.00  0.00    +0.005 A 
ATOM     34  C   UNL     1       6.173   0.239   4.905  0.00  0.00    +0.044 C 
ENDBRANCH  27  28
ENDBRANCH   6  27
TORSDOF 8
