REMARK  Name = ZINC48183806
REMARK  6 active torsions:
REMARK  status: ('A' for Active; 'I' for Inactive)
REMARK    1  A    between atoms: C_1  and  C_2
REMARK    2  A    between atoms: C_2  and  C_3
REMARK    3  A    between atoms: N_15  and  C_16
REMARK    4  A    between atoms: C_19  and  C_23
REMARK    5  A    between atoms: C_21  and  C_22
REMARK    6  A    between atoms: N_25  and  C_26
REMARK                            x       y       z     vdW  Elec       q    Type
REMARK                         _______ _______ _______ _____ _____    ______ ____
ROOT
ATOM      1  C   UNL     1      -1.728  -0.854  -2.458  0.00  0.00    +0.108 C 
ATOM      2  C   UNL     1      -0.213  -0.892  -2.268  0.00  0.00    -0.017 A 
ATOM      3  C   UNL     1       0.684  -1.066  -3.321  0.00  0.00    +0.013 A 
ATOM      4  C   UNL     1       2.015  -1.094  -3.079  0.00  0.00    +0.046 A 
ATOM      5  S   UNL     1       2.071  -0.871  -1.307  0.00  0.00    -0.101 S 
ATOM      6  C   UNL     1       0.323  -0.754  -1.026  0.00  0.00    -0.004 A 
ATOM      7  C   UNL     1      -0.397  -0.549   0.268  0.00  0.00    +0.062 C 
ATOM      8  C   UNL     1      -1.876  -0.914   0.071  0.00  0.00    +0.115 C 
ATOM      9  N   UNL     1      -2.325  -0.352  -1.213  0.00  0.00    -0.278 N 
ATOM     10  C   UNL     1      -3.268   0.610  -1.247  0.00  0.00    +0.307 C 
ATOM     11  O   UNL     1      -3.821   0.956  -0.221  0.00  0.00    -0.252 OA
ATOM     12  N   UNL     1      -3.598   1.190  -2.418  0.00  0.00    -0.269 N 
ATOM     13  H   UNL     1      -3.207   0.868  -3.245  0.00  0.00    +0.156 HD
ENDROOT
BRANCH  12  14
ATOM     14  C   UNL     1      -4.502   2.251  -2.441  0.00  0.00    +0.038 A 
ATOM     15  C   UNL     1      -4.760   2.968  -1.276  0.00  0.00    +0.024 A 
ATOM     16  C   UNL     1      -5.652   4.016  -1.295  0.00  0.00    +0.015 A 
ATOM     17  C   UNL     1      -6.297   4.361  -2.486  0.00  0.00    +0.037 A 
ATOM     18  C   UNL     1      -6.035   3.640  -3.654  0.00  0.00    +0.018 A 
ATOM     19  C   UNL     1      -5.138   2.595  -3.629  0.00  0.00    -0.028 A 
ATOM     20  C   UNL     1      -4.851   1.820  -4.889  0.00  0.00    +0.045 C 
BRANCH  17  21
ATOM     21  C   UNL     1      -7.254   5.484  -2.510  0.00  0.00    +0.244 C 
ATOM     22  O   UNL     1      -7.815   5.783  -3.546  0.00  0.00    -0.270 OA
ATOM     23  N   UNL     1      -7.507   6.179  -1.383  0.00  0.00    -0.314 N 
ATOM     24  C   UNL     1      -8.457   7.294  -1.406  0.00  0.00    +0.128 C 
ATOM     25  H   UNL     1      -7.059   5.940  -0.556  0.00  0.00    +0.149 HD
ENDBRANCH  17  21
ENDBRANCH  12  14
BRANCH   1  27
ATOM     26  C   UNL     1      -3.750  -2.201  -3.043  0.00  0.00    +0.006 C 
ATOM     27  C   UNL     1      -2.249  -2.263  -2.751  0.00  0.00    +0.024 C 
ENDBRANCH   1  27
TORSDOF 3
