REMARK  Name = ZINC02264489
REMARK  7 active torsions:
REMARK  status: ('A' for Active; 'I' for Inactive)
REMARK    1  A    between atoms: C_1  and  C_2
REMARK    2  A    between atoms: C_5  and  N_9
REMARK    3  A    between atoms: C_7  and  C_8
REMARK    4  A    between atoms: C_12  and  C_16
REMARK    5  A    between atoms: C_12  and  N_20
REMARK    6  A    between atoms: C_14  and  O_15
REMARK    7  A    between atoms: C_21  and  C_23
REMARK                            x       y       z     vdW  Elec       q    Type
REMARK                         _______ _______ _______ _____ _____    ______ ____
ROOT
ATOM      1  N   UNL     1       0.059  -4.172  -0.021  0.00  0.00    -0.191 N 
ATOM      2  C   UNL     1      -0.029  -4.935  -1.131  0.00  0.00    +0.283 C 
ATOM      3  O   UNL     1      -0.135  -4.559  -2.279  0.00  0.00    -0.270 OA
ATOM      4  C   UNL     1       0.036  -6.365  -0.631  0.00  0.00    +0.304 C 
ATOM      5  N   UNL     1       0.163  -6.224   0.828  0.00  0.00    -0.192 NA
ATOM      6  C   UNL     1       0.174  -4.958   1.099  0.00  0.00    +0.292 C 
ENDROOT
BRANCH   1  11
ATOM      7  C   UNL     1      -0.015   1.503   0.010  0.00  0.00    +0.044 C 
ATOM      8  C   UNL     1       0.005  -0.004   0.002  0.00  0.00    -0.047 A 
ATOM      9  C   UNL     1      -0.002  -0.701   1.197  0.00  0.00    +0.005 A 
ATOM     10  C   UNL     1       0.016  -2.082   1.192  0.00  0.00    +0.024 A 
ATOM     11  C   UNL     1       0.040  -2.771  -0.013  0.00  0.00    +0.046 A 
ATOM     12  C   UNL     1       0.046  -2.068  -1.211  0.00  0.00    +0.027 A 
ATOM     13  C   UNL     1       0.024  -0.687  -1.200  0.00  0.00    -0.046 A 
ATOM     14  C   UNL     1       0.025   0.076  -2.499  0.00  0.00    +0.044 C 
ENDBRANCH   1  11
BRANCH   4  15
ATOM     15  C   UNL     1       1.258  -7.081  -1.209  0.00  0.00    +0.440 C 
ATOM     16  F   UNL     1       2.421  -6.410  -0.817  0.00  0.00    -0.166 F 
ATOM     17  F   UNL     1       1.296  -8.397  -0.735  0.00  0.00    -0.166 F 
ATOM     18  F   UNL     1       1.175  -7.092  -2.606  0.00  0.00    -0.166 F 
ENDBRANCH   4  15
BRANCH   4  19
ATOM     19  N   UNL     1      -1.193  -7.085  -0.973  0.00  0.00    -0.273 N 
ATOM     20  C   UNL     1      -1.556  -7.224  -2.264  0.00  0.00    +0.246 C 
ATOM     21  O   UNL     1      -0.863  -6.752  -3.144  0.00  0.00    -0.270 OA
ATOM     22  H   UNL     1      -1.746  -7.462  -0.271  0.00  0.00    +0.152 HD
BRANCH  20  23
ATOM     23  C   UNL     1      -2.796  -7.950  -2.609  0.00  0.00    +0.037 A 
ATOM     24  C   UNL     1      -3.596  -8.489  -1.600  0.00  0.00    +0.014 A 
ATOM     25  C   UNL     1      -4.753  -9.165  -1.928  0.00  0.00    +0.021 A 
ATOM     26  C   UNL     1      -5.120  -9.311  -3.255  0.00  0.00    +0.041 A 
ATOM     27  C   UNL     1      -4.330  -8.779  -4.261  0.00  0.00    +0.021 A 
ATOM     28  C   UNL     1      -3.174  -8.095  -3.945  0.00  0.00    +0.014 A 
ATOM     29 CL   UNL     1      -6.576 -10.165  -3.661  0.00  0.00    -0.084 Cl
ENDBRANCH  20  23
ENDBRANCH   4  19
BRANCH   6  30
ATOM     30  O   UNL     1       0.283  -4.463   2.352  0.00  0.00    -0.481 OA
ATOM     31  H   UNL     1       0.356  -5.141   3.037  0.00  0.00    +0.295 HD
ENDBRANCH   6  30
TORSDOF 5
