REMARK  Name = ZINC40038606
REMARK  12 active torsions:
REMARK  status: ('A' for Active; 'I' for Inactive)
REMARK    1  A    between atoms: C_1  and  C_2
REMARK    2  A    between atoms: C_2  and  C_3
REMARK    3  A    between atoms: C_3  and  C_4
REMARK    4  A    between atoms: C_4  and  C_5
REMARK    5  A    between atoms: C_8  and  C_11
REMARK    6  A    between atoms: N_13  and  C_14
REMARK    7  A    between atoms: C_15  and  C_28
REMARK    8  A    between atoms: C_20  and  C_24
REMARK    9  A    between atoms: C_24  and  C_25
REMARK   10  A    between atoms: C_24  and  C_26
REMARK   11  A    between atoms: C_24  and  C_27
REMARK   12  A    between atoms: N_30  and  C_31
REMARK                            x       y       z     vdW  Elec       q    Type
REMARK                         _______ _______ _______ _____ _____    ______ ____
ROOT
ATOM      1  C   UNL     1       4.876  -6.617   1.154  0.00  0.00    +0.084 A 
ATOM      2  C   UNL     1       5.001  -7.954   0.812  0.00  0.00    +0.069 A 
ATOM      3  C   UNL     1       5.657  -8.260  -0.447  0.00  0.00    -0.023 A 
ATOM      4  C   UNL     1       6.068  -7.172  -1.134  0.00  0.00    -0.004 A 
ATOM      5  S   UNL     1       5.584  -5.798  -0.130  0.00  0.00    -0.077 S 
ATOM      6  C   UNL     1       6.773  -7.156  -2.455  0.00  0.00    +0.046 C 
ATOM      7  C   UNL     1       7.296  -8.572  -2.740  0.00  0.00    -0.000 C 
ATOM      8  C   UNL     1       6.170  -9.577  -2.484  0.00  0.00    +0.009 C 
ATOM      9  C   UNL     1       5.881  -9.666  -0.984  0.00  0.00    +0.037 C 
ENDROOT
BRANCH   1  12
ATOM     10  C   UNL     1       4.256  -4.741   2.460  0.00  0.00    +0.221 C 
ATOM     11  O   UNL     1       4.729  -4.010   1.616  0.00  0.00    -0.275 OA
ATOM     12  N   UNL     1       4.295  -6.078   2.292  0.00  0.00    -0.279 N 
ATOM     13  H   UNL     1       3.917  -6.663   2.966  0.00  0.00    +0.155 HD
BRANCH  10  17
ATOM     14  C   UNL     1       1.503  -2.548   2.473  0.00  0.00    -0.011 C 
ATOM     15  C   UNL     1       2.971  -2.123   2.400  0.00  0.00    +0.004 C 
ATOM     16  C   UNL     1       3.711  -2.629   3.639  0.00  0.00    +0.013 C 
ATOM     17  C   UNL     1       3.624  -4.156   3.696  0.00  0.00    +0.075 C 
ATOM     18  C   UNL     1       2.156  -4.581   3.769  0.00  0.00    +0.013 C 
ATOM     19  C   UNL     1       1.416  -4.074   2.530  0.00  0.00    +0.004 C 
BRANCH  14  20
ATOM     20  C   UNL     1       0.763  -2.041   1.233  0.00  0.00    +0.003 C 
BRANCH  20  21
ATOM     21  C   UNL     1       0.742  -0.511   1.242  0.00  0.00    +0.000 C 
BRANCH  21  23
ATOM     22  C   UNL     1      -0.019   1.526   0.010  0.00  0.00    +0.004 C 
ATOM     23  C   UNL     1       0.002  -0.004   0.002  0.00  0.00    -0.003 C 
ENDBRANCH  21  23
ENDBRANCH  20  21
ENDBRANCH  14  20
ENDBRANCH  10  17
ENDBRANCH   1  12
BRANCH   7  24
ATOM     24  C   UNL     1       7.750  -8.666  -4.198  0.00  0.00    -0.035 C 
ATOM     25  C   UNL     1       8.866  -7.651  -4.452  0.00  0.00    +0.011 C 
ATOM     26  C   UNL     1       8.272 -10.077  -4.479  0.00  0.00    +0.011 C 
ATOM     27  C   UNL     1       6.568  -8.366  -5.121  0.00  0.00    +0.011 C 
ENDBRANCH   7  24
BRANCH   2  28
ATOM     28  C   UNL     1       4.492  -9.016   1.686  0.00  0.00    +0.247 C 
ATOM     29  O   UNL     1       3.351  -9.418   1.555  0.00  0.00    -0.270 OA
ATOM     30  N   UNL     1       5.289  -9.548   2.635  0.00  0.00    -0.307 N 
ATOM     31  H   UNL     1       6.198  -9.227   2.739  0.00  0.00    +0.149 HD
BRANCH  30  32
ATOM     32  C   UNL     1       4.780 -10.609   3.508  0.00  0.00    +0.096 C 
ATOM     33  C   UNL     1       4.061  -9.987   4.716  0.00  0.00    +0.046 C 
ATOM     34  C   UNL     1       3.806 -11.069   5.793  0.00  0.00    +0.168 C 
ATOM     35  S   UNL     1       5.179 -12.258   5.504  0.00  0.00    -0.029 S 
ATOM     36  O   UNL     1       4.633 -13.510   5.114  0.00  0.00    -0.174 OA
ATOM     37  O   UNL     1       6.080 -12.199   6.601  0.00  0.00    -0.174 OA
ATOM     38  C   UNL     1       5.966 -11.465   4.038  0.00  0.00    +0.188 C 
ENDBRANCH  30  32
ENDBRANCH   2  28
TORSDOF 8
