REMARK  Name = ZINC36580033
REMARK  9 active torsions:
REMARK  status: ('A' for Active; 'I' for Inactive)
REMARK    1  A    between atoms: C_1  and  O_2
REMARK    2  A    between atoms: O_2  and  C_3
REMARK    3  A    between atoms: C_3  and  C_5
REMARK    4  A    between atoms: C_5  and  C_7
REMARK    5  A    between atoms: C_5  and  N_11
REMARK    6  A    between atoms: C_7  and  C_8
REMARK    7  A    between atoms: C_8  and  S_9
REMARK    8  A    between atoms: S_9  and  C_10
REMARK    9  A    between atoms: C_23  and  C_25
REMARK                            x       y       z     vdW  Elec       q    Type
REMARK                         _______ _______ _______ _____ _____    ______ ____
ROOT
ATOM      1  N   UNL     1       3.489  -2.452  -1.589  0.00  0.00    -0.286 N 
ATOM      2  C   UNL     1       2.846  -2.815  -2.716  0.00  0.00    +0.304 C 
ATOM      3  O   UNL     1       1.641  -2.679  -2.800  0.00  0.00    -0.253 OA
ATOM      4  N   UNL     1       3.539  -3.328  -3.752  0.00  0.00    -0.273 N 
ATOM      5  C   UNL     1       2.880  -3.603  -5.037  0.00  0.00    +0.116 C 
ATOM      6  C   UNL     1       2.913  -5.113  -5.305  0.00  0.00    +0.074 C 
ATOM      7  C   UNL     1       4.293  -5.631  -4.995  0.00  0.00    +0.040 A 
ATOM      8  C   UNL     1       5.211  -4.982  -4.248  0.00  0.00    +0.062 A 
ATOM      9  N   UNL     1       6.308  -5.741  -4.186  0.00  0.00    -0.348 N 
ATOM     10  C   UNL     1       6.108  -6.838  -4.868  0.00  0.00    +0.171 A 
ATOM     11  N   UNL     1       4.860  -6.805  -5.390  0.00  0.00    -0.349 N 
ATOM     12  H   UNL     1       4.448  -7.488  -5.942  0.00  0.00    +0.166 HD
ATOM     13  C   UNL     1       4.978  -3.622  -3.625  0.00  0.00    +0.159 C 
ATOM     14  H   UNL     1       4.443  -2.603  -1.504  0.00  0.00    +0.151 HD
ATOM     15  H   UNL     1       7.122  -5.514  -3.709  0.00  0.00    +0.167 HD
ENDROOT
BRANCH  13  16
ATOM     16  C   UNL     1       5.782  -2.575  -4.354  0.00  0.00    +0.017 A 
ATOM     17  C   UNL     1       6.213  -2.810  -5.646  0.00  0.00    +0.009 A 
ATOM     18  C   UNL     1       6.949  -1.851  -6.316  0.00  0.00    +0.003 A 
ATOM     19  C   UNL     1       7.256  -0.655  -5.694  0.00  0.00    +0.041 A 
ATOM     20  C   UNL     1       6.826  -0.417  -4.401  0.00  0.00    +0.159 A 
ATOM     21  C   UNL     1       6.083  -1.377  -3.731  0.00  0.00    +0.164 A 
ATOM     22  F   UNL     1       5.657  -1.144  -2.470  0.00  0.00    -0.202 F 
ATOM     23  F   UNL     1       7.127   0.752  -3.793  0.00  0.00    -0.202 F 
ENDBRANCH  13  16
BRANCH   1  24
ATOM     24  C   UNL     1       2.746  -1.828  -0.490  0.00  0.00    +0.184 C 
BRANCH  24  25
ATOM     25  C   UNL     1       2.287  -2.892   0.473  0.00  0.00    +0.327 C 
ATOM     26  O   UNL     1       2.553  -4.052   0.264  0.00  0.00    -0.249 OA
BRANCH  25  28
ATOM     27  C   UNL     1       1.180  -3.611   2.434  0.00  0.00    +0.280 C 
ATOM     28  O   UNL     1       1.583  -2.551   1.564  0.00  0.00    -0.467 OA
ENDBRANCH  25  28
ENDBRANCH  24  25
BRANCH  24  29
ATOM     29  C   UNL     1       3.653  -0.836   0.240  0.00  0.00    +0.044 C 
BRANCH  29  30
ATOM     30  C   UNL     1       3.963   0.345  -0.682  0.00  0.00    +0.071 C 
BRANCH  30  31
ATOM     31  S   UNL     1       5.171   1.436   0.118  0.00  0.00    -0.164 S 
ATOM     32  C   UNL     1       5.428   2.767  -1.088  0.00  0.00    +0.084 C 
ENDBRANCH  30  31
ENDBRANCH  29  30
ENDBRANCH  24  29
ENDBRANCH   1  24
TORSDOF 7
