REMARK  Name = ZINC26728357
REMARK  5 active torsions:
REMARK  status: ('A' for Active; 'I' for Inactive)
REMARK    1  A    between atoms: C_8  and  C_10
REMARK    2  A    between atoms: N_15  and  C_18
REMARK    3  A    between atoms: C_18  and  C_19
REMARK    4  A    between atoms: N_21  and  C_22
REMARK    5  A    between atoms: C_23  and  C_31
REMARK                            x       y       z     vdW  Elec       q    Type
REMARK                         _______ _______ _______ _____ _____    ______ ____
ROOT
ATOM      1  C   UNL     1       7.126   7.316   1.541  0.00  0.00    +0.019 C 
ENDROOT
BRANCH   1   7
ATOM      2  C   UNL     1       3.873   3.250   0.014  0.00  0.00    +0.282 C 
ATOM      3  O   UNL     1       4.352   2.135   0.100  0.00  0.00    -0.267 OA
ATOM      4  N   UNL     1       4.680   4.324  -0.096  0.00  0.00    -0.299 N 
ATOM      5  C   UNL     1       4.130   5.688  -0.062  0.00  0.00    +0.089 C 
ATOM      6  C   UNL     1       4.917   6.498   0.980  0.00  0.00    -0.059 C 
ATOM      7  N   UNL     1       6.352   6.415   0.676  0.00  0.00    +0.387 N 
ATOM      8  C   UNL     1       6.840   5.034   0.784  0.00  0.00    -0.059 C 
ATOM      9  C   UNL     1       6.133   4.163  -0.260  0.00  0.00    +0.089 C 
ATOM     10  H   UNL     1       6.493   6.739  -0.365  0.00  0.00    -0.081 HD
BRANCH   2  18
ATOM     11  C   UNL     1      -2.161   3.478   0.193  0.00  0.00    +0.001 A 
ATOM     12  C   UNL     1      -1.929   4.811  -0.116  0.00  0.00    +0.004 A 
ATOM     13  C   UNL     1      -0.644   5.284  -0.274  0.00  0.00    +0.047 A 
ATOM     14  C   UNL     1       0.435   4.421  -0.119  0.00  0.00    +0.136 A 
ATOM     15  C   UNL     1       0.194   3.072   0.198  0.00  0.00    +0.021 A 
ATOM     16  C   UNL     1      -1.117   2.612   0.354  0.00  0.00    +0.011 A 
ATOM     17  C   UNL     1       1.511   2.445   0.290  0.00  0.00    +0.063 A 
ATOM     18  C   UNL     1       2.414   3.426   0.031  0.00  0.00    +0.191 A 
ATOM     19  O   UNL     1       1.769   4.587  -0.208  0.00  0.00    -0.450 OA
ENDBRANCH   2  18
ENDBRANCH   1   7
BRANCH   1  20
ATOM     20  C   UNL     1       6.937   6.915   2.981  0.00  0.00    +0.201 C 
ATOM     21  O   UNL     1       6.310   5.913   3.255  0.00  0.00    -0.278 OA
ATOM     22  N   UNL     1       7.466   7.669   3.966  0.00  0.00    -0.281 N 
ATOM     23  H   UNL     1       8.035   8.577   3.717  0.00  0.00    +0.155 HD
BRANCH  22  24
ATOM     24  C   UNL     1       7.292   7.300   5.291  0.00  0.00    +0.084 A 
ATOM     25  C   UNL     1       7.760   7.937   6.432  0.00  0.00    +0.068 A 
ATOM     26  C   UNL     1       7.432   7.341   7.716  0.00  0.00    -0.023 A 
ATOM     27  C   UNL     1       6.703   6.205   7.654  0.00  0.00    -0.004 A 
ATOM     28  S   UNL     1       6.445   5.927   5.924  0.00  0.00    -0.077 S 
ATOM     29  C   UNL     1       6.227   5.373   8.804  0.00  0.00    +0.043 C 
ATOM     30  C   UNL     1       7.004   5.795  10.060  0.00  0.00    +0.005 C 
ATOM     31  C   UNL     1       6.991   7.323  10.159  0.00  0.00    +0.005 C 
ATOM     32  C   UNL     1       7.865   7.923   9.056  0.00  0.00    +0.037 C 
BRANCH  25  33
ATOM     33  C   UNL     1       8.552   9.168   6.345  0.00  0.00    +0.244 C 
ATOM     34  O   UNL     1       7.996  10.250   6.352  0.00  0.00    -0.270 OA
ATOM     35  N   UNL     1       9.895   9.100   6.256  0.00  0.00    -0.325 N 
ATOM     36  H   UNL     1      10.489  10.024   6.191  0.00  0.00    +0.145 HD
ATOM     37  H   UNL     1      10.397   8.121   6.250  0.00  0.00    +0.145 HD
ENDBRANCH  25  33
ENDBRANCH  22  24
ENDBRANCH   1  20
TORSDOF 5
