REMARK  Name = ZINC34074931
REMARK  8 active torsions:
REMARK  status: ('A' for Active; 'I' for Inactive)
REMARK    1  A    between atoms: C_1  and  C_2
REMARK    2  A    between atoms: C_3  and  C_4
REMARK    3  A    between atoms: C_3  and  C_5
REMARK    4  A    between atoms: C_5  and  O_7
REMARK    5  A    between atoms: O_7  and  C_8
REMARK    6  A    between atoms: C_10  and  O_27
REMARK    7  A    between atoms: C_24  and  C_25
REMARK    8  A    between atoms: C_24  and  C_26
REMARK                            x       y       z     vdW  Elec       q    Type
REMARK                         _______ _______ _______ _____ _____    ______ ____
ROOT
ATOM      1  C   UNL     1       2.355   0.224  -4.169  0.00  0.00    +0.253 C 
ATOM      2  C   UNL     1       1.314   0.485  -5.260  0.00  0.00    +0.196 C 
ATOM      3  C   UNL     1       1.055  -0.785  -6.030  0.00  0.00    +0.069 A 
ATOM      4  C   UNL     1       1.935  -1.850  -5.984  0.00  0.00    +0.131 A 
ATOM      5  C   UNL     1       1.670  -3.013  -6.713  0.00  0.00    +0.047 A 
ATOM      6  C   UNL     1       0.545  -3.116  -7.476  0.00  0.00    +0.015 A 
ATOM      7  C   UNL     1      -0.357  -2.048  -7.530  0.00  0.00    +0.018 A 
ATOM      8  C   UNL     1      -0.099  -0.874  -6.801  0.00  0.00    +0.148 A 
ATOM      9  O   UNL     1      -0.964   0.161  -6.849  0.00  0.00    -0.422 OA
ATOM     10  C   UNL     1      -2.076   0.086  -7.590  0.00  0.00    +0.337 A 
ATOM     11  O   UNL     1      -2.832   1.041  -7.611  0.00  0.00    -0.245 OA
ATOM     12  C   UNL     1      -2.406  -1.056  -8.347  0.00  0.00    +0.092 A 
ATOM     13  C   UNL     1      -1.574  -2.131  -8.339  0.00  0.00    +0.018 A 
ATOM     14  O   UNL     1       3.067  -1.807  -5.235  0.00  0.00    -0.482 OA
ATOM     15  C   UNL     1       3.534  -0.529  -4.798  0.00  0.00    +0.144 C 
ATOM     16  C   UNL     1       4.643  -0.711  -3.761  0.00  0.00    +0.059 C 
ATOM     17  C   UNL     1       4.070   0.259  -5.995  0.00  0.00    +0.059 C 
ENDROOT
BRANCH   2  18
ATOM     18  O   UNL     1       1.801   1.490  -6.152  0.00  0.00    -0.383 OA
ATOM     19  H   UNL     1       1.192   1.707  -6.870  0.00  0.00    +0.210 HD
ENDBRANCH   2  18
BRANCH   1  20
ATOM     20  O   UNL     1       1.777  -0.568  -3.129  0.00  0.00    -0.451 OA
BRANCH  20  21
ATOM     21  C   UNL     1       1.194   0.093  -2.109  0.00  0.00    +0.335 C 
ATOM     22  O   UNL     1       1.177   1.308  -2.103  0.00  0.00    -0.245 OA
BRANCH  21  25
ATOM     23  C   UNL     1      -0.018   1.503   0.010  0.00  0.00    +0.036 C 
ATOM     24  C   UNL     1       0.002  -0.004   0.002  0.00  0.00    -0.020 C 
ATOM     25  C   UNL     1       0.578  -0.656  -1.005  0.00  0.00    +0.029 C 
ATOM     26  C   UNL     1       0.598  -2.163  -1.014  0.00  0.00    +0.051 C 
ENDBRANCH  21  25
ENDBRANCH  20  21
ENDBRANCH   1  20
TORSDOF 4
