REMARK  Name = ZINC47371784
REMARK  4 active torsions:
REMARK  status: ('A' for Active; 'I' for Inactive)
REMARK    1  A    between atoms: C_4  and  C_7
REMARK    2  A    between atoms: C_9  and  C_13
REMARK    3  A    between atoms: C_18  and  N_19
REMARK    4  A    between atoms: C_20  and  C_22
REMARK                            x       y       z     vdW  Elec       q    Type
REMARK                         _______ _______ _______ _____ _____    ______ ____
ROOT
ATOM      1  C   UNL     1       5.698  -3.709  -0.189  0.00  0.00    +0.040 A 
ATOM      2  C   UNL     1       7.077  -3.898  -0.280  0.00  0.00    +0.013 A 
ATOM      3  C   UNL     1       7.608  -5.165  -0.153  0.00  0.00    +0.001 A 
ATOM      4  C   UNL     1       6.778  -6.252   0.065  0.00  0.00    +0.002 A 
ATOM      5  C   UNL     1       5.411  -6.078   0.157  0.00  0.00    +0.024 A 
ATOM      6  C   UNL     1       4.861  -4.810   0.037  0.00  0.00    +0.044 A 
ENDROOT
BRANCH   1   9
ATOM      7  C   UNL     1       3.688  -0.735  -0.493  0.00  0.00    +0.182 A 
ATOM      8  N   UNL     1       3.841  -2.057  -0.364  0.00  0.00    -0.207 NA
ATOM      9  C   UNL     1       5.123  -2.354  -0.325  0.00  0.00    +0.158 A 
ATOM     10  N   UNL     1       5.823  -1.200  -0.431  0.00  0.00    -0.258 N 
ATOM     11  H   UNL     1       6.788  -1.103  -0.433  0.00  0.00    +0.191 HD
ATOM     12  N   UNL     1       4.875  -0.170  -0.544  0.00  0.00    -0.152 NA
BRANCH   7  16
ATOM     13  C   UNL     1      -0.033   1.311  -0.724  0.00  0.00    +0.000 A 
ATOM     14  C   UNL     1       1.151   2.024  -0.788  0.00  0.00    +0.001 A 
ATOM     15  C   UNL     1       2.361   1.365  -0.714  0.00  0.00    +0.011 A 
ATOM     16  C   UNL     1       2.390  -0.020  -0.573  0.00  0.00    +0.021 A 
ATOM     17  C   UNL     1       1.194  -0.734  -0.509  0.00  0.00    +0.011 A 
ATOM     18  C   UNL     1      -0.010  -0.065  -0.585  0.00  0.00    +0.001 A 
ENDBRANCH   7  16
ENDBRANCH   1   9
BRANCH   6  19
ATOM     19  N   UNL     1       3.481  -4.632   0.136  0.00  0.00    -0.280 N 
ATOM     20  C   UNL     1       2.645  -5.609  -0.267  0.00  0.00    +0.255 C 
ATOM     21  O   UNL     1       3.093  -6.674  -0.650  0.00  0.00    -0.269 OA
ATOM     22  H   UNL     1       3.123  -3.805   0.495  0.00  0.00    +0.155 HD
BRANCH  20  23
ATOM     23  C   UNL     1       1.196  -5.389  -0.246  0.00  0.00    +0.074 A 
ATOM     24  C   UNL     1       0.175  -6.255  -0.609  0.00  0.00    +0.021 A 
ATOM     25  C   UNL     1      -1.100  -5.761  -0.478  0.00  0.00    +0.008 A 
ATOM     26  C   UNL     1      -1.274  -4.498  -0.017  0.00  0.00    +0.046 A 
ATOM     27  S   UNL     1       0.287  -3.943   0.262  0.00  0.00    -0.092 S 
ENDBRANCH  20  23
ENDBRANCH   6  19
TORSDOF 4
