REMARK  Name = ZINC36539404
REMARK  8 active torsions:
REMARK  status: ('A' for Active; 'I' for Inactive)
REMARK    1  A    between atoms: C_1  and  N_2
REMARK    2  A    between atoms: N_2  and  C_3
REMARK    3  A    between atoms: C_3  and  C_5
REMARK    4  A    between atoms: C_3  and  C_12
REMARK    5  A    between atoms: C_10  and  O_11
REMARK    6  A    between atoms: N_14  and  C_15
REMARK    7  A    between atoms: C_21  and  C_23
REMARK    8  A    between atoms: C_26  and  N_29
REMARK                            x       y       z     vdW  Elec       q    Type
REMARK                         _______ _______ _______ _____ _____    ______ ____
ROOT
ATOM      1  C   UNL     1       0.231  -0.764   1.218  0.00  0.00    +0.196 C 
ENDROOT
BRANCH   1   2
ATOM      2  C   UNL     1      -0.844  -0.233   2.131  0.00  0.00    +0.023 A 
ATOM      3  C   UNL     1      -0.519   0.655   3.138  0.00  0.00    +0.009 A 
ATOM      4  C   UNL     1      -1.505   1.143   3.976  0.00  0.00    +0.001 A 
ATOM      5  C   UNL     1      -2.818   0.743   3.808  0.00  0.00    +0.004 A 
ATOM      6  C   UNL     1      -3.148  -0.144   2.803  0.00  0.00    +0.046 A 
ATOM      7  C   UNL     1      -2.162  -0.630   1.957  0.00  0.00    +0.122 A 
BRANCH   7   8
ATOM      8  O   UNL     1      -2.485  -1.499   0.963  0.00  0.00    -0.506 OA
ATOM      9  H   UNL     1      -2.521  -2.424   1.245  0.00  0.00    +0.292 HD
ENDBRANCH   7   8
ENDBRANCH   1   2
BRANCH   1  11
ATOM     10  C   UNL     1       0.140   1.357  -0.172  0.00  0.00    +0.133 C 
ATOM     11  N   UNL     1       0.133  -0.105  -0.087  0.00  0.00    -0.285 N 
ATOM     12  C   UNL     1       0.036  -0.845  -1.209  0.00  0.00    +0.247 C 
ATOM     13  O   UNL     1      -0.071  -2.054  -1.133  0.00  0.00    -0.270 OA
BRANCH  12  14
ATOM     14  C   UNL     1       0.060  -0.187  -2.533  0.00  0.00    +0.037 A 
ATOM     15  C   UNL     1       0.792   0.987  -2.719  0.00  0.00    +0.015 A 
ATOM     16  C   UNL     1       0.811   1.595  -3.957  0.00  0.00    +0.033 A 
ATOM     17  C   UNL     1       0.105   1.046  -5.012  0.00  0.00    +0.126 A 
ATOM     18  C   UNL     1      -0.624  -0.117  -4.834  0.00  0.00    +0.033 A 
ATOM     19  C   UNL     1      -0.646  -0.739  -3.603  0.00  0.00    +0.015 A 
BRANCH  17  20
ATOM     20  N   UNL     1       0.129   1.705  -6.337  0.00  0.00    +0.056 N 
ATOM     21  O   UNL     1       0.764   2.721  -6.495  0.00  0.00    -0.126 OA
ATOM     22  O   UNL     1      -0.487   1.227  -7.261  0.00  0.00    -0.126 OA
ENDBRANCH  17  20
ENDBRANCH  12  14
ENDBRANCH   1  11
BRANCH   1  23
ATOM     23  C   UNL     1       1.584  -0.486   1.821  0.00  0.00    +0.238 C 
ATOM     24  O   UNL     1       2.279   0.399   1.368  0.00  0.00    -0.273 OA
ATOM     25  N   UNL     1       2.022  -1.221   2.862  0.00  0.00    -0.311 N 
ATOM     26  H   UNL     1       1.500  -1.976   3.176  0.00  0.00    +0.149 HD
BRANCH  25  27
ATOM     27  C   UNL     1       3.285  -0.879   3.521  0.00  0.00    +0.073 C 
ATOM     28  C   UNL     1       4.446  -1.527   2.764  0.00  0.00    +0.022 C 
ATOM     29  C   UNL     1       5.765  -1.170   3.452  0.00  0.00    +0.002 C 
ATOM     30  C   UNL     1       5.745  -1.684   4.893  0.00  0.00    +0.000 C 
ATOM     31  C   UNL     1       4.584  -1.035   5.649  0.00  0.00    +0.002 C 
ATOM     32  C   UNL     1       3.265  -1.392   4.962  0.00  0.00    +0.022 C 
ENDBRANCH  25  27
ENDBRANCH   1  23
TORSDOF 7
