REMARK  Name = ZINC38018521
REMARK  6 active torsions:
REMARK  status: ('A' for Active; 'I' for Inactive)
REMARK    1  A    between atoms: C_1  and  C_2
REMARK    2  A    between atoms: C_5  and  O_22
REMARK    3  A    between atoms: C_8  and  C_21
REMARK    4  A    between atoms: C_11  and  N_13
REMARK    5  A    between atoms: N_13  and  C_14
REMARK    6  A    between atoms: C_14  and  C_15
REMARK                            x       y       z     vdW  Elec       q    Type
REMARK                         _______ _______ _______ _____ _____    ______ ____
ROOT
ATOM      1  C   UNL     1      -1.210   0.702   0.171  0.00  0.00    +0.044 C 
ATOM      2  C   UNL     1      -0.933  -0.747   0.480  0.00  0.00    -0.047 A 
ATOM      3  C   UNL     1      -1.277  -1.723  -0.436  0.00  0.00    +0.007 A 
ATOM      4  C   UNL     1      -1.024  -3.052  -0.157  0.00  0.00    +0.046 A 
ATOM      5  C   UNL     1      -0.424  -3.403   1.043  0.00  0.00    +0.119 A 
ATOM      6  C   UNL     1      -0.079  -2.421   1.963  0.00  0.00    -0.016 A 
ATOM      7  C   UNL     1      -0.329  -1.093   1.677  0.00  0.00    -0.037 A 
ATOM      8  C   UNL     1       0.141  -0.225   2.825  0.00  0.00    +0.015 C 
ATOM      9  C   UNL     1       0.309  -1.190   4.018  0.00  0.00    -0.003 C 
ATOM     10  C   UNL     1       0.575  -2.538   3.323  0.00  0.00    -0.036 C 
ATOM     11  C   UNL     1      -0.906   0.843   3.146  0.00  0.00    +0.012 C 
ENDROOT
BRANCH  10  12
ATOM     12  N   UNL     1      -0.024  -3.643   4.084  0.00  0.00    +0.387 N 
ATOM     13  H   UNL     1      -0.984  -3.419   4.302  0.00  0.00    -0.085 HD
ATOM     14  H   UNL     1       0.007  -4.487   3.532  0.00  0.00    -0.085 HD
BRANCH  12  15
ATOM     15  C   UNL     1       0.728  -3.844   5.330  0.00  0.00    -0.039 C 
BRANCH  15  16
ATOM     16  C   UNL     1       0.187  -5.050   6.053  0.00  0.00    -0.026 A 
ATOM     17  C   UNL     1       0.570  -6.346   5.955  0.00  0.00    +0.010 A 
ATOM     18  C   UNL     1      -0.076  -7.297   6.724  0.00  0.00    +0.023 A 
ATOM     19  C   UNL     1      -1.073  -6.902   7.555  0.00  0.00    +0.055 A 
ATOM     20  S   UNL     1      -1.118  -5.141   7.269  0.00  0.00    -0.088 S 
ATOM     21 BR   UNL     1      -2.134  -7.947   8.721  0.00  0.00    -0.043 Br
ENDBRANCH  15  16
ENDBRANCH  12  15
ENDBRANCH  10  12
BRANCH   5  22
ATOM     22  O   UNL     1      -0.175  -4.710   1.319  0.00  0.00    -0.507 OA
ATOM     23  H   UNL     1       0.709  -5.005   1.060  0.00  0.00    +0.292 HD
ENDBRANCH   5  22
TORSDOF 4
