REMARK  Name = ZINC01611992
REMARK  10 active torsions:
REMARK  status: ('A' for Active; 'I' for Inactive)
REMARK    1  A    between atoms: C_1  and  C_2
REMARK    2  A    between atoms: C_8  and  O_17
REMARK    3  A    between atoms: C_10  and  O_15
REMARK    4  A    between atoms: C_11  and  C_12
REMARK    5  A    between atoms: C_12  and  C_14
REMARK    6  A    between atoms: O_15  and  C_16
REMARK    7  A    between atoms: C_20  and  C_26
REMARK    8  A    between atoms: C_20  and  C_27
REMARK    9  A    between atoms: C_23  and  C_24
REMARK   10  A    between atoms: C_23  and  C_25
REMARK                            x       y       z     vdW  Elec       q    Type
REMARK                         _______ _______ _______ _____ _____    ______ ____
ROOT
ATOM      1  C   UNL     1      -1.280   1.635   1.160  0.00  0.00    +0.044 C 
ATOM      2  C   UNL     1      -1.423   1.743   2.657  0.00  0.00    -0.036 A 
ATOM      3  C   UNL     1      -0.518   1.133   3.461  0.00  0.00    +0.013 A 
ATOM      4  C   UNL     1      -0.636   1.222   4.861  0.00  0.00    -0.010 A 
ATOM      5  C   UNL     1       0.293   0.585   5.702  0.00  0.00    +0.014 A 
ATOM      6  C   UNL     1       0.181   0.666   7.057  0.00  0.00    -0.020 A 
ATOM      7  C   UNL     1      -0.865   1.406   7.638  0.00  0.00    +0.065 A 
ATOM      8  C   UNL     1      -1.811   2.050   6.829  0.00  0.00    +0.139 A 
ATOM      9  C   UNL     1      -1.705   1.958   5.429  0.00  0.00    +0.067 A 
ATOM     10  C   UNL     1      -2.638   2.592   4.588  0.00  0.00    +0.142 A 
ATOM     11  C   UNL     1      -2.496   2.476   3.200  0.00  0.00    +0.062 A 
ATOM     12  C   UNL     1      -0.993   1.532   9.096  0.00  0.00    +0.180 C 
ATOM     13  O   UNL     1      -1.723   2.369   9.584  0.00  0.00    -0.291 OA
ATOM     14  C   UNL     1      -0.194   0.595   9.977  0.00  0.00    +0.087 C 
ATOM     15  C   UNL     1       1.163   0.435   9.318  0.00  0.00    +0.156 C 
ATOM     16  O   UNL     1       2.181   0.700   9.913  0.00  0.00    -0.295 OA
ATOM     17  C   UNL     1       1.199  -0.065   7.896  0.00  0.00    +0.050 C 
ATOM     18  C   UNL     1       2.595   0.165   7.313  0.00  0.00    +0.024 C 
ATOM     19  C   UNL     1       0.887  -1.563   7.878  0.00  0.00    +0.024 C 
ATOM     20  C   UNL     1      -0.031   1.200  11.373  0.00  0.00    +0.027 C 
ATOM     21  C   UNL     1      -0.896  -0.761  10.073  0.00  0.00    +0.027 C 
ENDROOT
BRANCH  11  22
ATOM     22  C   UNL     1      -3.463   3.124   2.311  0.00  0.00    +0.164 C 
ATOM     23  O   UNL     1      -4.490   2.551   2.011  0.00  0.00    -0.292 OA
ATOM     24  C   UNL     1      -3.183   4.502   1.769  0.00  0.00    +0.092 C 
ENDBRANCH  11  22
BRANCH  10  25
ATOM     25  O   UNL     1      -3.664   3.300   5.114  0.00  0.00    -0.494 OA
ATOM     26  C   UNL     1      -4.874   2.588   5.380  0.00  0.00    +0.277 C 
ENDBRANCH  10  25
BRANCH   8  27
ATOM     27  O   UNL     1      -2.820   2.756   7.390  0.00  0.00    -0.505 OA
ATOM     28  H   UNL     1      -3.616   2.234   7.563  0.00  0.00    +0.292 HD
ENDBRANCH   8  27
TORSDOF 3
