REMARK  Name = ZINC38684036
REMARK  17 active torsions:
REMARK  status: ('A' for Active; 'I' for Inactive)
REMARK    1  A    between atoms: C_1  and  C_2
REMARK    2  A    between atoms: C_2  and  C_3
REMARK    3  A    between atoms: C_3  and  C_4
REMARK    4  A    between atoms: C_4  and  O_5
REMARK    5  A    between atoms: O_5  and  C_6
REMARK    6  A    between atoms: C_9  and  C_15
REMARK    7  A    between atoms: C_11  and  O_12
REMARK    8  A    between atoms: O_12  and  C_13
REMARK    9  A    between atoms: C_13  and  C_14
REMARK   10  A    between atoms: C_20  and  O_29
REMARK   11  A    between atoms: C_24  and  N_28
REMARK   12  A    between atoms: C_25  and  C_26
REMARK   13  A    between atoms: O_29  and  C_30
REMARK   14  A    between atoms: C_30  and  C_32
REMARK   15  A    between atoms: C_32  and  O_33
REMARK   16  A    between atoms: O_33  and  C_34
REMARK   17  A    between atoms: C_39  and  C_40
REMARK                            x       y       z     vdW  Elec       q    Type
REMARK                         _______ _______ _______ _____ _____    ______ ____
ROOT
ATOM      1  C   UNL     1       1.897  -8.097   2.927  0.00  0.00    +0.098 C 
ATOM      2  C   UNL     1       0.521  -8.702   3.015  0.00  0.00    +0.008 A 
ATOM      3  C   UNL     1      -0.158  -8.675   4.221  0.00  0.00    +0.012 A 
ATOM      4  C   UNL     1      -1.421  -9.225   4.320  0.00  0.00    +0.047 A 
ATOM      5  C   UNL     1      -2.013  -9.808   3.209  0.00  0.00    +0.135 A 
ATOM      6  C   UNL     1      -1.335  -9.837   2.001  0.00  0.00    +0.093 A 
ATOM      7  C   UNL     1      -0.066  -9.283   1.902  0.00  0.00    +0.138 A 
ATOM      8  O   UNL     1       0.585  -9.320   0.713  0.00  0.00    -0.441 OA
ATOM      9  C   UNL     1       1.918  -9.157   0.673  0.00  0.00    +0.199 C 
ATOM     10  C   UNL     1       2.597  -8.584   1.690  0.00  0.00    +0.098 C 
ENDROOT
BRANCH   1  14
ATOM     11  C   UNL     1       1.561  -3.837   2.779  0.00  0.00    +0.162 A 
ATOM     12  C   UNL     1       0.975  -4.615   1.794  0.00  0.00    +0.050 A 
ATOM     13  C   UNL     1       1.086  -5.992   1.845  0.00  0.00    +0.008 A 
ATOM     14  C   UNL     1       1.780  -6.596   2.877  0.00  0.00    -0.031 A 
ATOM     15  C   UNL     1       2.367  -5.824   3.863  0.00  0.00    +0.054 A 
ATOM     16  C   UNL     1       2.265  -4.443   3.815  0.00  0.00    +0.162 A 
BRANCH  11  17
ATOM     17  O   UNL     1       1.454  -2.482   2.731  0.00  0.00    -0.488 OA
BRANCH  17  18
ATOM     18  C   UNL     1       0.717  -1.928   1.639  0.00  0.00    +0.229 C 
BRANCH  18  19
ATOM     19  C   UNL     1       0.705  -0.402   1.753  0.00  0.00    +0.041 C 
BRANCH  19  21
ATOM     20  C   UNL     1      -0.097   1.716   0.698  0.00  0.00    +0.004 C 
ATOM     21  C   UNL     1      -0.085   0.190   0.584  0.00  0.00    -0.000 C 
ENDBRANCH  19  21
ENDBRANCH  18  19
ENDBRANCH  17  18
ENDBRANCH  11  17
BRANCH  16  22
ATOM     22  O   UNL     1       2.846  -3.683   4.781  0.00  0.00    -0.489 OA
BRANCH  22  23
ATOM     23  C   UNL     1       3.552  -4.374   5.813  0.00  0.00    +0.226 C 
ATOM     24  C   UNL     1       4.133  -3.360   6.801  0.00  0.00    +0.048 C 
ENDBRANCH  22  23
ENDBRANCH  16  22
ENDBRANCH   1  14
BRANCH   9  25
ATOM     25  N   UNL     1       2.608  -9.585  -0.434  0.00  0.00    -0.328 N 
ATOM     26  H   UNL     1       2.133  -9.998  -1.172  0.00  0.00    +0.145 HD
ATOM     27  H   UNL     1       3.570  -9.475  -0.478  0.00  0.00    +0.145 HD
ENDBRANCH   9  25
BRANCH  10  28
ATOM     28  C   UNL     1       4.018  -8.438   1.584  0.00  0.00    +0.101 C 
ATOM     29  N   UNL     1       5.145  -8.322   1.500  0.00  0.00    -0.191 NA
ENDBRANCH  10  28
BRANCH   5  30
ATOM     30  O   UNL     1      -3.256 -10.350   3.305  0.00  0.00    -0.423 OA
BRANCH  30  31
ATOM     31  C   UNL     1      -3.369 -11.685   3.218  0.00  0.00    +0.350 C 
ATOM     32  O   UNL     1      -2.378 -12.374   3.163  0.00  0.00    -0.247 OA
BRANCH  31  33
ATOM     33  C   UNL     1      -4.734 -12.325   3.189  0.00  0.00    +0.349 C 
BRANCH  33  34
ATOM     34  O   UNL     1      -4.593 -13.743   3.093  0.00  0.00    -0.481 OA
BRANCH  34  35
ATOM     35  C   UNL     1      -5.737 -14.476   3.056  0.00  0.00    +0.124 A 
ATOM     36  C   UNL     1      -6.970 -13.842   3.104  0.00  0.00    +0.046 A 
ATOM     37  C   UNL     1      -8.131 -14.589   3.065  0.00  0.00    +0.004 A 
ATOM     38  C   UNL     1      -8.065 -15.967   2.978  0.00  0.00    +0.000 A 
ATOM     39  C   UNL     1      -6.838 -16.602   2.931  0.00  0.00    +0.007 A 
ATOM     40  C   UNL     1      -5.673 -15.859   2.964  0.00  0.00    -0.009 A 
ATOM     41  C   UNL     1      -4.336 -16.550   2.906  0.00  0.00    +0.047 C 
ENDBRANCH  34  35
ENDBRANCH  33  34
ENDBRANCH  31  33
ENDBRANCH  30  31
ENDBRANCH   5  30
TORSDOF 14
