REMARK  Name = ZINC64435330
REMARK  8 active torsions:
REMARK  status: ('A' for Active; 'I' for Inactive)
REMARK    1  A    between atoms: C_1  and  S_2
REMARK    2  A    between atoms: S_2  and  C_3
REMARK    3  A    between atoms: C_6  and  C_9
REMARK    4  A    between atoms: N_14  and  C_16
REMARK    5  A    between atoms: C_16  and  C_17
REMARK    6  A    between atoms: N_19  and  C_20
REMARK    7  A    between atoms: C_20  and  C_21
REMARK    8  A    between atoms: C_21  and  C_22
REMARK                            x       y       z     vdW  Elec       q    Type
REMARK                         _______ _______ _______ _____ _____    ______ ____
ROOT
ATOM      1  C   UNL     1       3.267  -4.450  -7.205  0.00  0.00    +0.226 C 
ENDROOT
BRANCH   1   7
ATOM      2  C   UNL     1       2.890  -1.392  -5.087  0.00  0.00    +0.048 C 
ATOM      3  C   UNL     1       3.337  -0.420  -5.875  0.00  0.00    +0.007 C 
ATOM      4  C   UNL     1       4.069  -0.705  -7.153  0.00  0.00    +0.126 C 
ATOM      5  C   UNL     1       3.869  -2.126  -7.591  0.00  0.00    +0.236 C 
ATOM      6  O   UNL     1       4.124  -2.434  -8.736  0.00  0.00    -0.274 OA
ATOM      7  N   UNL     1       3.415  -3.067  -6.746  0.00  0.00    -0.213 N 
ATOM      8  N   UNL     1       3.088  -2.730  -5.425  0.00  0.00    -0.261 N 
ATOM      9  H   UNL     1       2.997  -3.422  -4.751  0.00  0.00    +0.170 HD
BRANCH   2  13
ATOM     10  C   UNL     1       0.848  -0.411  -1.489  0.00  0.00    +0.008 A 
ATOM     11  C   UNL     1       1.315   0.602  -2.321  0.00  0.00    +0.015 A 
ATOM     12  C   UNL     1       1.977   0.286  -3.488  0.00  0.00    +0.011 A 
ATOM     13  C   UNL     1       2.179  -1.050  -3.834  0.00  0.00    -0.003 A 
ATOM     14  C   UNL     1       1.711  -2.064  -2.997  0.00  0.00    +0.011 A 
ATOM     15  C   UNL     1       1.054  -1.744  -1.829  0.00  0.00    +0.015 A 
BRANCH  10  17
ATOM     16  C   UNL     1      -0.022   1.810   0.012  0.00  0.00    +0.090 C 
ATOM     17  S   UNL     1       0.002  -0.004   0.002  0.00  0.00    -0.129 S 
ENDBRANCH  10  17
ENDBRANCH   2  13
ENDBRANCH   1   7
BRANCH   1  18
ATOM     18  C   UNL     1       1.929  -4.615  -7.879  0.00  0.00    +0.232 C 
ATOM     19  O   UNL     1       1.174  -3.670  -7.968  0.00  0.00    -0.274 OA
ATOM     20  N   UNL     1       1.572  -5.812  -8.384  0.00  0.00    -0.314 N 
ATOM     21  H   UNL     1       2.175  -6.568  -8.313  0.00  0.00    +0.149 HD
BRANCH  20  22
ATOM     22  C   UNL     1       0.271  -5.972  -9.040  0.00  0.00    +0.108 C 
BRANCH  22  23
ATOM     23  C   UNL     1       0.116  -7.417  -9.519  0.00  0.00    +0.052 C 
BRANCH  23  24
ATOM     24  C   UNL     1      -1.222  -7.581 -10.194  0.00  0.00    -0.040 C 
ATOM     25  C   UNL     1      -1.479  -7.500 -11.519  0.00  0.00    -0.001 A 
ATOM     26  C   UNL     1      -0.625  -7.243 -12.684  0.00  0.00    +0.010 A 
ATOM     27  C   UNL     1      -1.184  -7.222 -13.916  0.00  0.00    +0.001 A 
ATOM     28  C   UNL     1      -2.556  -7.438 -14.106  0.00  0.00    +0.002 A 
ATOM     29  C   UNL     1      -3.405  -7.680 -13.085  0.00  0.00    +0.026 A 
ATOM     30  C   UNL     1      -2.925  -7.726 -11.747  0.00  0.00    +0.043 A 
ATOM     31  N   UNL     1      -3.536  -7.938 -10.607  0.00  0.00    -0.380 N 
ATOM     32  C   UNL     1      -2.546  -7.877  -9.526  0.00  0.00    +0.144 C 
ATOM     33  H   UNL     1      -4.485  -8.110 -10.497  0.00  0.00    +0.160 HD
ENDBRANCH  23  24
ENDBRANCH  22  23
ENDBRANCH  20  22
ENDBRANCH   1  18
TORSDOF 7
