REMARK  Name = ZINC36586727
REMARK  19 active torsions:
REMARK  status: ('A' for Active; 'I' for Inactive)
REMARK    1  A    between atoms: C_1  and  C_2
REMARK    2  A    between atoms: C_2  and  C_3
REMARK    3  A    between atoms: C_2  and  C_4
REMARK    4  A    between atoms: C_2  and  C_5
REMARK    5  A    between atoms: C_5  and  C_6
REMARK    6  A    between atoms: C_6  and  C_7
REMARK    7  A    between atoms: C_6  and  C_8
REMARK    8  A    between atoms: C_6  and  N_9
REMARK    9  A    between atoms: C_10  and  C_12
REMARK   10  A    between atoms: C_12  and  C_14
REMARK   11  A    between atoms: C_12  and  N_24
REMARK   12  A    between atoms: C_16  and  N_21
REMARK   13  A    between atoms: N_24  and  C_35
REMARK   14  A    between atoms: C_25  and  C_27
REMARK   15  A    between atoms: C_28  and  O_34
REMARK   16  A    between atoms: C_32  and  O_33
REMARK   17  A    between atoms: C_35  and  C_36
REMARK   18  A    between atoms: C_35  and  C_37
REMARK   19  A    between atoms: C_35  and  C_38
REMARK                            x       y       z     vdW  Elec       q    Type
REMARK                         _______ _______ _______ _____ _____    ______ ____
ROOT
ATOM      1  C   UNL     1       5.378  -0.319  -5.152  0.00  0.00    +0.194 C 
ENDROOT
BRANCH   1   2
ATOM      2  C   UNL     1       4.830   0.918  -5.816  0.00  0.00    +0.002 A 
ATOM      3  C   UNL     1       3.948   1.735  -5.135  0.00  0.00    +0.040 A 
ATOM      4  C   UNL     1       3.445   2.869  -5.743  0.00  0.00    +0.127 A 
ATOM      5  C   UNL     1       3.825   3.188  -7.034  0.00  0.00    +0.034 A 
ATOM      6  C   UNL     1       4.708   2.373  -7.716  0.00  0.00    +0.022 A 
ATOM      7  C   UNL     1       5.216   1.240  -7.105  0.00  0.00    +0.047 A 
ATOM      8 CL   UNL     1       6.330   0.218  -7.958  0.00  0.00    -0.083 Cl
BRANCH   4   9
ATOM      9  N   UNL     1       2.500   3.744  -5.013  0.00  0.00    +0.056 N 
ATOM     10  O   UNL     1       2.167   3.465  -3.885  0.00  0.00    -0.126 OA
ATOM     11  O   UNL     1       2.060   4.736  -5.545  0.00  0.00    -0.126 OA
ENDBRANCH   4   9
ENDBRANCH   1   2
BRANCH   1  13
ATOM     12  N   UNL     1       3.222  -1.143  -4.261  0.00  0.00    -0.308 N 
ATOM     13  C   UNL     1       4.477  -0.718  -4.012  0.00  0.00    +0.239 C 
ATOM     14  O   UNL     1       4.881  -0.656  -2.870  0.00  0.00    -0.273 OA
ATOM     15  H   UNL     1       2.923  -1.262  -5.176  0.00  0.00    +0.149 HD
BRANCH  12  16
ATOM     16  C   UNL     1       2.311  -1.425  -3.149  0.00  0.00    +0.030 C 
ATOM     17  C   UNL     1       2.362  -0.274  -2.143  0.00  0.00    +0.031 C 
ATOM     18  C   UNL     1       2.733  -2.724  -2.460  0.00  0.00    +0.031 C 
BRANCH  16  19
ATOM     19  C   UNL     1       0.885  -1.572  -3.684  0.00  0.00    +0.031 C 
BRANCH  19  21
ATOM     20  C   UNL     1       1.187  -0.811  -6.045  0.00  0.00    +0.010 C 
ATOM     21  C   UNL     1       0.596  -0.448  -4.681  0.00  0.00    -0.036 C 
ATOM     22  C   UNL     1       1.228   0.852  -4.181  0.00  0.00    +0.010 C 
ATOM     23  C   UNL     1      -0.917  -0.261  -4.814  0.00  0.00    +0.010 C 
ENDBRANCH  19  21
ENDBRANCH  16  19
ENDBRANCH  12  16
ENDBRANCH   1  13
BRANCH   1  24
ATOM     24  N   UNL     1       6.722  -0.045  -4.640  0.00  0.00    -0.277 N 
ATOM     25  C   UNL     1       6.949   1.060  -3.901  0.00  0.00    +0.255 C 
ATOM     26  O   UNL     1       6.088   1.913  -3.803  0.00  0.00    -0.270 OA
BRANCH  25  27
ATOM     27  C   UNL     1       8.240   1.234  -3.214  0.00  0.00    +0.119 A 
ATOM     28  C   UNL     1       9.296   1.899  -3.853  0.00  0.00    +0.133 A 
ATOM     29  C   UNL     1      10.506   2.057  -3.198  0.00  0.00    +0.046 A 
ATOM     30  C   UNL     1      10.674   1.563  -1.918  0.00  0.00    +0.007 A 
ATOM     31  C   UNL     1       9.640   0.905  -1.278  0.00  0.00    +0.046 A 
ATOM     32  C   UNL     1       8.420   0.741  -1.914  0.00  0.00    +0.133 A 
BRANCH  32  33
ATOM     33  O   UNL     1       7.404   0.100  -1.282  0.00  0.00    -0.506 OA
ATOM     34  H   UNL     1       7.389  -0.855  -1.429  0.00  0.00    +0.292 HD
ENDBRANCH  32  33
BRANCH  28  35
ATOM     35  O   UNL     1       9.134   2.385  -5.110  0.00  0.00    -0.506 OA
ATOM     36  H   UNL     1       8.806   3.294  -5.140  0.00  0.00    +0.292 HD
ENDBRANCH  28  35
ENDBRANCH  25  27
BRANCH  24  37
ATOM     37  C   UNL     1       7.820  -0.970  -4.929  0.00  0.00    +0.030 C 
ATOM     38  C   UNL     1       7.254  -2.266  -5.513  0.00  0.00    +0.031 C 
ATOM     39  C   UNL     1       8.774  -0.330  -5.940  0.00  0.00    +0.031 C 
ATOM     40  C   UNL     1       8.579  -1.282  -3.638  0.00  0.00    +0.031 C 
ENDBRANCH  24  37
ENDBRANCH   1  24
TORSDOF 11
