REMARK  Name = ZINC35569239
REMARK  7 active torsions:
REMARK  status: ('A' for Active; 'I' for Inactive)
REMARK    1  A    between atoms: C_1  and  C_2
REMARK    2  A    between atoms: C_2  and  N_3
REMARK    3  A    between atoms: C_7  and  C_24
REMARK    4  A    between atoms: C_9  and  C_17
REMARK    5  A    between atoms: C_11  and  C_12
REMARK    6  A    between atoms: C_11  and  O_16
REMARK    7  A    between atoms: C_17  and  C_19
REMARK                            x       y       z     vdW  Elec       q    Type
REMARK                         _______ _______ _______ _____ _____    ______ ____
ROOT
ATOM      1  N   UNL     1       0.770  -0.762   1.222  0.00  0.00    -0.250 N 
ATOM      2  C   UNL     1       2.065  -1.110   1.258  0.00  0.00    +0.305 C 
ATOM      3  O   UNL     1       2.680  -1.181   0.212  0.00  0.00    -0.253 OA
ATOM      4  N   UNL     1       2.709  -1.383   2.403  0.00  0.00    -0.291 N 
ATOM      5  C   UNL     1       2.028  -1.302   3.697  0.00  0.00    +0.123 C 
ATOM      6  C   UNL     1       0.539  -1.607   3.502  0.00  0.00    +0.145 C 
ATOM      7  C   UNL     1      -0.020  -0.640   2.448  0.00  0.00    +0.246 C 
ATOM      8  H   UNL     1       3.644  -1.638   2.373  0.00  0.00    +0.151 HD
ENDROOT
BRANCH   5   9
ATOM      9  C   UNL     1       2.189   0.084   4.265  0.00  0.00    +0.011 A 
ATOM     10  C   UNL     1       2.406   1.144   3.432  0.00  0.00    +0.018 A 
ATOM     11  C   UNL     1       2.551   2.421   4.005  0.00  0.00    +0.001 A 
ATOM     12  C   UNL     1       2.775   3.558   3.210  0.00  0.00    +0.010 A 
ATOM     13  C   UNL     1       2.909   4.776   3.802  0.00  0.00    +0.001 A 
ATOM     14  C   UNL     1       2.828   4.912   5.186  0.00  0.00    +0.002 A 
ATOM     15  C   UNL     1       2.611   3.833   5.986  0.00  0.00    +0.028 A 
ATOM     16  C   UNL     1       2.467   2.557   5.413  0.00  0.00    +0.073 A 
ATOM     17  N   UNL     1       2.253   1.479   6.173  0.00  0.00    -0.235 NA
ATOM     18  C   UNL     1       2.112   0.287   5.643  0.00  0.00    +0.135 A 
ATOM     19 CL   UNL     1       1.828  -1.073   6.683  0.00  0.00    -0.062 Cl
ENDBRANCH   5   9
BRANCH   7  20
ATOM     20  C   UNL     1      -1.479  -0.995   2.154  0.00  0.00    +0.436 C 
ATOM     21  F   UNL     1      -1.539  -2.250   1.539  0.00  0.00    -0.166 F 
ATOM     22  F   UNL     1      -2.202  -1.027   3.351  0.00  0.00    -0.166 F 
ATOM     23  F   UNL     1      -2.030  -0.032   1.302  0.00  0.00    -0.166 F 
ENDBRANCH   7  20
BRANCH   1  25
ATOM     24  C   UNL     1       0.165   1.012  -0.349  0.00  0.00    +0.024 C 
ATOM     25  C   UNL     1       0.135  -0.492  -0.070  0.00  0.00    +0.109 C 
ENDBRANCH   1  25
BRANCH   7  26
ATOM     26  O   UNL     1       0.058   0.701   2.936  0.00  0.00    -0.364 OA
ATOM     27  H   UNL     1      -0.274   1.364   2.316  0.00  0.00    +0.212 HD
ENDBRANCH   7  26
BRANCH   6  28
ATOM     28  C   UNL     1       0.371  -3.030   3.034  0.00  0.00    +0.180 C 
ATOM     29  O   UNL     1       0.369  -3.283   1.847  0.00  0.00    -0.291 OA
BRANCH  28  30
ATOM     30  C   UNL     1       0.217  -4.069   3.978  0.00  0.00    +0.055 A 
ATOM     31  C   UNL     1       0.055  -5.435   3.761  0.00  0.00    +0.019 A 
ATOM     32  C   UNL     1      -0.072  -6.205   4.889  0.00  0.00    +0.008 A 
ATOM     33  C   UNL     1      -0.033  -5.605   6.107  0.00  0.00    +0.046 A 
ATOM     34  S   UNL     1       0.184  -3.976   5.758  0.00  0.00    -0.094 S 
ENDBRANCH  28  30
ENDBRANCH   6  28
TORSDOF 6
