REMARK  Name = ZINC14338425
REMARK  5 active torsions:
REMARK  status: ('A' for Active; 'I' for Inactive)
REMARK    1  A    between atoms: C_1  and  C_2
REMARK    2  A    between atoms: C_3  and  C_9
REMARK    3  A    between atoms: N_5  and  C_7
REMARK    4  A    between atoms: N_11  and  N_12
REMARK    5  A    between atoms: C_13  and  C_15
REMARK                            x       y       z     vdW  Elec       q    Type
REMARK                         _______ _______ _______ _____ _____    ______ ____
ROOT
ATOM      1  C   UNL     1      -0.005  -0.375  -2.548  0.00  0.00    +0.265 C 
ATOM      2  O   UNL     1       1.042  -0.173  -3.132  0.00  0.00    -0.268 OA
ATOM      3  N   UNL     1      -1.179  -0.185  -3.183  0.00  0.00    -0.230 N 
ATOM      4  H   UNL     1      -2.014  -0.346  -2.717  0.00  0.00    +0.173 HD
ENDROOT
BRANCH   1   7
ATOM      5  C   UNL     1      -0.018   1.503   0.010  0.00  0.00    +0.068 C 
ATOM      6  C   UNL     1       0.002  -0.004   0.002  0.00  0.00    +0.074 A 
ATOM      7  C   UNL     1       0.008  -0.828  -1.146  0.00  0.00    +0.097 A 
ATOM      8  C   UNL     1       0.029  -2.139  -0.707  0.00  0.00    +0.139 A 
ATOM      9  N   UNL     1       0.035  -2.111   0.636  0.00  0.00    -0.255 N 
ATOM     10  N   UNL     1       0.023  -0.776   1.053  0.00  0.00    -0.175 NA
ATOM     11  C   UNL     1       0.056  -3.283   1.516  0.00  0.00    +0.174 C 
ATOM     12 CL   UNL     1       0.043  -3.558  -1.706  0.00  0.00    -0.062 Cl
ENDBRANCH   1   7
BRANCH   3  13
ATOM     13  N   UNL     1      -1.192   0.245  -4.516  0.00  0.00    -0.230 N 
ATOM     14  C   UNL     1      -2.365   0.436  -5.152  0.00  0.00    +0.267 C 
ATOM     15  O   UNL     1      -3.413   0.234  -4.567  0.00  0.00    -0.268 OA
ATOM     16  H   UNL     1      -0.356   0.407  -4.982  0.00  0.00    +0.173 HD
BRANCH  14  17
ATOM     17  C   UNL     1      -2.379   0.886  -6.547  0.00  0.00    +0.075 A 
ATOM     18  C   UNL     1      -3.463   1.145  -7.371  0.00  0.00    +0.021 A 
ATOM     19  C   UNL     1      -3.159   1.560  -8.645  0.00  0.00    +0.008 A 
ATOM     20  C   UNL     1      -1.857   1.685  -9.004  0.00  0.00    +0.046 A 
ATOM     21  S   UNL     1      -1.005   1.252  -7.623  0.00  0.00    -0.092 S 
ENDBRANCH  14  17
ENDBRANCH   3  13
TORSDOF 3
