REMARK  Name = ZINC00639267
REMARK  14 active torsions:
REMARK  status: ('A' for Active; 'I' for Inactive)
REMARK    1  A    between atoms: C_1  and  C_2
REMARK    2  A    between atoms: C_2  and  O_3
REMARK    3  A    between atoms: O_3  and  C_4
REMARK    4  A    between atoms: C_4  and  C_6
REMARK    5  A    between atoms: C_7  and  C_34
REMARK    6  A    between atoms: C_9  and  N_33
REMARK    7  A    between atoms: C_10  and  C_31
REMARK    8  A    between atoms: C_11  and  C_13
REMARK    9  A    between atoms: C_15  and  O_29
REMARK   10  A    between atoms: C_16  and  O_20
REMARK   11  A    between atoms: O_20  and  C_21
REMARK   12  A    between atoms: C_21  and  C_22
REMARK   13  A    between atoms: C_25  and  C_28
REMARK   14  A    between atoms: O_29  and  C_30
REMARK                            x       y       z     vdW  Elec       q    Type
REMARK                         _______ _______ _______ _____ _____    ______ ____
ROOT
ATOM      1  C   UNL     1       1.270   1.828  -0.034  0.00  0.00    -0.030 A 
ATOM      2  C   UNL     1       1.311   3.208   0.047  0.00  0.00    +0.054 A 
ATOM      3  C   UNL     1       0.143   3.944  -0.066  0.00  0.00    +0.163 A 
ATOM      4  C   UNL     1      -1.071   3.291  -0.262  0.00  0.00    +0.176 A 
ATOM      5  C   UNL     1      -1.105   1.909  -0.347  0.00  0.00    +0.063 A 
ATOM      6  C   UNL     1       0.065   1.179  -0.228  0.00  0.00    +0.023 A 
ATOM      7 BR   UNL     1      -2.751   1.018  -0.619  0.00  0.00    -0.046 Br
ENDROOT
BRANCH   1  13
ATOM      8  C   UNL     1       2.757   0.233  -1.169  0.00  0.00    +0.087 C 
ATOM      9  C   UNL     1       2.510  -1.082  -1.206  0.00  0.00    +0.115 C 
ATOM     10  O   UNL     1       2.063  -1.757  -0.137  0.00  0.00    -0.445 OA
ATOM     11  C   UNL     1       2.208  -1.223   1.088  0.00  0.00    +0.198 C 
ATOM     12  C   UNL     1       2.437   0.098   1.267  0.00  0.00    +0.098 C 
ATOM     13  C   UNL     1       2.542   1.029   0.089  0.00  0.00    +0.105 C 
ATOM     14  C   UNL     1       2.745  -1.831  -2.493  0.00  0.00    +0.087 C 
BRANCH  11  15
ATOM     15  N   UNL     1       2.122  -2.041   2.187  0.00  0.00    -0.328 N 
ATOM     16  H   UNL     1       1.958  -2.991   2.074  0.00  0.00    +0.145 HD
ATOM     17  H   UNL     1       2.224  -1.670   3.077  0.00  0.00    +0.145 HD
ENDBRANCH  11  15
BRANCH   8  18
ATOM     18  C   UNL     1       3.228   0.886  -2.335  0.00  0.00    +0.339 C 
ATOM     19  O   UNL     1       4.414   1.122  -2.462  0.00  0.00    -0.245 OA
BRANCH  18  20
ATOM     20  O   UNL     1       2.360   1.246  -3.303  0.00  0.00    -0.462 OA
BRANCH  20  22
ATOM     21  C   UNL     1       1.778   2.231  -5.432  0.00  0.00    +0.048 C 
ATOM     22  C   UNL     1       2.904   1.901  -4.451  0.00  0.00    +0.229 C 
ENDBRANCH  20  22
ENDBRANCH  18  20
ENDBRANCH   8  18
BRANCH  12  23
ATOM     23  C   UNL     1       2.581   0.617   2.594  0.00  0.00    +0.101 C 
ATOM     24  N   UNL     1       2.696   1.028   3.647  0.00  0.00    -0.191 NA
ENDBRANCH  12  23
ENDBRANCH   1  13
BRANCH   3  25
ATOM     25  O   UNL     1       0.182   5.301   0.013  0.00  0.00    -0.491 OA
ATOM     26  C   UNL     1       1.463   5.902   0.215  0.00  0.00    +0.277 C 
ENDBRANCH   3  25
BRANCH   4  27
ATOM     27  O   UNL     1      -2.220   4.010  -0.374  0.00  0.00    -0.483 OA
BRANCH  27  28
ATOM     28  C   UNL     1      -2.602   4.421  -1.688  0.00  0.00    +0.264 C 
BRANCH  28  29
ATOM     29  C   UNL     1      -3.891   5.199  -1.617  0.00  0.00    -0.010 A 
ATOM     30  C   UNL     1      -5.102   4.543  -1.726  0.00  0.00    +0.007 A 
ATOM     31  C   UNL     1      -6.284   5.256  -1.656  0.00  0.00    +0.004 A 
ATOM     32  C   UNL     1      -6.254   6.628  -1.486  0.00  0.00    -0.050 A 
ATOM     33  C   UNL     1      -5.043   7.285  -1.381  0.00  0.00    +0.004 A 
ATOM     34  C   UNL     1      -3.861   6.571  -1.447  0.00  0.00    +0.007 A 
ATOM     35  C   UNL     1      -7.543   7.406  -1.414  0.00  0.00    +0.044 C 
ENDBRANCH  28  29
ENDBRANCH  27  28
ENDBRANCH   4  27
TORSDOF 10
