REMARK  Name = ZINC10075192
REMARK  9 active torsions:
REMARK  status: ('A' for Active; 'I' for Inactive)
REMARK    1  A    between atoms: C_1  and  C_2
REMARK    2  A    between atoms: C_7  and  C_8
REMARK    3  A    between atoms: C_8  and  N_10
REMARK    4  A    between atoms: C_11  and  N_21
REMARK    5  A    between atoms: C_15  and  C_20
REMARK    6  A    between atoms: C_17  and  C_19
REMARK    7  A    between atoms: N_21  and  C_22
REMARK    8  A    between atoms: C_22  and  C_23
REMARK    9  A    between atoms: C_23  and  C_24
REMARK                            x       y       z     vdW  Elec       q    Type
REMARK                         _______ _______ _______ _____ _____    ______ ____
ROOT
ATOM      1  N   UNL     1       0.643  -0.651   2.609  0.00  0.00    -0.141 NA
ATOM      2  C   UNL     1      -0.004  -0.303   3.711  0.00  0.00    +0.218 C 
ATOM      3  N   UNL     1       0.154   0.952   4.229  0.00  0.00    -0.295 N 
ATOM      4  C   UNL     1       0.432   1.116   5.580  0.00  0.00    +0.231 A 
ATOM      5  N   UNL     1       0.628   0.045   6.333  0.00  0.00    -0.217 NA
ATOM      6  C   UNL     1       0.895   0.166   7.623  0.00  0.00    +0.044 A 
ATOM      7  C   UNL     1       0.968   1.431   8.183  0.00  0.00    +0.046 A 
ATOM      8  C   UNL     1       0.757   2.530   7.365  0.00  0.00    +0.044 A 
ATOM      9  N   UNL     1       0.500   2.339   6.082  0.00  0.00    -0.217 NA
ATOM     10  C   UNL     1       0.827   3.926   7.929  0.00  0.00    +0.066 C 
ATOM     11  C   UNL     1       1.117  -1.058   8.474  0.00  0.00    +0.066 C 
ATOM     12  H   UNL     1       0.072   1.728   3.653  0.00  0.00    +0.172 HD
ENDROOT
BRANCH   1  13
ATOM     13  C   UNL     1       1.552   0.177   2.077  0.00  0.00    +0.270 C 
ATOM     14  O   UNL     1       1.887   1.182   2.678  0.00  0.00    -0.268 OA
BRANCH  13  21
ATOM     15  C   UNL     1       3.543   1.954   0.958  0.00  0.00    +0.044 C 
ATOM     16  C   UNL     1       3.110   0.720   0.208  0.00  0.00    -0.038 A 
ATOM     17  C   UNL     1       3.667   0.426  -1.019  0.00  0.00    +0.004 A 
ATOM     18  C   UNL     1       3.270  -0.706  -1.709  0.00  0.00    +0.000 A 
ATOM     19  C   UNL     1       2.314  -1.549  -1.173  0.00  0.00    +0.001 A 
ATOM     20  C   UNL     1       1.749  -1.266   0.054  0.00  0.00    +0.013 A 
ATOM     21  C   UNL     1       2.149  -0.129   0.757  0.00  0.00    +0.042 A 
ENDBRANCH  13  21
ENDBRANCH   1  13
BRANCH   2  22
ATOM     22  N   UNL     1      -0.827  -1.197   4.329  0.00  0.00    -0.252 NA
BRANCH  22  23
ATOM     23  C   UNL     1      -2.062  -0.736   4.967  0.00  0.00    +0.150 C 
BRANCH  23  24
ATOM     24  C   UNL     1      -2.821  -1.936   5.537  0.00  0.00    +0.060 C 
BRANCH  24  25
ATOM     25  C   UNL     1      -4.133  -1.472   6.115  0.00  0.00    -0.021 A 
ATOM     26  C   UNL     1      -4.390  -1.215   7.407  0.00  0.00    +0.087 A 
ATOM     27  N   UNL     1      -5.691  -0.815   7.554  0.00  0.00    -0.360 N 
ATOM     28  H   UNL     1      -6.108  -0.575   8.396  0.00  0.00    +0.165 HD
ATOM     29  C   UNL     1      -6.319  -0.805   6.328  0.00  0.00    +0.047 A 
ATOM     30  C   UNL     1      -5.369  -1.210   5.372  0.00  0.00    +0.003 A 
ATOM     31  C   UNL     1      -5.726  -1.289   4.025  0.00  0.00    +0.010 A 
ATOM     32  C   UNL     1      -6.998  -0.968   3.641  0.00  0.00    +0.001 A 
ATOM     33  C   UNL     1      -7.937  -0.564   4.580  0.00  0.00    +0.002 A 
ATOM     34  C   UNL     1      -7.608  -0.488   5.916  0.00  0.00    +0.026 A 
ENDBRANCH  24  25
ENDBRANCH  23  24
ENDBRANCH  22  23
ENDBRANCH   2  22
TORSDOF 6
