REMARK  Name = ZINC63374878
REMARK  13 active torsions:
REMARK  status: ('A' for Active; 'I' for Inactive)
REMARK    1  A    between atoms: C_1  and  C_2
REMARK    2  A    between atoms: C_2  and  C_3
REMARK    3  A    between atoms: C_3  and  C_4
REMARK    4  A    between atoms: C_4  and  N_5
REMARK    5  A    between atoms: C_11  and  C_27
REMARK    6  A    between atoms: C_23  and  C_26
REMARK    7  A    between atoms: C_30  and  O_36
REMARK    8  A    between atoms: C_31  and  O_33
REMARK    9  A    between atoms: O_33  and  C_34
REMARK   10  A    between atoms: C_34  and  C_35
REMARK   11  A    between atoms: O_36  and  C_37
REMARK   12  A    between atoms: C_37  and  C_38
REMARK   13  A    between atoms: C_38  and  C_39
REMARK                            x       y       z     vdW  Elec       q    Type
REMARK                         _______ _______ _______ _____ _____    ______ ____
ROOT
ATOM      1  N   UNL     1      -2.662  -2.717  -0.472  0.00  0.00    -0.291 N 
ATOM      2  C   UNL     1      -3.337  -3.139   0.769  0.00  0.00    +0.203 C 
ATOM      3  C   UNL     1      -4.751  -2.598   0.759  0.00  0.00    +0.234 C 
ATOM      4  O   UNL     1      -5.251  -2.106   1.748  0.00  0.00    -0.274 OA
ATOM      5  N   UNL     1      -5.442  -2.692  -0.426  0.00  0.00    -0.283 N 
ATOM      6  C   UNL     1      -6.712  -1.992  -0.508  0.00  0.00    +0.121 C 
ATOM      7  C   UNL     1      -7.580  -2.443  -1.686  0.00  0.00    +0.065 C 
ATOM      8  C   UNL     1      -6.641  -2.636  -2.849  0.00  0.00    -0.027 C 
ATOM      9  C   UNL     1      -6.569  -2.079  -4.049  0.00  0.00    -0.000 A 
ATOM     10  C   UNL     1      -7.459  -1.144  -4.755  0.00  0.00    +0.010 A 
ATOM     11  C   UNL     1      -7.057  -0.751  -5.993  0.00  0.00    +0.001 A 
ATOM     12  C   UNL     1      -5.871  -1.188  -6.591  0.00  0.00    +0.002 A 
ATOM     13  C   UNL     1      -4.998  -2.055  -6.020  0.00  0.00    +0.026 A 
ATOM     14  C   UNL     1      -5.318  -2.549  -4.722  0.00  0.00    +0.043 A 
ATOM     15  N   UNL     1      -4.688  -3.401  -3.967  0.00  0.00    -0.375 N 
ATOM     16  C   UNL     1      -5.489  -3.624  -2.764  0.00  0.00    +0.139 C 
ATOM     17  C   UNL     1      -4.756  -3.426  -1.475  0.00  0.00    +0.135 C 
ATOM     18  C   UNL     1      -3.362  -2.878  -1.635  0.00  0.00    +0.242 C 
ATOM     19  O   UNL     1      -2.894  -2.602  -2.719  0.00  0.00    -0.273 OA
ATOM     20  C   UNL     1      -4.546  -4.832  -0.908  0.00  0.00    +0.044 C 
ATOM     21  H   UNL     1      -3.834  -3.816  -4.167  0.00  0.00    +0.160 HD
ENDROOT
BRANCH   7  22
ATOM     22  C   UNL     1      -8.271  -3.741  -1.353  0.00  0.00    -0.035 A 
ATOM     23  C   UNL     1      -7.735  -4.581  -0.395  0.00  0.00    +0.008 A 
ATOM     24  C   UNL     1      -8.365  -5.772  -0.086  0.00  0.00    +0.050 A 
ATOM     25  C   UNL     1      -9.535  -6.127  -0.738  0.00  0.00    +0.162 A 
ATOM     26  C   UNL     1     -10.074  -5.281  -1.702  0.00  0.00    +0.162 A 
ATOM     27  C   UNL     1      -9.441  -4.086  -2.003  0.00  0.00    +0.053 A 
BRANCH  26  28
ATOM     28  O   UNL     1     -11.223  -5.624  -2.344  0.00  0.00    -0.489 OA
BRANCH  28  29
ATOM     29  C   UNL     1     -11.718  -4.707  -3.322  0.00  0.00    +0.226 C 
ATOM     30  C   UNL     1     -13.008  -5.260  -3.933  0.00  0.00    +0.048 C 
ENDBRANCH  28  29
ENDBRANCH  26  28
BRANCH  25  31
ATOM     31  O   UNL     1     -10.155  -7.299  -0.435  0.00  0.00    -0.488 OA
BRANCH  31  32
ATOM     32  C   UNL     1      -9.545  -8.117   0.564  0.00  0.00    +0.229 C 
BRANCH  32  33
ATOM     33  C   UNL     1     -10.379  -9.383   0.766  0.00  0.00    +0.038 C 
ATOM     34  C   UNL     1      -9.725 -10.259   1.837  0.00  0.00    +0.007 C 
ENDBRANCH  32  33
ENDBRANCH  31  32
ENDBRANCH  25  31
ENDBRANCH   7  22
BRANCH   1  35
ATOM     35  C   UNL     1      -1.311  -2.149  -0.459  0.00  0.00    +0.108 C 
BRANCH  35  36
ATOM     36  C   UNL     1      -1.398  -0.630  -0.301  0.00  0.00    +0.019 C 
BRANCH  36  38
ATOM     37  C   UNL     1      -0.075   1.483  -0.130  0.00  0.00    +0.004 C 
ATOM     38  C   UNL     1       0.012  -0.037  -0.288  0.00  0.00    -0.002 C 
ENDBRANCH  36  38
ENDBRANCH  35  36
ENDBRANCH   1  35
TORSDOF 9
