REMARK  Name = ZINC27916349
REMARK  11 active torsions:
REMARK  status: ('A' for Active; 'I' for Inactive)
REMARK    1  A    between atoms: C_1  and  C_2
REMARK    2  A    between atoms: C_3  and  C_25
REMARK    3  A    between atoms: C_7  and  N_8
REMARK    4  A    between atoms: C_9  and  C_11
REMARK    5  A    between atoms: C_12  and  C_24
REMARK    6  A    between atoms: C_13  and  C_18
REMARK    7  A    between atoms: C_14  and  C_17
REMARK    8  A    between atoms: C_18  and  O_20
REMARK    9  A    between atoms: O_20  and  C_21
REMARK   10  A    between atoms: C_21  and  C_22
REMARK   11  A    between atoms: C_21  and  C_23
REMARK                            x       y       z     vdW  Elec       q    Type
REMARK                         _______ _______ _______ _____ _____    ______ ____
ROOT
ATOM      1  C   UNL     1      -5.016   0.462   0.184  0.00  0.00    +0.046 C 
ATOM      2  C   UNL     1      -4.828   1.957   0.206  0.00  0.00    -0.017 A 
ATOM      3  C   UNL     1      -5.933   2.799   0.331  0.00  0.00    +0.042 A 
ATOM      4  C   UNL     1      -5.751   4.183   0.349  0.00  0.00    +0.013 A 
ATOM      5  C   UNL     1      -4.482   4.714   0.244  0.00  0.00    +0.003 A 
ATOM      6  C   UNL     1      -3.386   3.880   0.126  0.00  0.00    +0.023 A 
ATOM      7  C   UNL     1      -3.557   2.500   0.101  0.00  0.00    +0.037 A 
ENDROOT
BRANCH   3   8
ATOM      8  C   UNL     1      -7.292   2.228   0.444  0.00  0.00    +0.247 C 
ATOM      9  O   UNL     1      -7.762   1.590  -0.478  0.00  0.00    -0.270 OA
ATOM     10  N   UNL     1      -8.010   2.414   1.569  0.00  0.00    -0.293 N 
ATOM     11  C   UNL     1      -9.321   1.769   1.733  0.00  0.00    +0.113 C 
ATOM     12  C   UNL     1      -9.218   0.767   2.899  0.00  0.00    +0.061 C 
ATOM     13  C   UNL     1      -8.462   1.409   4.016  0.00  0.00    -0.004 A 
ATOM     14  C   UNL     1      -7.678   2.520   3.966  0.00  0.00    -0.020 A 
ATOM     15  C   UNL     1      -7.073   2.914   5.158  0.00  0.00    +0.013 A 
ATOM     16  C   UNL     1      -7.282   2.203   6.290  0.00  0.00    +0.046 A 
ATOM     17  S   UNL     1      -8.370   0.908   5.715  0.00  0.00    -0.101 S 
ATOM     18  C   UNL     1      -7.496   3.270   2.647  0.00  0.00    +0.144 C 
ENDBRANCH   3   8
BRANCH   7  19
ATOM     19  N   UNL     1      -2.446   1.660  -0.025  0.00  0.00    -0.280 N 
ATOM     20  C   UNL     1      -1.318   2.117  -0.606  0.00  0.00    +0.265 C 
ATOM     21  O   UNL     1      -1.301   3.221  -1.117  0.00  0.00    -0.268 OA
ATOM     22  H   UNL     1      -2.492   0.627   0.350  0.00  0.00    +0.155 HD
BRANCH  20  23
ATOM     23  C   UNL     1      -0.111   1.282  -0.622  0.00  0.00    +0.106 A 
ATOM     24  C   UNL     1       1.087   1.620  -1.178  0.00  0.00    -0.006 A 
ATOM     25  C   UNL     1       1.962   0.529  -0.972  0.00  0.00    +0.083 A 
ATOM     26  C   UNL     1       1.248  -0.439  -0.290  0.00  0.00    +0.028 A 
ATOM     27  N   UNL     1       0.004   0.019  -0.083  0.00  0.00    -0.354 N 
ATOM     28  H   UNL     1      -0.859  -0.446   0.419  0.00  0.00    +0.166 HD
ATOM     29  C   UNL     1       1.778  -1.781   0.146  0.00  0.00    +0.064 C 
ATOM     30  C   UNL     1       1.415   2.913  -1.880  0.00  0.00    +0.047 C 
BRANCH  25  31
ATOM     31  C   UNL     1       3.367   0.441  -1.403  0.00  0.00    +0.341 C 
ATOM     32  O   UNL     1       3.639  -0.015  -2.496  0.00  0.00    -0.245 OA
BRANCH  31  33
ATOM     33  O   UNL     1       4.350   0.865  -0.585  0.00  0.00    -0.458 OA
BRANCH  33  34
ATOM     34  C   UNL     1       5.712   0.747  -1.076  0.00  0.00    +0.171 C 
ATOM     35  C   UNL     1       6.570   1.859  -0.469  0.00  0.00    +0.052 C 
ATOM     36  C   UNL     1       6.283  -0.615  -0.675  0.00  0.00    +0.052 C 
ENDBRANCH  33  34
ENDBRANCH  31  33
ENDBRANCH  25  31
ENDBRANCH  20  23
ENDBRANCH   7  19
TORSDOF 6
