REMARK  Name = ZINC08582496
REMARK  14 active torsions:
REMARK  status: ('A' for Active; 'I' for Inactive)
REMARK    1  A    between atoms: C_1  and  C_2
REMARK    2  A    between atoms: C_9  and  C_13
REMARK    3  A    between atoms: C_10  and  O_12
REMARK    4  A    between atoms: C_13  and  N_69
REMARK    5  A    between atoms: C_14  and  C_15
REMARK    6  A    between atoms: C_14  and  N_69
REMARK    7  A    between atoms: C_15  and  C_16
REMARK    8  A    between atoms: C_22  and  C_24
REMARK    9  A    between atoms: C_22  and  C_35
REMARK   10  A    between atoms: C_22  and  N_69
REMARK   11  A    between atoms: N_28  and  C_29
REMARK   12  A    between atoms: C_29  and  C_30
REMARK   13  A    between atoms: C_35  and  C_36
REMARK   14  A    between atoms: C_35  and  C_37
REMARK                            x       y       z     vdW  Elec       q    Type
REMARK                         _______ _______ _______ _____ _____    ______ ____
ROOT
ATOM      1  N   UNL     1      -3.367   0.971   1.304  0.00  0.00    +0.390 N 
ATOM      2  H   UNL     1      -3.860   1.244   0.446  0.00  0.00    -0.080 HD
ENDROOT
BRANCH   1   3
ATOM      3  C   UNL     1      -2.334  -0.031   0.967  0.00  0.00    -0.037 C 
BRANCH   3  12
ATOM      4  C   UNL     1      -1.028  -2.059   7.983  0.00  0.00    +0.044 C 
ATOM      5  C   UNL     1      -0.553  -1.552   6.645  0.00  0.00    -0.050 A 
ATOM      6  C   UNL     1       0.798  -1.269   6.458  0.00  0.00    +0.005 A 
ATOM      7  C   UNL     1       1.260  -0.811   5.263  0.00  0.00    +0.029 A 
ATOM      8  C   UNL     1       0.365  -0.618   4.196  0.00  0.00    +0.075 A 
ATOM      9  C   UNL     1      -1.008  -0.907   4.389  0.00  0.00    +0.001 A 
ATOM     10  C   UNL     1      -1.450  -1.378   5.635  0.00  0.00    +0.013 A 
ATOM     11  C   UNL     1      -1.907  -0.708   3.322  0.00  0.00    +0.017 A 
ATOM     12  C   UNL     1      -1.410  -0.252   2.137  0.00  0.00    -0.002 A 
ATOM     13  C   UNL     1      -0.042   0.015   2.010  0.00  0.00    +0.214 A 
ATOM     14  N   UNL     1       0.791  -0.167   3.011  0.00  0.00    -0.213 NA
BRANCH  13  15
ATOM     15  O   UNL     1       0.436   0.474   0.827  0.00  0.00    -0.492 OA
ATOM     16  H   UNL     1       0.560   1.432   0.798  0.00  0.00    +0.294 HD
ENDBRANCH  13  15
ENDBRANCH   3  12
ENDBRANCH   1   3
BRANCH   1  17
ATOM     17  C   UNL     1      -4.340   0.393   2.254  0.00  0.00    -0.073 C 
BRANCH  17  18
ATOM     18  C   UNL     1      -4.955  -0.863   1.632  0.00  0.00    +0.016 C 
BRANCH  18  19
ATOM     19  C   UNL     1      -6.021  -1.407   2.549  0.00  0.00    -0.049 A 
ATOM     20  C   UNL     1      -5.678  -2.269   3.573  0.00  0.00    +0.003 A 
ATOM     21  C   UNL     1      -6.656  -2.764   4.416  0.00  0.00    +0.000 A 
ATOM     22  C   UNL     1      -7.977  -2.404   4.229  0.00  0.00    +0.000 A 
ATOM     23  C   UNL     1      -8.321  -1.546   3.201  0.00  0.00    +0.000 A 
ATOM     24  C   UNL     1      -7.343  -1.047   2.361  0.00  0.00    +0.003 A 
ENDBRANCH  18  19
ENDBRANCH  17  18
ENDBRANCH   1  17
BRANCH   1  25
ATOM     25  C   UNL     1      -2.734   2.169   1.897  0.00  0.00    +0.006 C 
BRANCH  25  26
ATOM     26  C   UNL     1      -3.793   3.216   2.128  0.00  0.00    +0.139 A 
ATOM     27  N   UNL     1      -4.562   3.764   1.220  0.00  0.00    -0.115 NA
ATOM     28  N   UNL     1      -5.334   4.610   1.811  0.00  0.00    -0.023 NA
ATOM     29  N   UNL     1      -5.077   4.615   3.072  0.00  0.00    -0.044 NA
ATOM     30  N   UNL     1      -4.136   3.765   3.308  0.00  0.00    -0.223 N 
BRANCH  30  31
ATOM     31  C   UNL     1      -3.549   3.457   4.614  0.00  0.00    +0.221 C 
BRANCH  31  32
ATOM     32  C   UNL     1      -2.465   4.457   4.926  0.00  0.00    +0.126 A 
ATOM     33  C   UNL     1      -2.637   5.635   5.551  0.00  0.00    +0.046 A 
ATOM     34  C   UNL     1      -1.364   6.245   5.635  0.00  0.00    +0.041 A 
ATOM     35  C   UNL     1      -0.491   5.406   5.049  0.00  0.00    +0.195 A 
ATOM     36  O   UNL     1      -1.163   4.324   4.621  0.00  0.00    -0.466 OA
ENDBRANCH  31  32
ENDBRANCH  30  31
ENDBRANCH  25  26
BRANCH  25  37
ATOM     37  C   UNL     1      -1.685   2.711   0.924  0.00  0.00    -0.024 C 
ATOM     38  C   UNL     1      -0.944   3.881   1.573  0.00  0.00    +0.006 C 
ATOM     39  C   UNL     1      -2.375   3.190  -0.355  0.00  0.00    +0.006 C 
ENDBRANCH  25  37
ENDBRANCH   1  25
TORSDOF 11
