REMARK  Name = ZINC33121281
REMARK  8 active torsions:
REMARK  status: ('A' for Active; 'I' for Inactive)
REMARK    1  A    between atoms: C_1  and  C_2
REMARK    2  A    between atoms: C_2  and  C_3
REMARK    3  A    between atoms: C_3  and  C_4
REMARK    4  A    between atoms: C_7  and  S_10
REMARK    5  A    between atoms: S_10  and  N_13
REMARK    6  A    between atoms: N_13  and  C_14
REMARK    7  A    between atoms: C_17  and  N_29
REMARK    8  A    between atoms: C_18  and  C_20
REMARK                            x       y       z     vdW  Elec       q    Type
REMARK                         _______ _______ _______ _____ _____    ______ ____
ROOT
ATOM      1  C   UNL     1      -2.177   2.986   4.245  0.00  0.00    +0.049 A 
ATOM      2  C   UNL     1      -2.620   4.247   4.632  0.00  0.00    +0.026 A 
ATOM      3  C   UNL     1      -3.319   5.042   3.747  0.00  0.00    +0.026 A 
ATOM      4  C   UNL     1      -3.582   4.590   2.461  0.00  0.00    +0.042 A 
ATOM      5  C   UNL     1      -3.143   3.318   2.065  0.00  0.00    +0.060 A 
ATOM      6  C   UNL     1      -2.435   2.520   2.968  0.00  0.00    +0.039 A 
ENDROOT
BRANCH   5   7
ATOM      7  C   UNL     1      -3.421   2.828   0.703  0.00  0.00    +0.248 C 
ATOM      8  O   UNL     1      -4.561   2.820   0.281  0.00  0.00    -0.270 OA
ATOM      9  N   UNL     1      -2.411   2.388  -0.074  0.00  0.00    -0.297 N 
ATOM     10  C   UNL     1      -1.057   2.504   0.418  0.00  0.00    +0.108 C 
ATOM     11  C   UNL     1      -0.472   3.873   0.001  0.00  0.00    +0.019 C 
ATOM     12  C   UNL     1      -0.208   3.902  -1.446  0.00  0.00    +0.002 C 
ATOM     13  C   UNL     1      -1.455   3.747  -2.312  0.00  0.00    +0.002 C 
ATOM     14  C   UNL     1      -1.762   2.281  -2.489  0.00  0.00    +0.019 C 
ATOM     15  C   UNL     1      -2.734   1.808  -1.393  0.00  0.00    +0.108 C 
ENDBRANCH   5   7
BRANCH   4  16
ATOM     16  N   UNL     1      -4.282   5.395   1.567  0.00  0.00    -0.333 N 
ATOM     17  C   UNL     1      -4.860   6.561   2.251  0.00  0.00    +0.086 C 
ATOM     18  C   UNL     1      -5.686   7.376   1.253  0.00  0.00    -0.063 C 
ATOM     19  N   UNL     1      -4.827   7.795   0.137  0.00  0.00    +0.381 N 
ATOM     20  C   UNL     1      -4.250   6.630  -0.547  0.00  0.00    -0.063 C 
ATOM     21  C   UNL     1      -3.423   5.814   0.451  0.00  0.00    +0.086 C 
ATOM     22  H   UNL     1      -5.422   8.371  -0.588  0.00  0.00    -0.086 HD
ATOM     23  H   UNL     1      -4.008   8.423   0.519  0.00  0.00    -0.086 HD
ENDBRANCH   4  16
BRANCH   1  24
ATOM     24  N   UNL     1      -1.468   2.187   5.150  0.00  0.00    -0.216 N 
ATOM     25  H   UNL     1      -1.720   1.122   5.258  0.00  0.00    +0.174 HD
BRANCH  24  26
ATOM     26  S   UNL     1      -0.250   2.846   6.058  0.00  0.00    +0.072 S 
ATOM     27  O   UNL     1      -0.786   4.010   6.673  0.00  0.00    -0.150 OA
ATOM     28  O   UNL     1       0.319   1.782   6.808  0.00  0.00    -0.150 OA
BRANCH  26  32
ATOM     29  C   UNL     1       2.949   4.258   3.184  0.00  0.00    -0.047 A 
ATOM     30  C   UNL     1       1.992   5.144   3.642  0.00  0.00    +0.005 A 
ATOM     31  C   UNL     1       1.015   4.713   4.520  0.00  0.00    +0.029 A 
ATOM     32  C   UNL     1       0.995   3.396   4.939  0.00  0.00    +0.109 A 
ATOM     33  C   UNL     1       1.955   2.511   4.485  0.00  0.00    +0.029 A 
ATOM     34  C   UNL     1       2.930   2.941   3.603  0.00  0.00    +0.005 A 
BRANCH  29  35
ATOM     35  C   UNL     1       4.014   4.728   2.226  0.00  0.00    +0.035 C 
BRANCH  35  37
ATOM     36  C   UNL     1       6.305   5.707   2.043  0.00  0.00    +0.004 C 
ATOM     37  C   UNL     1       5.225   5.230   3.015  0.00  0.00    +0.001 C 
ENDBRANCH  35  37
ENDBRANCH  29  35
ENDBRANCH  26  32
ENDBRANCH  24  26
ENDBRANCH   1  24
TORSDOF 7
