REMARK  Name = ZINC13882051
REMARK  6 active torsions:
REMARK  status: ('A' for Active; 'I' for Inactive)
REMARK    1  A    between atoms: C_4  and  N_11
REMARK    2  A    between atoms: C_5  and  C_7
REMARK    3  A    between atoms: C_12  and  C_14
REMARK    4  A    between atoms: C_15  and  N_33
REMARK    5  A    between atoms: C_17  and  C_28
REMARK    6  A    between atoms: C_19  and  C_23
REMARK                            x       y       z     vdW  Elec       q    Type
REMARK                         _______ _______ _______ _____ _____    ______ ____
ROOT
ATOM      1  C   UNL     1       0.353   9.947   0.076  0.00  0.00    +0.097 A 
ATOM      2  C   UNL     1       1.620   9.402  -0.002  0.00  0.00    +0.054 A 
ATOM      3  C   UNL     1       1.768   8.003   0.011  0.00  0.00    +0.037 A 
ATOM      4  C   UNL     1       2.981   7.242  -0.059  0.00  0.00    +0.002 A 
ATOM      5  C   UNL     1       2.907   5.857  -0.031  0.00  0.00    +0.038 A 
ATOM      6  C   UNL     1       1.666   5.224   0.065  0.00  0.00    +0.079 A 
ATOM      7  N   UNL     1       0.548   5.944   0.124  0.00  0.00    -0.239 NA
ATOM      8  C   UNL     1       0.571   7.258   0.106  0.00  0.00    +0.112 A 
ATOM      9  S   UNL     1      -0.693   8.505   0.172  0.00  0.00    -0.062 S 
ENDROOT
BRANCH   6  10
ATOM     10  C   UNL     1       1.593   3.751   0.096  0.00  0.00    +0.038 A 
ATOM     11  C   UNL     1       0.490   2.942   0.185  0.00  0.00    +0.017 A 
ATOM     12  C   UNL     1       0.669   1.577   0.191  0.00  0.00    +0.008 A 
ATOM     13  C   UNL     1       1.929   1.074   0.117  0.00  0.00    +0.046 A 
ATOM     14  S   UNL     1       2.919   2.557   0.024  0.00  0.00    -0.095 S 
ENDBRANCH   6  10
BRANCH   4  15
ATOM     15  C   UNL     1       4.287   7.920  -0.159  0.00  0.00    +0.020 A 
ATOM     16  C   UNL     1       5.374   7.828   0.671  0.00  0.00    +0.016 A 
ATOM     17  C   UNL     1       6.499   8.560   0.371  0.00  0.00    +0.008 A 
ATOM     18  C   UNL     1       6.495   9.359  -0.730  0.00  0.00    +0.046 A 
ATOM     19  S   UNL     1       4.860   9.080  -1.389  0.00  0.00    -0.097 S 
ENDBRANCH   4  15
BRANCH   1  21
ATOM     20  N   UNL     1      -1.323  11.652   0.164  0.00  0.00    -0.281 N 
ATOM     21  C   UNL     1      -0.022  11.311   0.080  0.00  0.00    +0.257 C 
ATOM     22  O   UNL     1       0.831  12.177   0.007  0.00  0.00    -0.269 OA
ATOM     23  H   UNL     1      -1.997  10.966   0.291  0.00  0.00    +0.155 HD
BRANCH  20  27
ATOM     24  C   UNL     1      -2.451  15.651  -0.121  0.00  0.00    +0.001 A 
ATOM     25  C   UNL     1      -1.361  15.189  -0.837  0.00  0.00    +0.002 A 
ATOM     26  C   UNL     1      -0.982  13.865  -0.740  0.00  0.00    +0.024 A 
ATOM     27  C   UNL     1      -1.702  12.994   0.068  0.00  0.00    +0.045 A 
ATOM     28  C   UNL     1      -2.795  13.462   0.785  0.00  0.00    +0.076 A 
ATOM     29  C   UNL     1      -3.167  14.789   0.689  0.00  0.00    +0.014 A 
BRANCH  28  30
ATOM     30  C   UNL     1      -3.575  12.523   1.669  0.00  0.00    +0.419 C 
ATOM     31  F   UNL     1      -4.622  13.221   2.282  0.00  0.00    -0.166 F 
ATOM     32  F   UNL     1      -4.100  11.482   0.895  0.00  0.00    -0.166 F 
ATOM     33  F   UNL     1      -2.729  11.994   2.650  0.00  0.00    -0.166 F 
ENDBRANCH  28  30
ENDBRANCH  20  27
ENDBRANCH   1  21
BRANCH   2  34
ATOM     34  N   UNL     1       2.735  10.225  -0.091  0.00  0.00    -0.356 N 
ATOM     35  H   UNL     1       2.678  11.068  -0.570  0.00  0.00    +0.142 HD
ATOM     36  H   UNL     1       3.570   9.959   0.324  0.00  0.00    +0.142 HD
ENDBRANCH   2  34
TORSDOF 6
