REMARK  Name = ZINC20837512
REMARK  7 active torsions:
REMARK  status: ('A' for Active; 'I' for Inactive)
REMARK    1  A    between atoms: C_5  and  N_7
REMARK    2  A    between atoms: C_8  and  C_10
REMARK    3  A    between atoms: C_10  and  O_11
REMARK    4  A    between atoms: O_11  and  C_12
REMARK    5  A    between atoms: C_12  and  C_14
REMARK    6  A    between atoms: C_14  and  N_15
REMARK    7  A    between atoms: C_16  and  C_18
REMARK                            x       y       z     vdW  Elec       q    Type
REMARK                         _______ _______ _______ _____ _____    ______ ____
ROOT
ATOM      1  C   UNL     1       3.630   1.579   0.009  0.00  0.00    +0.325 C 
ATOM      2  O   UNL     1       3.772   2.779   0.018  0.00  0.00    -0.249 OA
ENDROOT
BRANCH   1   3
ATOM      3  O   UNL     1       2.396   1.050   0.007  0.00  0.00    -0.454 OA
BRANCH   3   4
ATOM      4  C   UNL     1       1.280   1.979   0.018  0.00  0.00    +0.328 C 
BRANCH   4   6
ATOM      5  N   UNL     1      -1.191   1.867   0.018  0.00  0.00    -0.282 N 
ATOM      6  C   UNL     1      -0.015   1.208   0.015  0.00  0.00    +0.255 C 
ATOM      7  O   UNL     1       0.001  -0.004   0.004  0.00  0.00    -0.272 OA
ATOM      8  H   UNL     1      -1.207   2.963   0.102  0.00  0.00    +0.155 HD
BRANCH   5  13
ATOM      9  C   UNL     1      -3.698  -0.796   0.399  0.00  0.00    +0.002 A 
ATOM     10  C   UNL     1      -4.765  -0.252  -0.291  0.00  0.00    +0.001 A 
ATOM     11  C   UNL     1      -4.649   0.994  -0.880  0.00  0.00    +0.017 A 
ATOM     12  C   UNL     1      -3.465   1.699  -0.779  0.00  0.00    +0.039 A 
ATOM     13  C   UNL     1      -2.391   1.155  -0.086  0.00  0.00    +0.048 A 
ATOM     14  C   UNL     1      -2.510  -0.099   0.499  0.00  0.00    +0.024 A 
ATOM     15 BR   UNL     1      -3.307   3.402  -1.585  0.00  0.00    -0.048 Br
ENDBRANCH   5  13
ENDBRANCH   4   6
ENDBRANCH   3   4
ENDBRANCH   1   3
BRANCH   1  16
ATOM     16  C   UNL     1       4.837   0.677  -0.002  0.00  0.00    +0.224 C 
BRANCH  16  17
ATOM     17  N   UNL     1       6.055   1.491   0.002  0.00  0.00    -0.304 N 
ATOM     18  C   UNL     1       7.264   0.895  -0.007  0.00  0.00    +0.220 C 
ATOM     19  O   UNL     1       7.343  -0.315  -0.018  0.00  0.00    -0.275 OA
ATOM     20  H   UNL     1       5.983   2.589   0.011  0.00  0.00    +0.149 HD
BRANCH  18  21
ATOM     21  C   UNL     1       8.517   1.733  -0.003  0.00  0.00    +0.048 C 
ATOM     22  C   UNL     1       8.537   2.627  -1.244  0.00  0.00    +0.019 C 
ATOM     23  C   UNL     1       9.809   3.477  -1.240  0.00  0.00    -0.009 C 
ATOM     24  C   UNL     1      11.034   2.561  -1.251  0.00  0.00    +0.007 C 
ATOM     25  C   UNL     1      11.014   1.667  -0.010  0.00  0.00    -0.009 C 
ATOM     26  C   UNL     1       9.742   0.817  -0.014  0.00  0.00    +0.019 C 
ATOM     27  C   UNL     1      11.041   2.539   1.247  0.00  0.00    +0.007 C 
ATOM     28  C   UNL     1       9.815   3.455   1.258  0.00  0.00    -0.009 C 
ATOM     29  C   UNL     1       9.835   4.349   0.016  0.00  0.00    +0.007 C 
ATOM     30  C   UNL     1       8.543   2.605   1.254  0.00  0.00    +0.019 C 
ENDBRANCH  18  21
ENDBRANCH  16  17
ENDBRANCH   1  16
TORSDOF 7
