REMARK  Name = ZINC39941732
REMARK  8 active torsions:
REMARK  status: ('A' for Active; 'I' for Inactive)
REMARK    1  A    between atoms: C_1  and  C_2
REMARK    2  A    between atoms: C_2  and  O_3
REMARK    3  A    between atoms: O_3  and  C_4
REMARK    4  A    between atoms: C_4  and  C_6
REMARK    5  A    between atoms: C_15  and  N_17
REMARK    6  A    between atoms: C_18  and  C_20
REMARK    7  A    between atoms: N_22  and  N_23
REMARK    8  A    between atoms: C_24  and  C_25
REMARK                            x       y       z     vdW  Elec       q    Type
REMARK                         _______ _______ _______ _____ _____    ______ ____
ROOT
ATOM      1  N   UNL     1      -4.324  -0.946  -1.290  0.00  0.00    -0.292 N 
ATOM      2  C   UNL     1      -5.574  -0.931  -1.792  0.00  0.00    +0.302 C 
ATOM      3  O   UNL     1      -6.492  -1.395  -1.148  0.00  0.00    -0.265 OA
ATOM      4  H   UNL     1      -3.590  -0.575  -1.805  0.00  0.00    +0.151 HD
ENDROOT
BRANCH   1  13
ATOM      5  C   UNL     1      -2.847  -2.417   0.016  0.00  0.00    +0.067 C 
ATOM      6  C   UNL     1      -3.014  -3.716   0.016  0.00  0.00    -0.044 C 
ATOM      7  C   UNL     1      -1.893  -4.750   0.119  0.00  0.00    +0.032 C 
ATOM      8  C   UNL     1      -2.522  -6.106  -0.216  0.00  0.00    +0.004 C 
ATOM      9  C   UNL     1      -3.635  -6.472   0.754  0.00  0.00    +0.002 C 
ATOM     10  C   UNL     1      -4.528  -5.287   1.111  0.00  0.00    +0.018 C 
ATOM     11  C   UNL     1      -4.458  -4.241  -0.003  0.00  0.00    +0.075 C 
ATOM     12  S   UNL     1      -5.387  -2.733   0.488  0.00  0.00    -0.126 S 
ATOM     13  C   UNL     1      -4.072  -1.522   0.033  0.00  0.00    +0.169 C 
BRANCH   5  14
ATOM     14  C   UNL     1      -1.497  -1.837   0.006  0.00  0.00    +0.338 C 
ATOM     15  O   UNL     1      -0.523  -2.564  -0.007  0.00  0.00    -0.245 OA
BRANCH  14  16
ATOM     16  O   UNL     1      -1.339  -0.499   0.012  0.00  0.00    -0.462 OA
BRANCH  16  18
ATOM     17  C   UNL     1      -0.019   1.526   0.010  0.00  0.00    +0.048 C 
ATOM     18  C   UNL     1       0.002  -0.004   0.002  0.00  0.00    +0.229 C 
ENDBRANCH  16  18
ENDBRANCH  14  16
ENDBRANCH   5  14
ENDBRANCH   1  13
BRANCH   2  19
ATOM     19  C   UNL     1      -5.831  -0.344  -3.140  0.00  0.00    +0.318 C 
ATOM     20  O   UNL     1      -4.912   0.120  -3.785  0.00  0.00    -0.263 OA
ATOM     21  N   UNL     1      -7.081  -0.329  -3.642  0.00  0.00    -0.199 N 
ATOM     22  H   UNL     1      -7.815  -0.700  -3.127  0.00  0.00    +0.178 HD
BRANCH  21  23
ATOM     23  N   UNL     1      -7.322   0.222  -4.908  0.00  0.00    -0.191 NA
ATOM     24  C   UNL     1      -8.510   0.236  -5.385  0.00  0.00    +0.120 C 
BRANCH  24  25
ATOM     25  C   UNL     1      -8.768   0.829  -6.746  0.00  0.00    +0.141 C 
ATOM     26  C   UNL     1      -9.671   2.033  -6.565  0.00  0.00    +0.001 C 
ATOM     27  C   UNL     1     -10.862   2.028  -7.230  0.00  0.00    -0.007 A 
ATOM     28  C   UNL     1     -11.793   3.150  -7.111  0.00  0.00    +0.009 A 
ATOM     29  C   UNL     1     -12.968   3.101  -7.791  0.00  0.00    +0.001 A 
ATOM     30  C   UNL     1     -13.297   2.008  -8.594  0.00  0.00    +0.002 A 
ATOM     31  C   UNL     1     -12.476   0.936  -8.746  0.00  0.00    +0.024 A 
ATOM     32  C   UNL     1     -11.236   0.887  -8.084  0.00  0.00    +0.040 A 
ATOM     33  N   UNL     1     -10.438  -0.169  -8.241  0.00  0.00    -0.284 N 
ATOM     34  C   UNL     1      -9.262  -0.280  -7.648  0.00  0.00    +0.229 C 
ATOM     35  O   UNL     1      -8.578  -1.269  -7.829  0.00  0.00    -0.274 OA
ATOM     36  H   UNL     1     -10.735  -0.891  -8.817  0.00  0.00    +0.155 HD
ENDBRANCH  24  25
ENDBRANCH  21  23
ENDBRANCH   2  19
TORSDOF 7
