REMARK  Name = ZINC06706333
REMARK  3 active torsions:
REMARK  status: ('A' for Active; 'I' for Inactive)
REMARK    1  A    between atoms: C_4  and  N_24
REMARK    2  A    between atoms: C_5  and  C_7
REMARK    3  A    between atoms: N_9  and  C_14
REMARK                            x       y       z     vdW  Elec       q    Type
REMARK                         _______ _______ _______ _____ _____    ______ ____
ROOT
ATOM      1  C   UNL     1       4.896   0.097  -0.141  0.00  0.00    +0.172 C 
ATOM      2  N   UNL     1       3.525  -0.422  -0.302  0.00  0.00    -0.254 N 
ATOM      3  C   UNL     1       3.311  -1.728  -0.213  0.00  0.00    +0.231 C 
ATOM      4  O   UNL     1       2.198  -2.193  -0.340  0.00  0.00    -0.274 OA
ATOM      5  C   UNL     1       4.513  -2.622   0.048  0.00  0.00    +0.167 C 
ATOM      6  S   UNL     1       5.753  -1.365   0.587  0.00  0.00    -0.124 S 
ENDROOT
BRANCH   2   7
ATOM      7  C   UNL     1       2.458   0.456  -0.539  0.00  0.00    +0.041 A 
ATOM      8  C   UNL     1       2.437   1.226  -1.695  0.00  0.00    +0.027 A 
ATOM      9  C   UNL     1       1.387   2.092  -1.928  0.00  0.00    +0.051 A 
ATOM     10  C   UNL     1       0.352   2.197  -1.010  0.00  0.00    +0.162 A 
ATOM     11  C   UNL     1       0.370   1.426   0.146  0.00  0.00    +0.164 A 
ATOM     12  C   UNL     1       1.424   0.557   0.380  0.00  0.00    +0.073 A 
ATOM     13  O   UNL     1      -0.640   1.510   1.055  0.00  0.00    -0.485 OA
ATOM     14  C   UNL     1      -1.486   2.661   0.972  0.00  0.00    +0.270 C 
ATOM     15  C   UNL     1      -1.871   2.870  -0.499  0.00  0.00    +0.270 C 
ATOM     16  O   UNL     1      -0.670   3.064  -1.254  0.00  0.00    -0.485 OA
ENDBRANCH   2   7
BRANCH   1  21
ATOM     17  C   UNL     1       4.101   2.373   2.764  0.00  0.00    +0.000 A 
ATOM     18  C   UNL     1       4.975   3.423   2.546  0.00  0.00    +0.002 A 
ATOM     19  C   UNL     1       5.826   3.400   1.458  0.00  0.00    +0.023 A 
ATOM     20  C   UNL     1       5.803   2.322   0.583  0.00  0.00    +0.030 A 
ATOM     21  C   UNL     1       4.925   1.269   0.805  0.00  0.00    +0.004 A 
ATOM     22  C   UNL     1       4.073   1.300   1.893  0.00  0.00    +0.008 A 
BRANCH  20  23
ATOM     23  N   UNL     1       6.662   2.295  -0.518  0.00  0.00    -0.358 N 
ATOM     24  H   UNL     1       6.646   1.541  -1.128  0.00  0.00    +0.142 HD
ATOM     25  H   UNL     1       7.275   3.031  -0.673  0.00  0.00    +0.142 HD
ENDBRANCH  20  23
ENDBRANCH   1  21
TORSDOF 3
