REMARK  Name = ZINC36027256
REMARK  7 active torsions:
REMARK  status: ('A' for Active; 'I' for Inactive)
REMARK    1  A    between atoms: C_4  and  C_7
REMARK    2  A    between atoms: C_7  and  C_8
REMARK    3  A    between atoms: N_12  and  C_30
REMARK    4  A    between atoms: N_17  and  S_20
REMARK    5  A    between atoms: S_20  and  C_23
REMARK    6  A    between atoms: C_30  and  C_31
REMARK    7  A    between atoms: C_31  and  C_32
REMARK                            x       y       z     vdW  Elec       q    Type
REMARK                         _______ _______ _______ _____ _____    ______ ____
ROOT
ATOM      1  C   UNL     1       3.748  -1.249   1.553  0.00  0.00    +0.023 C 
ATOM      2  C   UNL     1       5.134  -1.855   1.601  0.00  0.00    +0.201 C 
ATOM      3  O   UNL     1       6.178  -1.240   1.542  0.00  0.00    -0.277 OA
ATOM      4  N   UNL     1       5.013  -3.193   1.722  0.00  0.00    -0.313 N 
ATOM      5  C   UNL     1       3.593  -3.554   1.754  0.00  0.00    +0.006 C 
ATOM      6  N   UNL     1       2.850  -2.312   2.067  0.00  0.00    +0.401 N 
ATOM      7  C   UNL     1       3.337  -4.596   2.842  0.00  0.00    +0.023 C 
ATOM      8  C   UNL     1       4.139  -5.864   2.530  0.00  0.00    +0.109 C 
ATOM      9  N   UNL     1       3.811  -6.307   1.169  0.00  0.00    -0.177 NA
ATOM     10  C   UNL     1       3.954  -5.353   0.060  0.00  0.00    +0.109 C 
ATOM     11  C   UNL     1       3.153  -4.089   0.393  0.00  0.00    +0.023 C 
ATOM     12  H   UNL     1       2.719  -2.216   3.063  0.00  0.00    -0.082 HD
ATOM     13  H   UNL     1       1.964  -2.294   1.585  0.00  0.00    -0.082 HD
ENDROOT
BRANCH   9  14
ATOM     14  S   UNL     1       3.292  -7.854   0.888  0.00  0.00    +0.061 S 
ATOM     15  O   UNL     1       3.594  -8.144  -0.470  0.00  0.00    -0.153 OA
ATOM     16  O   UNL     1       3.777  -8.647   1.962  0.00  0.00    -0.153 OA
BRANCH  14  17
ATOM     17  C   UNL     1       1.535  -7.846   1.022  0.00  0.00    +0.106 A 
ATOM     18  C   UNL     1       0.934  -8.080   2.244  0.00  0.00    +0.030 A 
ATOM     19  C   UNL     1      -0.444  -8.073   2.350  0.00  0.00    +0.022 A 
ATOM     20  C   UNL     1      -1.222  -7.834   1.232  0.00  0.00    +0.041 A 
ATOM     21  C   UNL     1      -0.620  -7.601   0.008  0.00  0.00    +0.022 A 
ATOM     22  C   UNL     1       0.758  -7.601  -0.095  0.00  0.00    +0.030 A 
ATOM     23 CL   UNL     1      -2.953  -7.826   1.363  0.00  0.00    -0.084 Cl
ENDBRANCH  14  17
ENDBRANCH   9  14
BRANCH   1  24
ATOM     24  C   UNL     1       3.374  -0.887   0.114  0.00  0.00    +0.028 C 
BRANCH  24  28
ATOM     25  C   UNL     1      -0.523   0.860   0.048  0.00  0.00    +0.000 A 
ATOM     26  C   UNL     1       0.592   1.662   0.207  0.00  0.00    +0.000 A 
ATOM     27  C   UNL     1       1.853   1.097   0.228  0.00  0.00    +0.003 A 
ATOM     28  C   UNL     1       2.000  -0.271   0.091  0.00  0.00    -0.048 A 
ATOM     29  C   UNL     1       0.885  -1.073  -0.067  0.00  0.00    +0.003 A 
ATOM     30  C   UNL     1      -0.376  -0.508  -0.090  0.00  0.00    +0.000 A 
ENDBRANCH  24  28
ENDBRANCH   1  24
BRANCH   4  31
ATOM     31  C   UNL     1       6.128  -4.139   1.808  0.00  0.00    +0.112 C 
BRANCH  31  32
ATOM     32  C   UNL     1       6.535  -4.316   3.272  0.00  0.00    +0.074 C 
BRANCH  32  33
ATOM     33  C   UNL     1       7.624  -5.353   3.369  0.00  0.00    +0.043 A 
ATOM     34  C   UNL     1       8.814  -5.038   3.998  0.00  0.00    +0.023 A 
ATOM     35  C   UNL     1       9.809  -5.999   4.082  0.00  0.00    +0.003 A 
ATOM     36  C   UNL     1       9.569  -7.247   3.527  0.00  0.00    +0.020 A 
ATOM     37  C   UNL     1       8.355  -7.490   2.914  0.00  0.00    +0.111 A 
ATOM     38  N   UNL     1       7.429  -6.553   2.858  0.00  0.00    -0.260 NA
ENDBRANCH  32  33
ENDBRANCH  31  32
ENDBRANCH   4  31
TORSDOF 7
