REMARK  Name = ZINC09821426
REMARK  7 active torsions:
REMARK  status: ('A' for Active; 'I' for Inactive)
REMARK    1  A    between atoms: C_1  and  N_2
REMARK    2  A    between atoms: C_4  and  C_21
REMARK    3  A    between atoms: N_9  and  C_14
REMARK    4  A    between atoms: C_14  and  C_15
REMARK    5  A    between atoms: N_23  and  C_24
REMARK    6  A    between atoms: C_26  and  C_34
REMARK    7  A    between atoms: C_28  and  C_30
REMARK                            x       y       z     vdW  Elec       q    Type
REMARK                         _______ _______ _______ _____ _____    ______ ____
ROOT
ATOM      1  C   UNL     1      -3.028   0.119  -0.002  0.00  0.00    +0.149 C 
ATOM      2  N   UNL     1      -2.567   1.509   0.012  0.00  0.00    -0.344 N 
ATOM      3  C   UNL     1      -3.362   2.592   0.030  0.00  0.00    +0.101 A 
ATOM      4  C   UNL     1      -2.574   3.727   0.038  0.00  0.00    +0.079 A 
ATOM      5  C   UNL     1      -1.225   3.298   0.025  0.00  0.00    +0.086 A 
ATOM      6  C   UNL     1      -1.246   1.912   0.003  0.00  0.00    +0.132 A 
ATOM      7  C   UNL     1      -0.015   1.213  -0.008  0.00  0.00    +0.281 A 
ATOM      8  O   UNL     1       0.001  -0.004  -0.023  0.00  0.00    -0.265 OA
ATOM      9  N   UNL     1       1.139   1.910  -0.007  0.00  0.00    -0.255 N 
ATOM     10  C   UNL     1       1.140   3.254   0.010  0.00  0.00    +0.330 A 
ATOM     11  O   UNL     1       2.201   3.848   0.010  0.00  0.00    -0.246 OA
ATOM     12  N   UNL     1      -0.009   3.957   0.026  0.00  0.00    -0.305 N 
ATOM     13  H   UNL     1       0.017   4.927   0.037  0.00  0.00    +0.170 HD
ENDROOT
BRANCH   4  14
ATOM     14  C   UNL     1      -3.048   5.120   0.058  0.00  0.00    +0.252 C 
ATOM     15  O   UNL     1      -2.247   6.035   0.064  0.00  0.00    -0.270 OA
ATOM     16  N   UNL     1      -4.370   5.382   0.070  0.00  0.00    -0.281 N 
ATOM     17  H   UNL     1      -5.009   4.656  -0.003  0.00  0.00    +0.155 HD
BRANCH  16  18
ATOM     18  C   UNL     1      -4.821   6.701   0.186  0.00  0.00    +0.035 A 
ATOM     19  C   UNL     1      -5.985   6.979   0.889  0.00  0.00    +0.035 A 
ATOM     20  C   UNL     1      -6.425   8.284   1.007  0.00  0.00    +0.057 A 
ATOM     21  C   UNL     1      -5.712   9.311   0.415  0.00  0.00    +0.024 A 
ATOM     22  C   UNL     1      -4.555   9.037  -0.290  0.00  0.00    +0.057 A 
ATOM     23  C   UNL     1      -4.107   7.735  -0.407  0.00  0.00    +0.035 A 
BRANCH  22  24
ATOM     24  C   UNL     1      -3.782  10.159  -0.933  0.00  0.00    +0.417 C 
ATOM     25  F   UNL     1      -2.659   9.638  -1.584  0.00  0.00    -0.166 F 
ATOM     26  F   UNL     1      -4.597  10.815  -1.862  0.00  0.00    -0.166 F 
ATOM     27  F   UNL     1      -3.372  11.066   0.050  0.00  0.00    -0.166 F 
ENDBRANCH  22  24
BRANCH  20  28
ATOM     28  C   UNL     1      -7.684   8.587   1.776  0.00  0.00    +0.417 C 
ATOM     29  F   UNL     1      -8.783   8.537   0.911  0.00  0.00    -0.166 F 
ATOM     30  F   UNL     1      -7.849   7.641   2.794  0.00  0.00    -0.166 F 
ATOM     31  F   UNL     1      -7.591   9.865   2.338  0.00  0.00    -0.166 F 
ENDBRANCH  20  28
ENDBRANCH  16  18
ENDBRANCH   4  14
BRANCH   9  32
ATOM     32  C   UNL     1       2.415   1.190  -0.025  0.00  0.00    +0.165 C 
BRANCH  32  33
ATOM     33  C   UNL     1       2.842   0.961  -1.452  0.00  0.00    -0.028 A 
ATOM     34  C   UNL     1       2.454  -0.189  -2.114  0.00  0.00    +0.005 A 
ATOM     35  C   UNL     1       2.843  -0.397  -3.424  0.00  0.00    +0.000 A 
ATOM     36  C   UNL     1       3.628   0.540  -4.069  0.00  0.00    +0.000 A 
ATOM     37  C   UNL     1       4.020   1.688  -3.406  0.00  0.00    +0.000 A 
ATOM     38  C   UNL     1       3.627   1.898  -2.097  0.00  0.00    +0.005 A 
ENDBRANCH  32  33
ENDBRANCH   9  32
TORSDOF 6
