REMARK  Name = ZINC44784810
REMARK  6 active torsions:
REMARK  status: ('A' for Active; 'I' for Inactive)
REMARK    1  A    between atoms: C_1  and  C_2
REMARK    2  A    between atoms: C_2  and  C_3
REMARK    3  A    between atoms: C_2  and  C_4
REMARK    4  A    between atoms: C_2  and  C_8
REMARK    5  A    between atoms: N_5  and  O_6
REMARK    6  A    between atoms: N_10  and  C_11
REMARK                            x       y       z     vdW  Elec       q    Type
REMARK                         _______ _______ _______ _____ _____    ______ ____
ROOT
ATOM      1  C   UNL     1       0.707  -0.490  -1.238  0.00  0.00    +0.226 C 
ATOM      2  O   UNL     1       0.120  -1.191  -2.034  0.00  0.00    -0.275 OA
ATOM      3  N   UNL     1       1.991  -0.146  -1.462  0.00  0.00    -0.312 N 
ATOM      4  H   UNL     1       2.461   0.415  -0.825  0.00  0.00    +0.149 HD
ENDROOT
BRANCH   3   5
ATOM      5  C   UNL     1       2.677  -0.618  -2.667  0.00  0.00    +0.073 C 
ATOM      6  C   UNL     1       3.185  -2.054  -2.422  0.00  0.00    +0.022 C 
ATOM      7  C   UNL     1       3.415  -2.713  -3.755  0.00  0.00    +0.002 C 
ATOM      8  C   UNL     1       4.874  -2.584  -4.232  0.00  0.00    +0.000 C 
ATOM      9  C   UNL     1       5.466  -1.186  -3.974  0.00  0.00    +0.000 C 
ATOM     10  C   UNL     1       4.493  -0.082  -4.287  0.00  0.00    +0.002 C 
ATOM     11  C   UNL     1       3.756   0.305  -2.988  0.00  0.00    +0.022 C 
ENDBRANCH   3   5
BRANCH   1  13
ATOM     12  C   UNL     1      -0.019   1.526   0.010  0.00  0.00    +0.028 C 
ATOM     13  C   UNL     1       0.002  -0.004   0.002  0.00  0.00    +0.099 C 
ATOM     14  C   UNL     1       0.742  -0.511   1.242  0.00  0.00    +0.028 C 
BRANCH  13  15
ATOM     15  C   UNL     1      -1.412  -0.526   0.013  0.00  0.00    +0.146 C 
ATOM     16  N   UNL     1      -2.405   0.300   0.027  0.00  0.00    -0.076 NA
ATOM     17  N   UNL     1      -1.645  -1.883   0.008  0.00  0.00    -0.343 N 
ATOM     18  H   UNL     1      -0.899  -2.503  -0.003  0.00  0.00    +0.144 HD
ATOM     19  H   UNL     1      -2.555  -2.219   0.015  0.00  0.00    +0.144 HD
BRANCH  16  20
ATOM     20  O   UNL     1      -3.733  -0.190   0.037  0.00  0.00    -0.408 OA
ATOM     21  H   UNL     1      -4.408   0.503   0.047  0.00  0.00    +0.328 HD
ENDBRANCH  16  20
ENDBRANCH  13  15
ENDBRANCH   1  13
TORSDOF 4
