REMARK  Name = ZINC57740500
REMARK  9 active torsions:
REMARK  status: ('A' for Active; 'I' for Inactive)
REMARK    1  A    between atoms: C_1  and  C_2
REMARK    2  A    between atoms: C_2  and  C_4
REMARK    3  A    between atoms: C_2  and  N_26
REMARK    4  A    between atoms: C_4  and  C_5
REMARK    5  A    between atoms: C_5  and  N_6
REMARK    6  A    between atoms: C_15  and  C_17
REMARK    7  A    between atoms: N_26  and  C_27
REMARK    8  A    between atoms: C_27  and  C_28
REMARK    9  A    between atoms: C_28  and  C_29
REMARK                            x       y       z     vdW  Elec       q    Type
REMARK                         _______ _______ _______ _____ _____    ______ ____
ROOT
ATOM      1  N   UNL     1      -2.831  -2.543  -0.123  0.00  0.00    -0.188 N 
ATOM      2  C   UNL     1      -3.437  -2.689  -1.305  0.00  0.00    +0.282 C 
ATOM      3  O   UNL     1      -2.906  -2.240  -2.305  0.00  0.00    -0.267 OA
ATOM      4  C   UNL     1      -4.722  -3.376  -1.425  0.00  0.00    +0.108 A 
ATOM      5  C   UNL     1      -5.748  -3.085  -2.293  0.00  0.00    +0.048 A 
ATOM      6  C   UNL     1      -6.752  -4.016  -2.072  0.00  0.00    +0.038 A 
ATOM      7  C   UNL     1      -6.358  -4.893  -1.052  0.00  0.00    +0.057 A 
ATOM      8  N   UNL     1      -5.100  -4.460  -0.654  0.00  0.00    -0.330 N 
ATOM      9  C   UNL     1      -4.289  -5.025   0.431  0.00  0.00    +0.180 C 
ATOM     10  C   UNL     1      -4.014  -3.925   1.426  0.00  0.00    +0.086 C 
ATOM     11  N   UNL     1      -3.362  -2.869   1.106  0.00  0.00    -0.179 NA
ATOM     12  C   UNL     1      -7.277  -5.900  -0.727  0.00  0.00    +0.034 A 
ATOM     13  C   UNL     1      -8.457  -5.977  -1.377  0.00  0.00    +0.048 A 
ATOM     14  S   UNL     1      -8.363  -4.610  -2.520  0.00  0.00    -0.095 S 
ENDROOT
BRANCH  10  15
ATOM     15  C   UNL     1      -4.507  -4.071   2.808  0.00  0.00    -0.000 A 
ATOM     16  C   UNL     1      -5.340  -5.141   3.147  0.00  0.00    +0.010 A 
ATOM     17  C   UNL     1      -5.797  -5.272   4.442  0.00  0.00    +0.001 A 
ATOM     18  C   UNL     1      -5.433  -4.347   5.404  0.00  0.00    +0.000 A 
ATOM     19  C   UNL     1      -4.609  -3.285   5.076  0.00  0.00    +0.001 A 
ATOM     20  C   UNL     1      -4.140  -3.144   3.787  0.00  0.00    +0.010 A 
ENDBRANCH  10  15
BRANCH   1  21
ATOM     21  C   UNL     1      -1.474  -1.990  -0.135  0.00  0.00    +0.134 C 
BRANCH  21  22
ATOM     22  C   UNL     1      -1.544  -0.466  -0.019  0.00  0.00    +0.005 C 
BRANCH  22  24
ATOM     23  C   UNL     1      -0.199   1.640  -0.042  0.00  0.00    -0.014 C 
ATOM     24  C   UNL     1      -0.127   0.112  -0.032  0.00  0.00    -0.073 C 
BRANCH  24  25
ATOM     25  N   UNL     1       0.595  -0.336   1.167  0.00  0.00    +0.381 N 
ATOM     26  H   UNL     1       0.156   0.051   1.988  0.00  0.00    -0.086 HD
ATOM     27  H   UNL     1       0.572  -1.344   1.216  0.00  0.00    -0.086 HD
BRANCH  25  28
ATOM     28  C   UNL     1       1.990   0.118   1.096  0.00  0.00    -0.075 C 
BRANCH  28  29
ATOM     29  C   UNL     1       2.742  -0.349   2.344  0.00  0.00    +0.055 C 
BRANCH  29  30
ATOM     30  C   UNL     1       4.173   0.118   2.272  0.00  0.00    +0.103 A 
ATOM     31  C   UNL     1       4.646   1.283   2.751  0.00  0.00    +0.044 A 
ATOM     32  C   UNL     1       6.032   1.309   2.470  0.00  0.00    +0.041 A 
ATOM     33  C   UNL     1       6.322   0.158   1.836  0.00  0.00    +0.195 A 
ATOM     34  O   UNL     1       5.194  -0.562   1.725  0.00  0.00    -0.468 OA
ENDBRANCH  29  30
ENDBRANCH  28  29
ENDBRANCH  25  28
ENDBRANCH  24  25
ENDBRANCH  22  24
ENDBRANCH  21  22
ENDBRANCH   1  21
TORSDOF 8
