REMARK  Name = ZINC40399886
REMARK  10 active torsions:
REMARK  status: ('A' for Active; 'I' for Inactive)
REMARK    1  A    between atoms: C_1  and  C_2
REMARK    2  A    between atoms: C_2  and  C_3
REMARK    3  A    between atoms: C_3  and  C_5
REMARK    4  A    between atoms: C_3  and  C_6
REMARK    5  A    between atoms: N_10  and  C_31
REMARK    6  A    between atoms: N_15  and  S_18
REMARK    7  A    between atoms: S_18  and  C_21
REMARK    8  A    between atoms: C_24  and  N_27
REMARK    9  A    between atoms: C_28  and  C_30
REMARK   10  A    between atoms: C_31  and  C_32
REMARK                            x       y       z     vdW  Elec       q    Type
REMARK                         _______ _______ _______ _____ _____    ______ ____
ROOT
ATOM      1  C   UNL     1       0.520  -1.999   1.111  0.00  0.00    +0.022 C 
ATOM      2  C   UNL     1       1.321  -2.626  -0.010  0.00  0.00    +0.201 C 
ATOM      3  O   UNL     1       1.270  -2.310  -1.180  0.00  0.00    -0.277 OA
ATOM      4  N   UNL     1       2.101  -3.595   0.511  0.00  0.00    -0.313 N 
ATOM      5  C   UNL     1       1.877  -3.679   1.956  0.00  0.00    +0.006 C 
ATOM      6  N   UNL     1       1.214  -2.417   2.353  0.00  0.00    +0.401 N 
ATOM      7  C   UNL     1       0.966  -4.862   2.281  0.00  0.00    +0.023 C 
ATOM      8  C   UNL     1       1.642  -6.162   1.831  0.00  0.00    +0.109 C 
ATOM      9  N   UNL     1       2.978  -6.234   2.437  0.00  0.00    -0.177 NA
ATOM     10  C   UNL     1       3.903  -5.108   2.245  0.00  0.00    +0.109 C 
ATOM     11  C   UNL     1       3.209  -3.818   2.691  0.00  0.00    +0.023 C 
ATOM     12  H   UNL     1       1.897  -1.728   2.630  0.00  0.00    -0.082 HD
ATOM     13  H   UNL     1       0.549  -2.580   3.095  0.00  0.00    -0.082 HD
ENDROOT
BRANCH   9  14
ATOM     14  S   UNL     1       3.434  -7.558   3.320  0.00  0.00    +0.061 S 
ATOM     15  O   UNL     1       4.465  -7.127   4.197  0.00  0.00    -0.153 OA
ATOM     16  O   UNL     1       2.237  -8.164   3.790  0.00  0.00    -0.153 OA
BRANCH  14  17
ATOM     17  C   UNL     1       4.171  -8.702   2.201  0.00  0.00    +0.106 A 
ATOM     18  C   UNL     1       3.387  -9.646   1.563  0.00  0.00    +0.030 A 
ATOM     19  C   UNL     1       3.962 -10.544   0.685  0.00  0.00    +0.025 A 
ATOM     20  C   UNL     1       5.328 -10.499   0.443  0.00  0.00    +0.033 A 
ATOM     21  C   UNL     1       6.113  -9.550   1.086  0.00  0.00    +0.025 A 
ATOM     22  C   UNL     1       5.531  -8.651   1.959  0.00  0.00    +0.030 A 
BRANCH  20  23
ATOM     23  N   UNL     1       5.914 -11.408  -0.445  0.00  0.00    -0.286 N 
ATOM     24  C   UNL     1       5.233 -11.820  -1.532  0.00  0.00    +0.214 C 
ATOM     25  O   UNL     1       4.153 -11.335  -1.792  0.00  0.00    -0.276 OA
ATOM     26  C   UNL     1       5.815 -12.886  -2.426  0.00  0.00    +0.109 C 
ATOM     27  H   UNL     1       6.810 -11.740  -0.278  0.00  0.00    +0.155 HD
ENDBRANCH  20  23
ENDBRANCH  14  17
ENDBRANCH   9  14
BRANCH   1  28
ATOM     28  C   UNL     1       0.529  -0.474   0.984  0.00  0.00    -0.020 C 
ATOM     29  C   UNL     1       1.971   0.019   0.855  0.00  0.00    +0.006 C 
BRANCH  28  31
ATOM     30  C   UNL     1      -0.362   1.464  -0.317  0.00  0.00    +0.004 C 
ATOM     31  C   UNL     1      -0.264  -0.062  -0.258  0.00  0.00    -0.001 C 
ENDBRANCH  28  31
ENDBRANCH   1  28
BRANCH   4  32
ATOM     32  C   UNL     1       3.030  -4.434  -0.251  0.00  0.00    +0.109 C 
BRANCH  32  33
ATOM     33  C   UNL     1       4.400  -3.755  -0.310  0.00  0.00    +0.006 C 
ATOM     34  C   UNL     1       4.920  -3.334  -1.686  0.00  0.00    +0.005 C 
ATOM     35  C   UNL     1       5.545  -4.530  -0.965  0.00  0.00    +0.005 C 
ENDBRANCH  32  33
ENDBRANCH   4  32
TORSDOF 7
