REMARK  Name = ZINC09881625
REMARK  8 active torsions:
REMARK  status: ('A' for Active; 'I' for Inactive)
REMARK    1  A    between atoms: C_1  and  C_2
REMARK    2  A    between atoms: C_2  and  C_4
REMARK    3  A    between atoms: C_2  and  S_18
REMARK    4  A    between atoms: N_6  and  C_7
REMARK    5  A    between atoms: S_18  and  C_19
REMARK    6  A    between atoms: C_22  and  C_31
REMARK    7  A    between atoms: N_23  and  C_24
REMARK    8  A    between atoms: C_31  and  N_67
REMARK                            x       y       z     vdW  Elec       q    Type
REMARK                         _______ _______ _______ _____ _____    ______ ____
ROOT
ATOM      1  C   UNL     1       0.345  -4.747   2.163  0.00  0.00    +0.197 A 
ATOM      2  N   UNL     1       1.083  -4.708   3.248  0.00  0.00    -0.122 NA
ATOM      3  N   UNL     1       0.796  -5.704   4.008  0.00  0.00    -0.135 NA
ATOM      4  C   UNL     1      -0.134  -6.434   3.459  0.00  0.00    +0.122 A 
ATOM      5  N   UNL     1      -0.460  -5.848   2.265  0.00  0.00    -0.276 N 
ENDROOT
BRANCH   5   6
ATOM      6  C   UNL     1      -1.417  -6.287   1.338  0.00  0.00    +0.050 A 
ATOM      7  C   UNL     1      -2.762  -6.302   1.683  0.00  0.00    +0.029 A 
ATOM      8  C   UNL     1      -3.704  -6.729   0.767  0.00  0.00    +0.040 A 
ATOM      9  C   UNL     1      -3.306  -7.154  -0.489  0.00  0.00    +0.124 A 
ATOM     10  C   UNL     1      -1.965  -7.146  -0.833  0.00  0.00    +0.040 A 
ATOM     11  C   UNL     1      -1.021  -6.713   0.078  0.00  0.00    +0.029 A 
ATOM     12  F   UNL     1      -4.228  -7.577  -1.382  0.00  0.00    -0.205 F 
ENDBRANCH   5   6
BRANCH   1  13
ATOM     13  S   UNL     1       0.380  -3.594   0.831  0.00  0.00    -0.073 S 
BRANCH  13  15
ATOM     14  C   UNL     1       2.997  -3.197   1.504  0.00  0.00    +0.029 C 
ATOM     15  C   UNL     1       1.658  -2.461   1.429  0.00  0.00    +0.137 C 
BRANCH  15  16
ATOM     16  C   UNL     1       1.778  -1.294   0.482  0.00  0.00    +0.227 C 
ATOM     17  O   UNL     1       1.362  -1.389  -0.653  0.00  0.00    -0.275 OA
ATOM     18  N   UNL     1       2.348  -0.145   0.897  0.00  0.00    -0.308 N 
ATOM     19  H   UNL     1       2.681  -0.070   1.805  0.00  0.00    +0.149 HD
BRANCH  18  20
ATOM     20  C   UNL     1       2.465   0.988  -0.023  0.00  0.00    +0.103 C 
ATOM     21  C   UNL     1       3.644   1.861   0.401  0.00  0.00    +0.027 C 
ATOM     22  C   UNL     1       3.618   3.147  -0.434  0.00  0.00    +0.007 C 
ATOM     23  C   UNL     1       2.422   3.986   0.011  0.00  0.00    +0.035 C 
ATOM     24  C   UNL     1       1.164   3.158   0.009  0.00  0.00    -0.042 A 
ATOM     25  C   UNL     1       1.184   1.781   0.000  0.00  0.00    -0.024 A 
ATOM     26  C   UNL     1      -0.013   1.076   0.008  0.00  0.00    +0.006 A 
ATOM     27  C   UNL     1      -1.220   1.744   0.017  0.00  0.00    +0.000 A 
ATOM     28  C   UNL     1      -1.240   3.126   0.029  0.00  0.00    +0.000 A 
ATOM     29  C   UNL     1      -0.052   3.828   0.021  0.00  0.00    +0.004 A 
ENDBRANCH  18  20
ENDBRANCH  15  16
ENDBRANCH  13  15
ENDBRANCH   1  13
BRANCH   4  30
ATOM     30  C   UNL     1      -0.742  -7.687   4.035  0.00  0.00    -0.001 C 
BRANCH  30  36
ATOM     31  C   UNL     1      -1.507  -6.560   6.036  0.00  0.00    -0.078 C 
ATOM     32  C   UNL     1      -2.754  -6.086   6.785  0.00  0.00    -0.019 C 
ATOM     33  C   UNL     1      -3.583  -7.303   7.206  0.00  0.00    -0.004 C 
ATOM     34  C   UNL     1      -3.947  -8.118   5.962  0.00  0.00    -0.019 C 
ATOM     35  C   UNL     1      -2.666  -8.533   5.237  0.00  0.00    -0.078 C 
ATOM     36  N   UNL     1      -1.926  -7.316   4.837  0.00  0.00    +0.384 N 
ATOM     37  H   UNL     1      -2.542  -6.724   4.268  0.00  0.00    -0.081 HD
ENDBRANCH  30  36
ENDBRANCH   4  30
TORSDOF 7
