REMARK  Name = ZINC20257589
REMARK  6 active torsions:
REMARK  status: ('A' for Active; 'I' for Inactive)
REMARK    1  A    between atoms: C_1  and  C_2
REMARK    2  A    between atoms: C_5  and  N_20
REMARK    3  A    between atoms: C_7  and  N_8
REMARK    4  A    between atoms: N_8  and  S_9
REMARK    5  A    between atoms: S_9  and  N_12
REMARK    6  A    between atoms: C_16  and  C_19
REMARK                            x       y       z     vdW  Elec       q    Type
REMARK                         _______ _______ _______ _____ _____    ______ ____
ROOT
ATOM      1  N   UNL     1       0.133   0.520   5.995  0.00  0.00    -0.206 N 
ATOM      2  H   UNL     1       0.581  -0.472   6.154  0.00  0.00    +0.175 HD
ENDROOT
BRANCH   1   9
ATOM      3  C   UNL     1       2.961   0.629   6.271  0.00  0.00    +0.046 C 
ATOM      4  C   UNL     1       2.069   1.739   6.764  0.00  0.00    -0.028 A 
ATOM      5  C   UNL     1       2.622   2.851   7.372  0.00  0.00    +0.007 A 
ATOM      6  C   UNL     1       1.808   3.870   7.825  0.00  0.00    +0.023 A 
ATOM      7  C   UNL     1       0.430   3.782   7.672  0.00  0.00    +0.026 A 
ATOM      8  C   UNL     1      -0.129   2.669   7.059  0.00  0.00    +0.047 A 
ATOM      9  C   UNL     1       0.692   1.644   6.609  0.00  0.00    +0.054 A 
BRANCH   7  10
ATOM     10  N   UNL     1      -0.393   4.814   8.130  0.00  0.00    -0.358 N 
ATOM     11  H   UNL     1      -1.484   4.743   8.008  0.00  0.00    +0.142 HD
ATOM     12  H   UNL     1       0.051   5.697   8.613  0.00  0.00    +0.142 HD
ENDBRANCH   7  10
ENDBRANCH   1   9
BRANCH   1  13
ATOM     13  S   UNL     1      -1.202   0.682   5.029  0.00  0.00    +0.112 S 
ATOM     14  O   UNL     1      -2.184   1.357   5.803  0.00  0.00    -0.138 OA
ATOM     15  O   UNL     1      -1.436  -0.591   4.444  0.00  0.00    -0.138 OA
BRANCH  13  16
ATOM     16  N   UNL     1      -0.790   1.703   3.792  0.00  0.00    -0.164 NA
ATOM     17  C   UNL     1      -0.985   3.154   3.923  0.00  0.00    +0.111 C 
ATOM     18  C   UNL     1      -1.809   3.650   2.731  0.00  0.00    +0.017 C 
ATOM     19  C   UNL     1      -1.127   3.222   1.430  0.00  0.00    +0.006 C 
ATOM     20  C   UNL     1      -1.058   1.695   1.367  0.00  0.00    +0.002 C 
ATOM     21  C   UNL     1      -0.225   1.176   2.543  0.00  0.00    +0.114 C 
ATOM     22  C   UNL     1      -0.406   1.267   0.051  0.00  0.00    +0.009 C 
ENDBRANCH  13  16
ENDBRANCH   1  13
TORSDOF 4
