REMARK  Name = ZINC58017095
REMARK  11 active torsions:
REMARK  status: ('A' for Active; 'I' for Inactive)
REMARK    1  A    between atoms: C_1  and  C_2
REMARK    2  A    between atoms: C_2  and  C_4
REMARK    3  A    between atoms: C_2  and  S_11
REMARK    4  A    between atoms: C_4  and  O_6
REMARK    5  A    between atoms: O_6  and  C_7
REMARK    6  A    between atoms: C_7  and  C_8
REMARK    7  A    between atoms: C_8  and  C_9
REMARK    8  A    between atoms: C_8  and  C_10
REMARK    9  A    between atoms: S_11  and  C_12
REMARK   10  A    between atoms: C_15  and  C_18
REMARK   11  A    between atoms: C_18  and  C_20
REMARK                            x       y       z     vdW  Elec       q    Type
REMARK                         _______ _______ _______ _____ _____    ______ ____
ROOT
ATOM      1  C   UNL     1      -1.501  -2.384   0.138  0.00  0.00    +0.009 A 
ATOM      2  C   UNL     1      -0.224  -2.944   0.123  0.00  0.00    +0.015 A 
ATOM      3  C   UNL     1      -0.072  -4.300   0.104  0.00  0.00    +0.012 A 
ATOM      4  C   UNL     1      -1.201  -5.130   0.098  0.00  0.00    +0.018 A 
ATOM      5  C   UNL     1      -2.483  -4.563   0.113  0.00  0.00    +0.012 A 
ATOM      6  C   UNL     1      -2.627  -3.206   0.138  0.00  0.00    +0.015 A 
ENDROOT
BRANCH   4   7
ATOM      7  C   UNL     1      -1.042  -6.588   0.077  0.00  0.00    +0.166 C 
ATOM      8  O   UNL     1       0.068  -7.077   0.064  0.00  0.00    -0.292 OA
BRANCH   7   9
ATOM      9  C   UNL     1      -2.258  -7.479   0.071  0.00  0.00    +0.060 C 
ATOM     10  C   UNL     1      -2.242  -8.702   0.990  0.00  0.00    +0.012 C 
ATOM     11  C   UNL     1      -2.104  -8.880  -0.523  0.00  0.00    +0.012 C 
ENDBRANCH   7   9
ENDBRANCH   4   7
BRANCH   1  12
ATOM     12  S   UNL     1      -1.692  -0.633   0.164  0.00  0.00    -0.111 S 
BRANCH  12  14
ATOM     13  C   UNL     1       0.008   1.510   0.157  0.00  0.00    +0.031 C 
ATOM     14  C   UNL     1       0.003  -0.009   0.340  0.00  0.00    +0.157 C 
BRANCH  14  15
ATOM     15  C   UNL     1       0.524  -0.352   1.711  0.00  0.00    +0.320 C 
ATOM     16  O   UNL     1      -0.247  -0.617   2.602  0.00  0.00    -0.250 OA
BRANCH  15  17
ATOM     17  O   UNL     1       1.846  -0.363   1.943  0.00  0.00    -0.464 OA
BRANCH  17  18
ATOM     18  C   UNL     1       2.271  -0.697   3.266  0.00  0.00    +0.235 C 
BRANCH  18  19
ATOM     19  C   UNL     1       3.798  -0.657   3.337  0.00  0.00    +0.020 C 
ATOM     20  C   UNL     1       4.283   0.776   3.106  0.00  0.00    +0.010 C 
ATOM     21  C   UNL     1       4.257  -1.135   4.716  0.00  0.00    +0.010 C 
ENDBRANCH  18  19
ENDBRANCH  17  18
ENDBRANCH  15  17
ENDBRANCH  14  15
ENDBRANCH  12  14
ENDBRANCH   1  12
TORSDOF 8
