REMARK  Name = ZINC21284522
REMARK  6 active torsions:
REMARK  status: ('A' for Active; 'I' for Inactive)
REMARK    1  A    between atoms: C_1  and  C_2
REMARK    2  A    between atoms: C_8  and  N_10
REMARK    3  A    between atoms: C_14  and  C_16
REMARK    4  A    between atoms: C_16  and  N_17
REMARK    5  A    between atoms: C_20  and  C_24
REMARK    6  A    between atoms: C_20  and  C_25
REMARK                            x       y       z     vdW  Elec       q    Type
REMARK                         _______ _______ _______ _____ _____    ______ ____
ROOT
ATOM      1  C   UNL     1      -3.664   1.915   0.030  0.00  0.00    +0.214 C 
ENDROOT
BRANCH   1   2
ATOM      2  N   UNL     1      -4.764   0.948   0.030  0.00  0.00    -0.215 N 
ATOM      3  C   UNL     1      -5.342   0.459  -1.085  0.00  0.00    +0.251 C 
ATOM      4  O   UNL     1      -5.059   0.725  -2.234  0.00  0.00    -0.272 OA
ATOM      5  C   UNL     1      -6.417  -0.496  -0.604  0.00  0.00    +0.135 C 
ATOM      6  N   UNL     1      -6.315  -0.421   0.863  0.00  0.00    -0.281 N 
ATOM      7  C   UNL     1      -5.324   0.446   1.137  0.00  0.00    +0.310 C 
ATOM      8  O   UNL     1      -4.976   0.741   2.263  0.00  0.00    -0.252 OA
ATOM      9  C   UNL     1      -6.135  -1.919  -1.091  0.00  0.00    +0.047 C 
ATOM     10  H   UNL     1      -6.990  -1.020   1.493  0.00  0.00    +0.152 HD
BRANCH   5  11
ATOM     11  C   UNL     1      -7.775  -0.035  -1.066  0.00  0.00    -0.015 A 
ATOM     12  C   UNL     1      -7.912   0.594  -2.290  0.00  0.00    +0.007 A 
ATOM     13  C   UNL     1      -9.158   1.012  -2.716  0.00  0.00    +0.020 A 
ATOM     14  C   UNL     1     -10.267   0.811  -1.914  0.00  0.00    +0.041 A 
ATOM     15  C   UNL     1     -10.129   0.187  -0.687  0.00  0.00    +0.020 A 
ATOM     16  C   UNL     1      -8.883  -0.236  -0.264  0.00  0.00    +0.007 A 
ATOM     17 CL   UNL     1     -11.832   1.342  -2.446  0.00  0.00    -0.084 Cl
ENDBRANCH   5  11
ENDBRANCH   1   2
BRANCH   1  22
ATOM     18  N   UNL     1       1.143   1.901   0.001  0.00  0.00    -0.296 N 
ATOM     19  C   UNL     1      -0.014   1.211   0.009  0.00  0.00    +0.306 C 
ATOM     20  O   UNL     1       0.002  -0.004   0.002  0.00  0.00    -0.252 OA
ATOM     21  N   UNL     1      -1.191   1.869   0.018  0.00  0.00    -0.239 N 
ATOM     22  C   UNL     1      -2.349   1.179   0.020  0.00  0.00    +0.238 C 
ATOM     23  O   UNL     1      -2.332  -0.033   0.013  0.00  0.00    -0.274 OA
ATOM     24  H   UNL     1       1.129   3.001   0.007  0.00  0.00    +0.151 HD
ATOM     25  H   UNL     1      -1.206   2.969   0.024  0.00  0.00    +0.159 HD
BRANCH  18  32
ATOM     26  C   UNL     1       3.141   2.425   2.032  0.00  0.00    +0.009 C 
ATOM     27  C   UNL     1       3.511   2.075   0.589  0.00  0.00    +0.006 C 
ATOM     28  C   UNL     1       3.635   3.359  -0.232  0.00  0.00    +0.005 C 
ATOM     29  C   UNL     1       4.005   3.008  -1.675  0.00  0.00    +0.000 C 
ATOM     30  C   UNL     1       2.916   2.119  -2.279  0.00  0.00    +0.002 C 
ATOM     31  C   UNL     1       2.792   0.835  -1.457  0.00  0.00    +0.022 C 
ATOM     32  C   UNL     1       2.422   1.186  -0.015  0.00  0.00    +0.077 C 
ENDBRANCH  18  32
ENDBRANCH   1  22
TORSDOF 4
