REMARK  Name = ZINC39676860
REMARK  7 active torsions:
REMARK  status: ('A' for Active; 'I' for Inactive)
REMARK    1  A    between atoms: C_1  and  C_2
REMARK    2  A    between atoms: C_5  and  C_34
REMARK    3  A    between atoms: C_6  and  C_8
REMARK    4  A    between atoms: C_8  and  C_9
REMARK    5  A    between atoms: C_9  and  N_10
REMARK    6  A    between atoms: C_11  and  C_13
REMARK    7  A    between atoms: C_24  and  C_26
REMARK                            x       y       z     vdW  Elec       q    Type
REMARK                         _______ _______ _______ _____ _____    ______ ____
ROOT
ATOM      1  C   UNL     1       2.694  -5.103   5.948  0.00  0.00    +0.100 C 
ATOM      2  C   UNL     1       2.272  -4.181   7.114  0.00  0.00    +0.121 C 
ATOM      3  N   UNL     1       3.127  -4.600   8.250  0.00  0.00    -0.296 N 
ATOM      4  C   UNL     1       4.450  -4.865   7.637  0.00  0.00    +0.115 C 
ATOM      5  C   UNL     1       4.124  -5.549   6.294  0.00  0.00    -0.004 C 
ATOM      6  C   UNL     1       5.098  -5.085   5.216  0.00  0.00    -0.010 C 
ATOM      7  C   UNL     1       6.504  -5.590   5.553  0.00  0.00    -0.082 C 
ATOM      8  N   UNL     1       6.493  -7.056   5.632  0.00  0.00    +0.379 N 
ATOM      9  C   UNL     1       5.625  -7.491   6.733  0.00  0.00    -0.082 C 
ATOM     10  C   UNL     1       4.182  -7.066   6.446  0.00  0.00    -0.010 C 
ATOM     11  C   UNL     1       2.779  -4.714   9.547  0.00  0.00    +0.248 C 
ATOM     12  O   UNL     1       1.622  -4.554   9.883  0.00  0.00    -0.270 OA
ATOM     13  H   UNL     1       6.148  -7.436   4.763  0.00  0.00    -0.086 HD
ATOM     14  H   UNL     1       7.431  -7.390   5.793  0.00  0.00    -0.086 HD
ENDROOT
BRANCH  11  15
ATOM     15  C   UNL     1       3.805  -5.034  10.561  0.00  0.00    +0.055 A 
ATOM     16  C   UNL     1       5.102  -4.534  10.428  0.00  0.00    +0.016 A 
ATOM     17  C   UNL     1       6.055  -4.836  11.377  0.00  0.00    +0.021 A 
ATOM     18  C   UNL     1       5.729  -5.633  12.463  0.00  0.00    +0.042 A 
ATOM     19  C   UNL     1       4.445  -6.133  12.601  0.00  0.00    +0.040 A 
ATOM     20  C   UNL     1       3.479  -5.832  11.661  0.00  0.00    +0.054 A 
ATOM     21 CL   UNL     1       1.868  -6.452  11.839  0.00  0.00    -0.083 Cl
ATOM     22 CL   UNL     1       6.935  -6.009  13.653  0.00  0.00    -0.083 Cl
ENDBRANCH  11  15
BRANCH   1  24
ATOM     23  N   UNL     1       2.605  -5.007   3.478  0.00  0.00    -0.315 N 
ATOM     24  C   UNL     1       2.682  -4.341   4.647  0.00  0.00    +0.218 C 
ATOM     25  O   UNL     1       2.742  -3.130   4.653  0.00  0.00    -0.275 OA
ATOM     26  H   UNL     1       2.557  -5.976   3.473  0.00  0.00    +0.149 HD
BRANCH  23  27
ATOM     27  C   UNL     1       2.594  -4.267   2.213  0.00  0.00    +0.109 C 
BRANCH  27  28
ATOM     28  C   UNL     1       2.501  -5.252   1.047  0.00  0.00    +0.054 C 
BRANCH  28  34
ATOM     29  C   UNL     1      -0.034  -3.131  -2.711  0.00  0.00    +0.044 C 
ATOM     30  C   UNL     1       1.276  -3.477  -2.052  0.00  0.00    -0.050 A 
ATOM     31  C   UNL     1       2.468  -3.096  -2.641  0.00  0.00    +0.003 A 
ATOM     32  C   UNL     1       3.670  -3.413  -2.036  0.00  0.00    +0.004 A 
ATOM     33  C   UNL     1       3.680  -4.111  -0.843  0.00  0.00    -0.047 A 
ATOM     34  C   UNL     1       2.489  -4.491  -0.254  0.00  0.00    -0.043 A 
ATOM     35  C   UNL     1       1.287  -4.170  -0.856  0.00  0.00    +0.007 A 
ATOM     36  C   UNL     1       4.991  -4.458  -0.184  0.00  0.00    +0.044 C 
ENDBRANCH  28  34
ENDBRANCH  27  28
ENDBRANCH  23  27
ENDBRANCH   1  24
TORSDOF 5
