REMARK  Name = ZINC55584786
REMARK  5 active torsions:
REMARK  status: ('A' for Active; 'I' for Inactive)
REMARK    1  A    between atoms: C_1  and  C_2
REMARK    2  A    between atoms: C_5  and  S_9
REMARK    3  A    between atoms: S_9  and  N_12
REMARK    4  A    between atoms: N_12  and  C_13
REMARK    5  A    between atoms: C_18  and  N_19
REMARK                            x       y       z     vdW  Elec       q    Type
REMARK                         _______ _______ _______ _____ _____    ______ ____
ROOT
ATOM      1  N   UNL     1       1.665  -5.014  -0.362  0.00  0.00    -0.096 NA
ENDROOT
BRANCH   1   2
ATOM      2  C   UNL     1       1.986  -6.365  -0.208  0.00  0.00    +0.101 A 
ATOM      3  C   UNL     1       0.982  -7.324  -0.214  0.00  0.00    +0.029 A 
ATOM      4  C   UNL     1       1.301  -8.660  -0.061  0.00  0.00    +0.003 A 
ATOM      5  C   UNL     1       2.620  -9.046   0.098  0.00  0.00    +0.022 A 
ATOM      6  C   UNL     1       3.627  -8.098   0.105  0.00  0.00    +0.068 A 
ATOM      7  C   UNL     1       3.316  -6.755  -0.054  0.00  0.00    +0.110 A 
ATOM      8 CL   UNL     1       5.280  -8.589   0.306  0.00  0.00    -0.081 Cl
BRANCH   7   9
ATOM      9  N   UNL     1       4.336  -5.792  -0.054  0.00  0.00    -0.217 N 
ATOM     10  C   UNL     1       4.362  -4.644   0.650  0.00  0.00    +0.225 A 
ATOM     11  N   UNL     1       5.482  -4.025   0.375  0.00  0.00    -0.222 NA
ATOM     12  C   UNL     1       6.193  -4.742  -0.494  0.00  0.00    +0.245 A 
ATOM     13  N   UNL     1       5.535  -5.835  -0.782  0.00  0.00    -0.153 NA
ENDBRANCH   7   9
ENDBRANCH   1   2
BRANCH   1  14
ATOM     14  S   UNL     1       0.085  -4.554  -0.544  0.00  0.00    +0.092 S 
ATOM     15  O   UNL     1      -0.570  -4.853   0.681  0.00  0.00    -0.148 OA
ATOM     16  O   UNL     1      -0.351  -5.082  -1.790  0.00  0.00    -0.148 OA
BRANCH  14  21
ATOM     17  C   UNL     1       0.028   1.454  -1.110  0.00  0.00    +0.045 C 
ATOM     18  C   UNL     1       0.042  -0.046  -0.968  0.00  0.00    -0.032 A 
ATOM     19  C   UNL     1       0.154  -0.846  -2.091  0.00  0.00    +0.007 A 
ATOM     20  C   UNL     1       0.167  -2.222  -1.961  0.00  0.00    +0.029 A 
ATOM     21  C   UNL     1       0.068  -2.799  -0.709  0.00  0.00    +0.112 A 
ATOM     22  C   UNL     1      -0.043  -2.001   0.414  0.00  0.00    +0.049 A 
ATOM     23  C   UNL     1      -0.051  -0.624   0.285  0.00  0.00    +0.046 A 
ATOM     24 CL   UNL     1      -0.185   0.380   1.696  0.00  0.00    -0.083 Cl
ENDBRANCH  14  21
ENDBRANCH   1  14
TORSDOF 4
