REMARK  Name = ZINC41078201
REMARK  11 active torsions:
REMARK  status: ('A' for Active; 'I' for Inactive)
REMARK    1  A    between atoms: C_1  and  C_2
REMARK    2  A    between atoms: C_9  and  C_38
REMARK    3  A    between atoms: C_10  and  C_13
REMARK    4  A    between atoms: C_13  and  C_14
REMARK    5  A    between atoms: C_17  and  S_20
REMARK    6  A    between atoms: N_18  and  C_19
REMARK    7  A    between atoms: S_20  and  C_21
REMARK    8  A    between atoms: C_21  and  C_22
REMARK    9  A    between atoms: N_24  and  C_25
REMARK   10  A    between atoms: C_25  and  C_27
REMARK   11  A    between atoms: C_25  and  C_28
REMARK                            x       y       z     vdW  Elec       q    Type
REMARK                         _______ _______ _______ _____ _____    ______ ____
ROOT
ATOM      1  C   UNL     1      -1.296  -6.894   1.125  0.00  0.00    +0.138 A 
ATOM      2  N   UNL     1      -2.051  -7.101   2.166  0.00  0.00    -0.133 NA
ATOM      3  N   UNL     1      -3.173  -7.612   1.803  0.00  0.00    -0.122 NA
ATOM      4  C   UNL     1      -3.194  -7.760   0.499  0.00  0.00    +0.192 A 
ATOM      5  N   UNL     1      -1.999  -7.301   0.025  0.00  0.00    -0.309 N 
ATOM      6  C   UNL     1      -1.559  -7.258  -1.372  0.00  0.00    +0.152 C 
ENDROOT
BRANCH   1   7
ATOM      7  C   UNL     1       0.092  -6.307   1.131  0.00  0.00    +0.118 C 
BRANCH   7  17
ATOM      8  C   UNL     1      -0.456   1.541   0.390  0.00  0.00    +0.044 C 
ATOM      9  C   UNL     1      -0.367   0.039   0.309  0.00  0.00    -0.046 A 
ATOM     10  C   UNL     1      -0.415  -0.605  -0.935  0.00  0.00    +0.021 A 
ATOM     11  C   UNL     1      -0.335  -1.952  -1.007  0.00  0.00    +0.096 A 
ATOM     12  N   UNL     1      -0.208  -2.703   0.123  0.00  0.00    -0.268 N 
ATOM     13  C   UNL     1      -0.158  -2.104   1.351  0.00  0.00    +0.141 A 
ATOM     14  C   UNL     1      -0.235  -0.702   1.445  0.00  0.00    +0.050 A 
ATOM     15  N   UNL     1      -0.033  -2.830   2.460  0.00  0.00    -0.234 NA
ATOM     16  C   UNL     1       0.047  -4.151   2.413  0.00  0.00    +0.049 A 
ATOM     17  C   UNL     1       0.002  -4.804   1.197  0.00  0.00    +0.046 A 
ATOM     18  C   UNL     1      -0.130  -4.047   0.027  0.00  0.00    +0.262 A 
ATOM     19  O   UNL     1      -0.173  -4.594  -1.064  0.00  0.00    -0.267 OA
ATOM     20  C   UNL     1       0.187  -4.942   3.688  0.00  0.00    +0.066 C 
ENDBRANCH   7  17
ENDBRANCH   1   7
BRANCH   4  21
ATOM     21  S   UNL     1      -4.518  -8.420  -0.459  0.00  0.00    -0.077 S 
BRANCH  21  22
ATOM     22  C   UNL     1      -5.790  -8.825   0.770  0.00  0.00    +0.173 C 
BRANCH  22  23
ATOM     23  C   UNL     1      -6.993  -9.406   0.074  0.00  0.00    +0.224 C 
ATOM     24  O   UNL     1      -6.993  -9.535  -1.132  0.00  0.00    -0.275 OA
ATOM     25  N   UNL     1      -8.070  -9.783   0.791  0.00  0.00    -0.305 N 
ATOM     26  H   UNL     1      -8.070  -9.680   1.756  0.00  0.00    +0.149 HD
BRANCH  25  27
ATOM     27  C   UNL     1      -9.240 -10.349   0.115  0.00  0.00    +0.136 C 
ATOM     28  C   UNL     1     -10.144  -9.215  -0.372  0.00  0.00    +0.036 C 
BRANCH  27  29
ATOM     29  C   UNL     1     -10.003 -11.222   1.077  0.00  0.00    +0.128 A 
ATOM     30  N   UNL     1     -10.812 -12.255   0.718  0.00  0.00    -0.340 N 
ATOM     31  H   UNL     1     -10.995 -12.555  -0.186  0.00  0.00    +0.167 HD
ATOM     32  C   UNL     1     -11.323 -12.800   1.879  0.00  0.00    +0.066 A 
ATOM     33  C   UNL     1     -12.186 -13.851   2.156  0.00  0.00    +0.028 A 
ATOM     34  C   UNL     1     -12.505 -14.146   3.465  0.00  0.00    +0.002 A 
ATOM     35  C   UNL     1     -11.970 -13.399   4.505  0.00  0.00    +0.002 A 
ATOM     36  C   UNL     1     -11.120 -12.361   4.251  0.00  0.00    +0.030 A 
ATOM     37  C   UNL     1     -10.781 -12.044   2.933  0.00  0.00    +0.089 A 
ATOM     38  N   UNL     1      -9.980 -11.101   2.372  0.00  0.00    -0.231 NA
ENDBRANCH  27  29
ENDBRANCH  25  27
ENDBRANCH  22  23
ENDBRANCH  21  22
ENDBRANCH   4  21
TORSDOF 7
