REMARK  Name = ZINC16276407
REMARK  15 active torsions:
REMARK  status: ('A' for Active; 'I' for Inactive)
REMARK    1  A    between atoms: C_1  and  C_2
REMARK    2  A    between atoms: C_2  and  N_3
REMARK    3  A    between atoms: C_4  and  C_23
REMARK    4  A    between atoms: C_7  and  S_8
REMARK    5  A    between atoms: S_8  and  C_9
REMARK    6  A    between atoms: C_9  and  C_10
REMARK    7  A    between atoms: N_12  and  C_13
REMARK    8  A    between atoms: C_16  and  N_20
REMARK    9  A    between atoms: C_18  and  C_19
REMARK   10  A    between atoms: C_23  and  C_25
REMARK   11  A    between atoms: C_23  and  N_28
REMARK   12  A    between atoms: C_25  and  C_26
REMARK   13  A    between atoms: C_25  and  C_27
REMARK   14  A    between atoms: C_29  and  C_31
REMARK   15  A    between atoms: C_34  and  C_37
REMARK                            x       y       z     vdW  Elec       q    Type
REMARK                         _______ _______ _______ _____ _____    ______ ____
ROOT
ATOM      1  N   UNL     1      -7.745   1.706  -0.521  0.00  0.00    -0.305 N 
ATOM      2  C   UNL     1      -8.432   2.887  -0.569  0.00  0.00    +0.155 A 
ATOM      3  N   UNL     1      -7.556   3.849  -0.490  0.00  0.00    -0.132 NA
ATOM      4  N   UNL     1      -6.372   3.360  -0.391  0.00  0.00    -0.122 NA
ATOM      5  C   UNL     1      -6.428   2.048  -0.410  0.00  0.00    +0.192 A 
ENDROOT
BRANCH   1   7
ATOM      6  C   UNL     1      -8.619  -0.127   0.842  0.00  0.00    +0.027 C 
ATOM      7  C   UNL     1      -8.305   0.353  -0.577  0.00  0.00    +0.122 C 
ENDBRANCH   1   7
BRANCH   5   8
ATOM      8  S   UNL     1      -5.062   0.940  -0.304  0.00  0.00    -0.077 S 
BRANCH   8   9
ATOM      9  C   UNL     1      -3.702   2.128  -0.184  0.00  0.00    +0.173 C 
BRANCH   9  10
ATOM     10  C   UNL     1      -2.394   1.385  -0.081  0.00  0.00    +0.227 C 
ATOM     11  O   UNL     1      -2.383   0.173  -0.088  0.00  0.00    -0.275 OA
ATOM     12  N   UNL     1      -1.237   2.069   0.019  0.00  0.00    -0.285 N 
ATOM     13  H   UNL     1      -1.250   3.037   0.090  0.00  0.00    +0.155 HD
BRANCH  12  14
ATOM     14  C   UNL     1      -0.017   1.384   0.021  0.00  0.00    +0.036 A 
ATOM     15  C   UNL     1       0.078   0.134   0.619  0.00  0.00    +0.026 A 
ATOM     16  C   UNL     1       1.282  -0.542   0.613  0.00  0.00    +0.034 A 
ATOM     17  C   UNL     1       2.392   0.023   0.013  0.00  0.00    +0.127 A 
ATOM     18  C   UNL     1       2.300   1.267  -0.584  0.00  0.00    +0.038 A 
ATOM     19  C   UNL     1       1.099   1.949  -0.581  0.00  0.00    -0.027 A 
ATOM     20  C   UNL     1       1.000   3.305  -1.232  0.00  0.00    +0.046 C 
BRANCH  17  21
ATOM     21  N   UNL     1       3.681  -0.705   0.008  0.00  0.00    +0.056 N 
ATOM     22  O   UNL     1       3.763  -1.801   0.532  0.00  0.00    -0.126 OA
ATOM     23  O   UNL     1       4.659  -0.208  -0.520  0.00  0.00    -0.126 OA
ENDBRANCH  17  21
ENDBRANCH  12  14
ENDBRANCH   9  10
ENDBRANCH   8   9
ENDBRANCH   5   8
BRANCH   2  24
ATOM     24  C   UNL     1      -9.925   3.047  -0.692  0.00  0.00    +0.144 C 
BRANCH  24  25
ATOM     25  N   UNL     1     -10.387   4.063   0.258  0.00  0.00    -0.301 N 
ATOM     26  C   UNL     1     -11.659   4.041   0.703  0.00  0.00    +0.245 C 
ATOM     27  O   UNL     1     -12.423   3.178   0.318  0.00  0.00    -0.270 OA
ATOM     28  H   UNL     1      -9.777   4.752   0.565  0.00  0.00    +0.150 HD
BRANCH  26  29
ATOM     29  C   UNL     1     -12.124   5.066   1.661  0.00  0.00    +0.037 A 
ATOM     30  C   UNL     1     -11.248   6.055   2.110  0.00  0.00    +0.013 A 
ATOM     31  C   UNL     1     -11.690   7.012   3.001  0.00  0.00    +0.004 A 
ATOM     32  C   UNL     1     -12.996   6.986   3.456  0.00  0.00    -0.050 A 
ATOM     33  C   UNL     1     -13.869   6.006   3.018  0.00  0.00    +0.004 A 
ATOM     34  C   UNL     1     -13.441   5.046   2.124  0.00  0.00    +0.013 A 
ATOM     35  C   UNL     1     -13.471   8.031   4.433  0.00  0.00    +0.044 C 
ENDBRANCH  26  29
ENDBRANCH  24  25
BRANCH  24  36
ATOM     36  C   UNL     1     -10.277   3.482  -2.115  0.00  0.00    +0.011 C 
ATOM     37  C   UNL     1     -11.793   3.644  -2.240  0.00  0.00    +0.009 C 
ATOM     38  C   UNL     1      -9.594   4.816  -2.425  0.00  0.00    +0.009 C 
ENDBRANCH  24  36
ENDBRANCH   2  24
TORSDOF 10
