REMARK  Name = ZINC40932146
REMARK  3 active torsions:
REMARK  status: ('A' for Active; 'I' for Inactive)
REMARK    1  A    between atoms: C_1  and  C_2
REMARK    2  A    between atoms: C_2  and  C_4
REMARK    3  A    between atoms: C_2  and  N_7
REMARK                            x       y       z     vdW  Elec       q    Type
REMARK                         _______ _______ _______ _____ _____    ______ ____
ROOT
ATOM      1  N   UNL     1       0.688  -0.476  -1.203  0.00  0.00    -0.225 N 
ATOM      2  C   UNL     1       0.017  -1.249  -2.079  0.00  0.00    +0.283 A 
ATOM      3  O   UNL     1      -1.147  -1.552  -1.870  0.00  0.00    -0.265 OA
ATOM      4  C   UNL     1       0.675  -1.706  -3.242  0.00  0.00    +0.099 A 
ATOM      5  C   UNL     1       1.979  -1.336  -3.424  0.00  0.00    +0.057 A 
ATOM      6  C   UNL     1       2.584  -0.526  -2.447  0.00  0.00    +0.149 A 
ATOM      7  N   UNL     1       1.911  -0.139  -1.400  0.00  0.00    -0.175 NA
ATOM      8 BR   UNL     1       2.943  -1.899  -4.950  0.00  0.00    -0.047 Br
ATOM      9 BR   UNL     1      -0.218  -2.794  -4.505  0.00  0.00    -0.043 Br
ENDROOT
BRANCH   1  11
ATOM     10  C   UNL     1      -0.019   1.526   0.010  0.00  0.00    +0.033 C 
ATOM     11  C   UNL     1       0.002  -0.004   0.002  0.00  0.00    +0.111 C 
BRANCH  11  12
ATOM     12  C   UNL     1       0.742  -0.511   1.242  0.00  0.00    +0.013 C 
ATOM     13  C   UNL     1       0.038  -1.559   2.105  0.00  0.00    +0.006 C 
ATOM     14  C   UNL     1       0.178  -0.122   2.610  0.00  0.00    +0.006 C 
ENDBRANCH  11  12
ENDBRANCH   1  11
TORSDOF 2
