REMARK  Name = ZINC02528461
REMARK  6 active torsions:
REMARK  status: ('A' for Active; 'I' for Inactive)
REMARK    1  A    between atoms: C_1  and  C_2
REMARK    2  A    between atoms: C_5  and  C_14
REMARK    3  A    between atoms: C_5  and  C_15
REMARK    4  A    between atoms: C_7  and  C_11
REMARK    5  A    between atoms: C_8  and  C_9
REMARK    6  A    between atoms: C_8  and  C_10
REMARK                            x       y       z     vdW  Elec       q    Type
REMARK                         _______ _______ _______ _____ _____    ______ ____
ROOT
ATOM      1  C   UNL     1       0.221   0.811  -0.050  0.00  0.00    +0.109 C 
ATOM      2  C   UNL     1      -0.604   1.346   1.092  0.00  0.00    +0.214 C 
ATOM      3  O   UNL     1      -1.788   1.556   0.939  0.00  0.00    -0.276 OA
ATOM      4  N   UNL     1      -0.025   1.591   2.285  0.00  0.00    -0.284 N 
ATOM      5  C   UNL     1       1.407   1.518   2.606  0.00  0.00    +0.052 C 
ATOM      6  C   UNL     1       1.558   1.877   4.060  0.00  0.00    +0.009 C 
ATOM      7  C   UNL     1       0.369   2.142   4.583  0.00  0.00    +0.035 C 
ATOM      8  C   UNL     1      -0.696   1.992   3.529  0.00  0.00    +0.062 C 
ATOM      9  C   UNL     1      -1.420   3.324   3.323  0.00  0.00    +0.037 C 
ATOM     10  C   UNL     1      -1.695   0.913   3.952  0.00  0.00    +0.037 C 
ATOM     11  C   UNL     1       1.922   0.098   2.364  0.00  0.00    +0.036 C 
ATOM     12  C   UNL     1       2.186   2.508   1.738  0.00  0.00    +0.036 C 
ENDROOT
BRANCH   7  13
ATOM     13  C   UNL     1       0.127   2.530   5.981  0.00  0.00    +0.239 C 
ATOM     14  O   UNL     1       1.060   2.629   6.755  0.00  0.00    -0.271 OA
ATOM     15  N   UNL     1      -1.128   2.776   6.404  0.00  0.00    -0.326 N 
ATOM     16  H   UNL     1      -1.873   2.698   5.787  0.00  0.00    +0.145 HD
ATOM     17  H   UNL     1      -1.288   3.033   7.326  0.00  0.00    +0.145 HD
ENDBRANCH   7  13
TORSDOF 1
