REMARK  Name = ZINC15111940
REMARK  7 active torsions:
REMARK  status: ('A' for Active; 'I' for Inactive)
REMARK    1  A    between atoms: C_3  and  N_30
REMARK    2  A    between atoms: C_6  and  C_7
REMARK    3  A    between atoms: C_7  and  C_9
REMARK    4  A    between atoms: C_7  and  O_29
REMARK    5  A    between atoms: C_9  and  N_10
REMARK    6  A    between atoms: N_10  and  C_11
REMARK    7  A    between atoms: C_22  and  C_25
REMARK                            x       y       z     vdW  Elec       q    Type
REMARK                         _______ _______ _______ _____ _____    ______ ____
ROOT
ATOM      1  C   UNL     1      -3.959   3.887   6.952  0.00  0.00    +0.071 A 
ATOM      2  C   UNL     1      -3.451   4.830   6.033  0.00  0.00    +0.158 A 
ATOM      3  N   UNL     1      -2.833   4.434   4.956  0.00  0.00    -0.168 NA
ATOM      4  N   UNL     1      -2.668   3.073   4.678  0.00  0.00    -0.177 N 
ATOM      5  C   UNL     1      -3.138   2.138   5.527  0.00  0.00    +0.293 A 
ATOM      6  O   UNL     1      -2.987   0.952   5.280  0.00  0.00    -0.264 OA
ATOM      7  C   UNL     1      -3.801   2.536   6.697  0.00  0.00    +0.129 A 
ATOM      8 CL   UNL     1      -4.415   1.352   7.808  0.00  0.00    -0.076 Cl
ATOM      9  C   UNL     1      -2.007   2.680   3.513  0.00  0.00    +0.158 A 
ATOM     10  C   UNL     1      -1.523   3.644   2.637  0.00  0.00    +0.049 A 
ATOM     11  C   UNL     1      -0.865   3.241   1.488  0.00  0.00    +0.017 A 
ATOM     12  C   UNL     1      -0.722   1.881   1.250  0.00  0.00    +0.073 A 
ATOM     13  C   UNL     1      -1.229   0.978   2.164  0.00  0.00    +0.125 A 
ATOM     14  N   UNL     1      -1.847   1.392   3.252  0.00  0.00    -0.235 NA
ENDROOT
BRANCH  12  15
ATOM     15  C   UNL     1      -0.017   1.395   0.010  0.00  0.00    +0.419 C 
ATOM     16  F   UNL     1       0.002  -0.004   0.002  0.00  0.00    -0.166 F 
ATOM     17  F   UNL     1       1.296   1.879  -0.000  0.00  0.00    -0.166 F 
ATOM     18  F   UNL     1      -0.694   1.858  -1.124  0.00  0.00    -0.166 F 
ENDBRANCH  12  15
BRANCH   1  19
ATOM     19  N   UNL     1      -4.610   4.309   8.099  0.00  0.00    -0.339 N 
ATOM     20  H   UNL     1      -4.957   3.657   8.728  0.00  0.00    +0.146 HD
BRANCH  19  21
ATOM     21  C   UNL     1      -4.774   5.741   8.363  0.00  0.00    +0.137 C 
BRANCH  21  22
ATOM     22  C   UNL     1      -5.520   5.934   9.685  0.00  0.00    +0.161 C 
BRANCH  22  28
ATOM     23  C   UNL     1      -4.802   8.228  10.383  0.00  0.00    +0.008 A 
ATOM     24  C   UNL     1      -5.054   9.574  10.572  0.00  0.00    +0.033 A 
ATOM     25  C   UNL     1      -6.304  10.090  10.285  0.00  0.00    +0.126 A 
ATOM     26  C   UNL     1      -7.300   9.261   9.803  0.00  0.00    +0.033 A 
ATOM     27  C   UNL     1      -7.046   7.917   9.608  0.00  0.00    +0.008 A 
ATOM     28  C   UNL     1      -5.796   7.400   9.896  0.00  0.00    -0.018 A 
BRANCH  25  29
ATOM     29  N   UNL     1      -6.575  11.530  10.493  0.00  0.00    +0.056 N 
ATOM     30  O   UNL     1      -7.676  11.985  10.240  0.00  0.00    -0.126 OA
ATOM     31  O   UNL     1      -5.698  12.260  10.918  0.00  0.00    -0.126 OA
ENDBRANCH  25  29
ENDBRANCH  22  28
BRANCH  22  32
ATOM     32  O   UNL     1      -4.720   5.440  10.761  0.00  0.00    -0.386 OA
ATOM     33  H   UNL     1      -3.864   5.882  10.849  0.00  0.00    +0.210 HD
ENDBRANCH  22  32
ENDBRANCH  21  22
ENDBRANCH  19  21
ENDBRANCH   1  19
TORSDOF 7
