REMARK  Name = ZINC06196732
REMARK  11 active torsions:
REMARK  status: ('A' for Active; 'I' for Inactive)
REMARK    1  A    between atoms: C_1  and  C_2
REMARK    2  A    between atoms: C_2  and  O_3
REMARK    3  A    between atoms: O_3  and  C_4
REMARK    4  A    between atoms: C_11  and  C_16
REMARK    5  A    between atoms: C_16  and  N_62
REMARK    6  A    between atoms: C_17  and  C_18
REMARK    7  A    between atoms: C_17  and  N_62
REMARK    8  A    between atoms: C_23  and  C_24
REMARK    9  A    between atoms: C_23  and  N_62
REMARK   10  A    between atoms: N_28  and  C_29
REMARK   11  A    between atoms: C_29  and  C_30
REMARK                            x       y       z     vdW  Elec       q    Type
REMARK                         _______ _______ _______ _____ _____    ______ ____
ROOT
ATOM      1  N   UNL     1      -1.484   2.251   1.866  0.00  0.00    +0.390 N 
ATOM      2  H   UNL     1      -0.679   2.545   2.432  0.00  0.00    -0.080 HD
ENDROOT
BRANCH   1   3
ATOM      3  C   UNL     1      -2.613   3.169   2.123  0.00  0.00    -0.036 C 
BRANCH   3  11
ATOM      4  C   UNL     1      -2.136   5.386   7.893  0.00  0.00    +0.121 A 
ATOM      5  C   UNL     1      -2.945   4.422   8.491  0.00  0.00    +0.047 A 
ATOM      6  C   UNL     1      -3.519   3.422   7.737  0.00  0.00    +0.030 A 
ATOM      7  C   UNL     1      -3.292   3.368   6.366  0.00  0.00    +0.049 A 
ATOM      8  C   UNL     1      -2.475   4.339   5.758  0.00  0.00    +0.002 A 
ATOM      9  C   UNL     1      -1.898   5.350   6.534  0.00  0.00    +0.055 A 
ATOM     10  C   UNL     1      -2.245   4.270   4.314  0.00  0.00    +0.017 A 
ATOM     11  C   UNL     1      -2.830   3.269   3.611  0.00  0.00    +0.001 A 
ATOM     12  C   UNL     1      -3.645   2.322   4.268  0.00  0.00    +0.251 A 
ATOM     13  O   UNL     1      -4.165   1.433   3.616  0.00  0.00    -0.268 OA
ATOM     14  N   UNL     1      -3.858   2.373   5.594  0.00  0.00    -0.322 N 
ATOM     15  H   UNL     1      -4.434   1.681   6.028  0.00  0.00    +0.169 HD
BRANCH   4  16
ATOM     16  O   UNL     1      -1.579   6.367   8.652  0.00  0.00    -0.492 OA
BRANCH  16  18
ATOM     17  C   UNL     1      -1.155   7.516  10.735  0.00  0.00    +0.048 C 
ATOM     18  C   UNL     1      -1.865   6.346  10.051  0.00  0.00    +0.225 C 
ENDBRANCH  16  18
ENDBRANCH   4  16
ENDBRANCH   3  11
ENDBRANCH   1   3
BRANCH   1  19
ATOM     19  C   UNL     1      -1.858   0.872   2.245  0.00  0.00    -0.035 C 
BRANCH  19  20
ATOM     20  C   UNL     1      -0.640  -0.009   2.138  0.00  0.00    -0.027 A 
ATOM     21  C   UNL     1       0.352  -0.207   3.040  0.00  0.00    +0.009 A 
ATOM     22  C   UNL     1       1.382  -1.073   2.724  0.00  0.00    +0.008 A 
ATOM     23  C   UNL     1       1.371  -1.698   1.522  0.00  0.00    +0.045 A 
ATOM     24  S   UNL     1      -0.134  -1.069   0.794  0.00  0.00    -0.103 S 
ENDBRANCH  19  20
ENDBRANCH   1  19
BRANCH   1  25
ATOM     25  C   UNL     1      -1.109   2.299   0.437  0.00  0.00    +0.001 C 
BRANCH  25  26
ATOM     26  C   UNL     1      -0.434   3.617   0.157  0.00  0.00    +0.135 A 
ATOM     27  N   UNL     1      -1.002   4.703  -0.308  0.00  0.00    -0.115 NA
ATOM     28  N   UNL     1      -0.094   5.611  -0.415  0.00  0.00    -0.023 NA
ATOM     29  N   UNL     1       1.037   5.133  -0.031  0.00  0.00    -0.044 NA
ATOM     30  N   UNL     1       0.869   3.905   0.329  0.00  0.00    -0.229 N 
BRANCH  30  31
ATOM     31  C   UNL     1       1.903   2.996   0.831  0.00  0.00    +0.178 C 
BRANCH  31  32
ATOM     32  C   UNL     1       2.604   2.321  -0.349  0.00  0.00    +0.140 C 
ATOM     33  C   UNL     1       3.615   1.276   0.171  0.00  0.00    +0.035 C 
ATOM     34  C   UNL     1       4.809   1.459  -0.805  0.00  0.00    +0.031 C 
ATOM     35  C   UNL     1       4.739   2.984  -1.073  0.00  0.00    +0.160 C 
ATOM     36  O   UNL     1       3.337   3.295  -1.101  0.00  0.00    -0.375 OA
ENDBRANCH  31  32
ENDBRANCH  30  31
ENDBRANCH  25  26
ENDBRANCH   1  25
TORSDOF 10
