REMARK  Name = ZINC08981463
REMARK  9 active torsions:
REMARK  status: ('A' for Active; 'I' for Inactive)
REMARK    1  A    between atoms: C_1  and  C_2
REMARK    2  A    between atoms: N_7  and  S_9
REMARK    3  A    between atoms: S_9  and  C_12
REMARK    4  A    between atoms: C_14  and  C_19
REMARK    5  A    between atoms: C_19  and  O_21
REMARK    6  A    between atoms: O_21  and  C_22
REMARK    7  A    between atoms: C_22  and  C_23
REMARK    8  A    between atoms: N_28  and  C_29
REMARK    9  A    between atoms: C_29  and  C_30
REMARK                            x       y       z     vdW  Elec       q    Type
REMARK                         _______ _______ _______ _____ _____    ______ ____
ROOT
ATOM      1  C   UNL     1       0.099   0.259   0.588  0.00  0.00    +0.340 C 
ATOM      2  O   UNL     1       0.338  -0.932   0.582  0.00  0.00    -0.245 OA
ENDROOT
BRANCH   1   5
ATOM      3  C   UNL     1       3.536   1.703   0.147  0.00  0.00    +0.124 A 
ATOM      4  C   UNL     1       2.514   0.788   0.287  0.00  0.00    +0.045 A 
ATOM      5  C   UNL     1       1.199   1.233   0.437  0.00  0.00    +0.061 A 
ATOM      6  C   UNL     1       0.926   2.603   0.437  0.00  0.00    +0.016 A 
ATOM      7  C   UNL     1       1.958   3.508   0.301  0.00  0.00    +0.023 A 
ATOM      8  C   UNL     1       3.261   3.061   0.154  0.00  0.00    +0.067 A 
ATOM      9 CL   UNL     1       4.553   4.206  -0.023  0.00  0.00    -0.082 Cl
BRANCH   3  10
ATOM     10  S   UNL     1       5.197   1.144  -0.041  0.00  0.00    +0.062 S 
ATOM     11  O   UNL     1       5.149  -0.276  -0.041  0.00  0.00    -0.153 OA
ATOM     12  O   UNL     1       5.756   1.887  -1.116  0.00  0.00    -0.153 OA
BRANCH  10  18
ATOM     13  C   UNL     1       5.582   0.855   5.011  0.00  0.00    +0.009 C 
ATOM     14  C   UNL     1       5.527   1.660   3.712  0.00  0.00    +0.002 C 
ATOM     15  C   UNL     1       6.475   2.857   3.812  0.00  0.00    +0.006 C 
ATOM     16  C   UNL     1       6.396   3.682   2.525  0.00  0.00    +0.017 C 
ATOM     17  C   UNL     1       6.838   2.812   1.338  0.00  0.00    +0.109 C 
ATOM     18  N   UNL     1       6.021   1.591   1.323  0.00  0.00    -0.176 NA
ATOM     19  C   UNL     1       5.955   0.771   2.540  0.00  0.00    +0.112 C 
ENDBRANCH  10  18
ENDBRANCH   3  10
ENDBRANCH   1   5
BRANCH   1  20
ATOM     20  O   UNL     1      -1.169   0.691   0.726  0.00  0.00    -0.452 OA
BRANCH  20  21
ATOM     21  C   UNL     1      -2.200  -0.323   0.863  0.00  0.00    +0.328 C 
BRANCH  21  22
ATOM     22  C   UNL     1      -3.544   0.343   1.006  0.00  0.00    +0.258 C 
ATOM     23  O   UNL     1      -3.626   1.552   0.993  0.00  0.00    -0.272 OA
ATOM     24  N   UNL     1      -4.655  -0.406   1.148  0.00  0.00    -0.237 N 
ATOM     25  C   UNL     1      -5.857   0.189   1.275  0.00  0.00    +0.306 C 
ATOM     26  O   UNL     1      -5.939   1.402   1.262  0.00  0.00    -0.252 OA
ATOM     27  N   UNL     1      -6.969  -0.560   1.417  0.00  0.00    -0.292 N 
ATOM     28  H   UNL     1      -4.590  -1.374   1.158  0.00  0.00    +0.159 HD
ATOM     29  H   UNL     1      -6.904  -1.528   1.427  0.00  0.00    +0.151 HD
BRANCH  27  30
ATOM     30  C   UNL     1      -8.276   0.088   1.556  0.00  0.00    +0.180 C 
BRANCH  30  31
ATOM     31  C   UNL     1      -9.345  -0.965   1.698  0.00  0.00    +0.122 A 
ATOM     32  C   UNL     1      -9.778  -1.494   2.857  0.00  0.00    +0.046 A 
ATOM     33  C   UNL     1     -10.780  -2.436   2.527  0.00  0.00    +0.041 A 
ATOM     34  C   UNL     1     -10.898  -2.426   1.187  0.00  0.00    +0.195 A 
ATOM     35  O   UNL     1     -10.031  -1.529   0.691  0.00  0.00    -0.466 OA
ENDBRANCH  30  31
ENDBRANCH  27  30
ENDBRANCH  21  22
ENDBRANCH  20  21
ENDBRANCH   1  20
TORSDOF 8
