REMARK  Name = ZINC14471681
REMARK  4 active torsions:
REMARK  status: ('A' for Active; 'I' for Inactive)
REMARK    1  A    between atoms: C_1  and  C_2
REMARK    2  A    between atoms: C_5  and  O_27
REMARK    3  A    between atoms: C_15  and  C_18
REMARK    4  A    between atoms: C_22  and  N_24
REMARK                            x       y       z     vdW  Elec       q    Type
REMARK                         _______ _______ _______ _____ _____    ______ ____
ROOT
ATOM      1  C   UNL     1      -6.908   4.519   3.404  0.00  0.00    +0.044 C 
ATOM      2  C   UNL     1      -7.147   4.225   1.945  0.00  0.00    -0.045 A 
ATOM      3  C   UNL     1      -8.190   4.845   1.285  0.00  0.00    +0.007 A 
ATOM      4  C   UNL     1      -8.408   4.576  -0.054  0.00  0.00    +0.047 A 
ATOM      5  C   UNL     1      -7.591   3.688  -0.726  0.00  0.00    +0.138 A 
ATOM      6  C   UNL     1      -6.536   3.046  -0.066  0.00  0.00    +0.074 A 
ATOM      7  C   UNL     1      -6.322   3.340   1.282  0.00  0.00    -0.013 A 
ATOM      8  C   UNL     1      -5.189   2.675   1.962  0.00  0.00    +0.049 C 
ATOM      9  C   UNL     1      -5.188   2.385   3.417  0.00  0.00    -0.023 C 
ATOM     10  C   UNL     1      -4.493   1.272   3.625  0.00  0.00    -0.030 C 
ATOM     11  C   UNL     1      -4.008   0.681   2.283  0.00  0.00    +0.033 C 
ATOM     12  C   UNL     1      -5.050   1.259   1.319  0.00  0.00    +0.029 C 
ATOM     13  C   UNL     1      -4.624   1.528  -0.109  0.00  0.00    +0.105 C 
ATOM     14  N   UNL     1      -5.776   2.132  -0.798  0.00  0.00    -0.334 N 
ATOM     15  H   UNL     1      -5.503   2.520  -1.688  0.00  0.00    +0.147 HD
ENDROOT
BRANCH  13  16
ATOM     16  C   UNL     1      -3.458   2.483  -0.126  0.00  0.00    -0.025 A 
ATOM     17  C   UNL     1      -3.678   3.842  -0.254  0.00  0.00    +0.005 A 
ATOM     18  C   UNL     1      -2.609   4.717  -0.269  0.00  0.00    +0.003 A 
ATOM     19  C   UNL     1      -1.319   4.234  -0.153  0.00  0.00    +0.033 A 
ATOM     20  C   UNL     1      -1.098   2.875  -0.031  0.00  0.00    +0.127 A 
ATOM     21  C   UNL     1      -2.168   1.999  -0.014  0.00  0.00    +0.038 A 
BRANCH  20  22
ATOM     22  N   UNL     1       0.284   2.357   0.089  0.00  0.00    +0.056 N 
ATOM     23  O   UNL     1       0.478   1.160   0.202  0.00  0.00    -0.126 OA
ATOM     24  O   UNL     1       1.227   3.128   0.070  0.00  0.00    -0.126 OA
ENDBRANCH  20  22
ENDBRANCH  13  16
BRANCH   5  25
ATOM     25  O   UNL     1      -7.815   3.432  -2.043  0.00  0.00    -0.505 OA
ATOM     26  H   UNL     1      -7.339   4.021  -2.644  0.00  0.00    +0.292 HD
ENDBRANCH   5  25
TORSDOF 3
