REMARK  Name = ZINC63349586
REMARK  2 active torsions:
REMARK  status: ('A' for Active; 'I' for Inactive)
REMARK    1  A    between atoms: C_1  and  N_2
REMARK    2  A    between atoms: CA_19  and  C_22
REMARK                            x       y       z     vdW  Elec       q    Type
REMARK                         _______ _______ _______ _____ _____    ______ ____
ROOT
ATOM      1  C   UNL     1      -0.018   1.465   0.010  0.00  0.00    -0.096 C 
ATOM      2  N   UNL     1       0.002  -0.004   0.002  0.00  0.00    +0.378 N 
ATOM      3  C   UNL     1       0.681  -0.476  -1.211  0.00  0.00    -0.077 C 
ATOM      4  C   UNL     1       0.631  -2.005  -1.265  0.00  0.00    +0.006 C 
ATOM      5  C   UNL     1       1.328  -2.576  -0.029  0.00  0.00    +0.041 C 
ATOM      6  C   UNL     1       0.664  -2.018   1.231  0.00  0.00    +0.006 C 
ATOM      7  C   UNL     1       0.712  -0.489   1.192  0.00  0.00    -0.077 C 
ATOM      8  C   UNL     1       1.225  -4.101  -0.036  0.00  0.00    +0.126 C 
ATOM      9  C   UNL     1       2.057  -4.583  -1.219  0.00  0.00    -0.035 C 
ATOM     10  C   UNL     1       1.263  -5.358  -1.944  0.00  0.00    -0.001 A 
ATOM     11  C   UNL     1       1.515  -6.173  -3.143  0.00  0.00    +0.010 A 
ATOM     12  C   UNL     1       0.446  -6.846  -3.647  0.00  0.00    +0.001 A 
ATOM     13  C   UNL     1      -0.833  -6.791  -3.084  0.00  0.00    +0.002 A 
ATOM     14  C   UNL     1      -1.153  -6.072  -1.978  0.00  0.00    +0.026 A 
ATOM     15  C   UNL     1      -0.111  -5.326  -1.355  0.00  0.00    +0.043 A 
ATOM     16  N   UNL     1      -0.137  -4.576  -0.273  0.00  0.00    -0.376 N 
ATOM     17  C   UNL     1       3.469  -4.100  -1.442  0.00  0.00    +0.063 C 
ATOM     18  CA  UNL     1       3.430  -2.568  -1.291  0.00  0.00    +0.172 C 
ATOM     19  N   UNL     1       2.749  -2.201  -0.046  0.00  0.00    -0.296 NA
ATOM     20  H   UNL     1       2.866  -1.219   0.154  0.00  0.00    +0.123 HD
ATOM     21  H   UNL     1      -0.913  -4.369   0.271  0.00  0.00    +0.160 HD
ATOM     22  H   UNL     1      -0.945  -0.352   0.012  0.00  0.00    -0.082 HD
ENDROOT
BRANCH  18  23
ATOM     23  C   UNL     1       4.839  -2.033  -1.263  0.00  0.00    +0.373 C 
ATOM     24  O   UNL     1       5.520  -2.055  -2.274  0.00  0.00    -0.245 OA
ATOM     25  OXT UNL     1       5.298  -1.578  -0.229  0.00  0.00    -0.245 OA
ENDBRANCH  18  23
TORSDOF 1
