REMARK  Name = ZINC02712503
REMARK  7 active torsions:
REMARK  status: ('A' for Active; 'I' for Inactive)
REMARK    1  A    between atoms: C_5  and  N_7
REMARK    2  A    between atoms: C_8  and  C_10
REMARK    3  A    between atoms: C_10  and  S_11
REMARK    4  A    between atoms: S_11  and  C_12
REMARK    5  A    between atoms: C_17  and  N_21
REMARK    6  A    between atoms: C_18  and  N_20
REMARK    7  A    between atoms: C_22  and  C_24
REMARK                            x       y       z     vdW  Elec       q    Type
REMARK                         _______ _______ _______ _____ _____    ______ ____
ROOT
ATOM      1  C   UNL     1       1.251   2.134   0.034  0.00  0.00    +0.171 A 
ATOM      2  N   UNL     1       0.102   1.403   0.027  0.00  0.00    -0.300 N 
ATOM      3  H   UNL     1      -0.784   1.866   0.019  0.00  0.00    +0.171 HD
ATOM      4  C   UNL     1       0.156   0.054   0.032  0.00  0.00    +0.275 A 
ATOM      5  O   UNL     1      -0.869  -0.609   0.025  0.00  0.00    -0.266 OA
ATOM      6  C   UNL     1       1.411  -0.572   0.043  0.00  0.00    +0.139 A 
ATOM      7  C   UNL     1       2.553   0.223   0.050  0.00  0.00    +0.146 A 
ATOM      8  N   UNL     1       2.433   1.556   0.045  0.00  0.00    -0.207 NA
ENDROOT
BRANCH   6   9
ATOM      9  N   UNL     1       1.514  -1.976   0.048  0.00  0.00    -0.272 N 
ATOM     10  C   UNL     1       0.971  -2.688   1.055  0.00  0.00    +0.284 C 
ATOM     11  O   UNL     1       0.315  -2.126   1.913  0.00  0.00    -0.266 OA
ATOM     12  H   UNL     1       1.975  -2.431  -0.674  0.00  0.00    +0.155 HD
BRANCH  10  13
ATOM     13  C   UNL     1       1.169  -4.140   1.117  0.00  0.00    +0.189 A 
ATOM     14  C   UNL     1       0.677  -4.977   2.078  0.00  0.00    +0.054 A 
ATOM     15  C   UNL     1       1.108  -6.271   1.745  0.00  0.00    +0.042 A 
ATOM     16  C   UNL     1       1.835  -6.168   0.610  0.00  0.00    +0.196 A 
ATOM     17  O   UNL     1       1.865  -4.883   0.232  0.00  0.00    -0.458 OA
ENDBRANCH  10  13
ENDBRANCH   6   9
BRANCH   7  18
ATOM     18  N   UNL     1       3.807  -0.362   0.062  0.00  0.00    -0.341 N 
ATOM     19  H   UNL     1       3.891  -1.328   0.066  0.00  0.00    +0.144 HD
ATOM     20  H   UNL     1       4.601   0.195   0.067  0.00  0.00    +0.144 HD
ENDBRANCH   7  18
BRANCH   1  21
ATOM     21  S   UNL     1       1.153   3.893   0.028  0.00  0.00    -0.078 S 
BRANCH  21  22
ATOM     22  C   UNL     1       2.915   4.307   0.041  0.00  0.00    +0.173 C 
BRANCH  22  24
ATOM     23  N   UNL     1       4.313   6.347   0.046  0.00  0.00    -0.283 N 
ATOM     24  C   UNL     1       3.079   5.805   0.037  0.00  0.00    +0.228 C 
ATOM     25  O   UNL     1       2.101   6.522   0.028  0.00  0.00    -0.275 OA
ATOM     26  H   UNL     1       5.094   5.777  -0.028  0.00  0.00    +0.155 HD
BRANCH  23  31
ATOM     27  C   UNL     1       3.634   9.865   0.879  0.00  0.00    +0.002 A 
ATOM     28  C   UNL     1       4.772  10.477   0.387  0.00  0.00    +0.003 A 
ATOM     29  C   UNL     1       5.759   9.722  -0.219  0.00  0.00    +0.040 A 
ATOM     30  C   UNL     1       5.611   8.352  -0.335  0.00  0.00    +0.144 A 
ATOM     31  C   UNL     1       4.467   7.734   0.160  0.00  0.00    +0.069 A 
ATOM     32  C   UNL     1       3.476   8.497   0.762  0.00  0.00    +0.026 A 
ATOM     33  F   UNL     1       6.575   7.614  -0.927  0.00  0.00    -0.204 F 
ENDBRANCH  23  31
ENDBRANCH  22  24
ENDBRANCH  21  22
ENDBRANCH   1  21
TORSDOF 7
