REMARK  Name = ZINC04538696
REMARK  6 active torsions:
REMARK  status: ('A' for Active; 'I' for Inactive)
REMARK    1  A    between atoms: C_4  and  N_8
REMARK    2  A    between atoms: C_9  and  C_11
REMARK    3  A    between atoms: C_11  and  S_12
REMARK    4  A    between atoms: S_12  and  C_13
REMARK    5  A    between atoms: C_16  and  C_19
REMARK    6  A    between atoms: N_17  and  N_18
REMARK                            x       y       z     vdW  Elec       q    Type
REMARK                         _______ _______ _______ _____ _____    ______ ____
ROOT
ATOM      1  S   UNL     1      -4.283  -4.457  -2.787  0.00  0.00    -0.075 S 
ENDROOT
BRANCH   1   2
ATOM      2  C   UNL     1      -2.635  -3.924  -2.463  0.00  0.00    +0.209 A 
ATOM      3  N   UNL     1      -2.105  -3.708  -1.281  0.00  0.00    -0.120 NA
ATOM      4  N   UNL     1      -0.883  -3.328  -1.407  0.00  0.00    -0.123 NA
ATOM      5  C   UNL     1      -0.558  -3.278  -2.680  0.00  0.00    +0.217 A 
ATOM      6  N   UNL     1      -1.673  -3.654  -3.396  0.00  0.00    -0.221 N 
BRANCH   5   7
ATOM      7  C   UNL     1       0.748  -2.889  -3.235  0.00  0.00    +0.173 A 
ATOM      8  C   UNL     1       1.916  -2.791  -2.539  0.00  0.00    +0.053 A 
ATOM      9  C   UNL     1       2.903  -2.392  -3.461  0.00  0.00    +0.042 A 
ATOM     10  C   UNL     1       2.299  -2.266  -4.659  0.00  0.00    +0.196 A 
ATOM     11  O   UNL     1       0.998  -2.567  -4.519  0.00  0.00    -0.460 OA
ENDBRANCH   5   7
BRANCH   6  12
ATOM     12  N   UNL     1      -1.792  -3.742  -4.754  0.00  0.00    -0.294 N 
ATOM     13  H   UNL     1      -1.542  -4.663  -5.080  0.00  0.00    +0.163 HD
ATOM     14  H   UNL     1      -2.723  -3.493  -5.052  0.00  0.00    +0.163 HD
ENDBRANCH   6  12
ENDBRANCH   1   2
BRANCH   1  15
ATOM     15  C   UNL     1      -4.910  -4.586  -1.094  0.00  0.00    +0.173 C 
BRANCH  15  17
ATOM     16  N   UNL     1      -7.025  -5.206   0.030  0.00  0.00    -0.282 N 
ATOM     17  C   UNL     1      -6.347  -5.040  -1.123  0.00  0.00    +0.228 C 
ATOM     18  O   UNL     1      -6.893  -5.256  -2.184  0.00  0.00    -0.275 OA
ATOM     19  H   UNL     1      -6.569  -5.104   0.880  0.00  0.00    +0.155 HD
BRANCH  16  23
ATOM     20  C   UNL     1     -11.082  -6.158  -0.055  0.00  0.00    +0.003 A 
ATOM     21  C   UNL     1     -10.138  -7.168  -0.025  0.00  0.00    +0.022 A 
ATOM     22  C   UNL     1      -8.791  -6.856   0.004  0.00  0.00    +0.064 A 
ATOM     23  C   UNL     1      -8.388  -5.526   0.001  0.00  0.00    +0.070 A 
ATOM     24  C   UNL     1      -9.340  -4.515  -0.025  0.00  0.00    +0.064 A 
ATOM     25  C   UNL     1     -10.684  -4.834  -0.058  0.00  0.00    +0.022 A 
ATOM     26 CL   UNL     1      -8.842  -2.852  -0.022  0.00  0.00    -0.082 Cl
ATOM     27 CL   UNL     1      -7.606  -8.123   0.043  0.00  0.00    -0.082 Cl
ENDBRANCH  16  23
ENDBRANCH  15  17
ENDBRANCH   1  15
TORSDOF 6
