REMARK  Name = ZINC15085177
REMARK  3 active torsions:
REMARK  status: ('A' for Active; 'I' for Inactive)
REMARK    1  A    between atoms: C_1  and  C_2
REMARK    2  A    between atoms: C_11  and  C_17
REMARK    3  A    between atoms: C_20  and  O_23
REMARK                            x       y       z     vdW  Elec       q    Type
REMARK                         _______ _______ _______ _____ _____    ______ ____
ROOT
ATOM      1  C   UNL     1       6.870   5.009  -0.132  0.00  0.00    +0.008 C 
ATOM      2  C   UNL     1       5.700   4.093  -0.493  0.00  0.00    -0.009 C 
ATOM      3  C   UNL     1       5.981   2.675   0.015  0.00  0.00    +0.008 C 
ATOM      4  C   UNL     1       4.948   1.701  -0.552  0.00  0.00    +0.036 C 
ATOM      5  C   UNL     1       3.550   2.235  -0.249  0.00  0.00    -0.032 A 
ATOM      6  C   UNL     1       3.372   3.544   0.071  0.00  0.00    -0.005 A 
ATOM      7  S   UNL     1       1.622   3.688   0.331  0.00  0.00    -0.078 S 
ATOM      8  C   UNL     1       1.204   2.001   0.001  0.00  0.00    +0.076 A 
ATOM      9  C   UNL     1       2.409   1.418  -0.286  0.00  0.00    -0.008 A 
ATOM     10  C   UNL     1       2.434  -0.068  -0.625  0.00  0.00    +0.060 C 
ATOM     11  C   UNL     1       1.295  -0.759   0.123  0.00  0.00    +0.109 C 
ATOM     12  C   UNL     1       0.002  -0.004   0.002  0.00  0.00    +0.218 C 
ATOM     13  O   UNL     1      -1.040  -0.616  -0.104  0.00  0.00    -0.275 OA
ATOM     14  N   UNL     1      -0.016   1.352   0.009  0.00  0.00    -0.280 N 
ATOM     15  C   UNL     1       4.416   4.608   0.175  0.00  0.00    +0.046 C 
ATOM     16  H   UNL     1      -0.851   1.846   0.016  0.00  0.00    +0.155 HD
ENDROOT
BRANCH  10  17
ATOM     17  C   UNL     1       2.249  -0.252  -2.110  0.00  0.00    -0.039 A 
ATOM     18  C   UNL     1       1.105   0.221  -2.726  0.00  0.00    +0.008 A 
ATOM     19  C   UNL     1       0.936   0.060  -4.087  0.00  0.00    +0.045 A 
ATOM     20  C   UNL     1       1.909  -0.588  -4.834  0.00  0.00    +0.117 A 
ATOM     21  C   UNL     1       3.054  -1.066  -4.213  0.00  0.00    +0.045 A 
ATOM     22  C   UNL     1       3.221  -0.897  -2.852  0.00  0.00    +0.008 A 
BRANCH  20  23
ATOM     23  O   UNL     1       1.743  -0.753  -6.173  0.00  0.00    -0.507 OA
ATOM     24  H   UNL     1       1.292  -1.573  -6.415  0.00  0.00    +0.292 HD
ENDBRANCH  20  23
ENDBRANCH  10  17
TORSDOF 2
