REMARK  Name = ZINC40270377
REMARK  3 active torsions:
REMARK  status: ('A' for Active; 'I' for Inactive)
REMARK    1  A    between atoms: C_6  and  C_7
REMARK    2  A    between atoms: C_7  and  C_8
REMARK    3  A    between atoms: C_8  and  C_10
REMARK                            x       y       z     vdW  Elec       q    Type
REMARK                         _______ _______ _______ _____ _____    ______ ____
ROOT
ATOM      1  C   UNL     1      -3.099  -1.690  -1.421  0.00  0.00    -0.027 A 
ATOM      2  C   UNL     1      -3.244  -2.958  -0.883  0.00  0.00    +0.007 A 
ATOM      3  C   UNL     1      -4.480  -3.572  -0.871  0.00  0.00    +0.028 A 
ATOM      4  C   UNL     1      -5.582  -2.917  -1.400  0.00  0.00    +0.067 A 
ATOM      5  C   UNL     1      -5.436  -1.639  -1.942  0.00  0.00    +0.067 A 
ATOM      6  C   UNL     1      -4.192  -1.027  -1.945  0.00  0.00    +0.033 A 
ATOM      7  N   UNL     1      -6.696  -1.244  -2.387  0.00  0.00    -0.306 N 
ATOM      8  H   UNL     1      -6.909  -0.399  -2.812  0.00  0.00    +0.170 HD
ATOM      9  C   UNL     1      -7.567  -2.237  -2.127  0.00  0.00    +0.325 A 
ATOM     10  O   UNL     1      -8.755  -2.213  -2.391  0.00  0.00    -0.247 OA
ATOM     11  N   UNL     1      -6.925  -3.260  -1.532  0.00  0.00    -0.306 N 
ATOM     12  H   UNL     1      -7.330  -4.093  -1.244  0.00  0.00    +0.170 HD
ENDROOT
BRANCH   1  13
ATOM     13  C   UNL     1      -1.745  -1.028  -1.429  0.00  0.00    +0.115 C 
ATOM     14 CL   UNL     1      -0.555  -2.103  -2.252  0.00  0.00    -0.116 Cl
BRANCH  13  15
ATOM     15  C   UNL     1      -1.293  -0.775   0.011  0.00  0.00    +0.059 C 
BRANCH  15  21
ATOM     16  C   UNL     1      -0.017   1.378   0.010  0.00  0.00    +0.005 A 
ATOM     17  C   UNL     1       1.171   2.086   0.002  0.00  0.00    +0.020 A 
ATOM     18  C   UNL     1       2.378   1.410  -0.013  0.00  0.00    +0.041 A 
ATOM     19  C   UNL     1       2.396   0.027  -0.021  0.00  0.00    +0.020 A 
ATOM     20  C   UNL     1       1.208  -0.679  -0.013  0.00  0.00    +0.005 A 
ATOM     21  C   UNL     1       0.002  -0.004   0.002  0.00  0.00    -0.046 A 
ATOM     22 CL   UNL     1       3.870   2.298  -0.023  0.00  0.00    -0.084 Cl
ENDBRANCH  15  21
ENDBRANCH  13  15
ENDBRANCH   1  13
TORSDOF 3
