REMARK  Name = ZINC36312985
REMARK  13 active torsions:
REMARK  status: ('A' for Active; 'I' for Inactive)
REMARK    1  A    between atoms: C_4  and  C_7
REMARK    2  A    between atoms: C_7  and  O_8
REMARK    3  A    between atoms: O_8  and  C_9
REMARK    4  A    between atoms: C_9  and  C_10
REMARK    5  A    between atoms: C_10  and  C_12
REMARK    6  A    between atoms: C_10  and  O_38
REMARK    7  A    between atoms: C_12  and  N_13
REMARK    8  A    between atoms: N_13  and  C_14
REMARK    9  A    between atoms: N_13  and  C_20
REMARK   10  A    between atoms: C_14  and  C_15
REMARK   11  A    between atoms: C_20  and  C_21
REMARK   12  A    between atoms: C_22  and  C_32
REMARK   13  A    between atoms: C_25  and  N_26
REMARK                            x       y       z     vdW  Elec       q    Type
REMARK                         _______ _______ _______ _____ _____    ______ ____
ROOT
ATOM      1  N   UNL     1       7.073  -2.043   3.980  0.00  0.00    +0.389 N 
ATOM      2  H   UNL     1       7.096  -1.067   4.238  0.00  0.00    -0.081 HD
ENDROOT
BRANCH   1   3
ATOM      3  C   UNL     1       6.816  -2.162   2.539  0.00  0.00    -0.044 C 
BRANCH   3   4
ATOM      4  C   UNL     1       5.572  -1.349   2.174  0.00  0.00    +0.124 C 
BRANCH   4   5
ATOM      5  O   UNL     1       4.416  -1.966   2.744  0.00  0.00    -0.391 OA
ATOM      6  H   UNL     1       4.264  -2.872   2.441  0.00  0.00    +0.210 HD
ENDBRANCH   4   5
BRANCH   4   7
ATOM      7  C   UNL     1       5.424  -1.298   0.652  0.00  0.00    +0.189 C 
BRANCH   7   8
ATOM      8  O   UNL     1       4.331  -0.444   0.308  0.00  0.00    -0.373 OA
BRANCH   8   9
ATOM      9  C   UNL     1       4.106  -0.326  -1.098  0.00  0.00    +0.195 C 
BRANCH   9  13
ATOM     10  C   UNL     1       0.793   2.278  -1.799  0.00  0.00    +0.000 A 
ATOM     11  C   UNL     1       2.074   2.793  -1.725  0.00  0.00    +0.000 A 
ATOM     12  C   UNL     1       3.146   1.951  -1.498  0.00  0.00    +0.006 A 
ATOM     13  C   UNL     1       2.938   0.593  -1.345  0.00  0.00    -0.022 A 
ATOM     14  C   UNL     1       1.657   0.078  -1.418  0.00  0.00    +0.006 A 
ATOM     15  C   UNL     1       0.585   0.920  -1.646  0.00  0.00    +0.000 A 
ENDBRANCH   9  13
ENDBRANCH   8   9
ENDBRANCH   7   8
ENDBRANCH   4   7
ENDBRANCH   3   4
ENDBRANCH   1   3
BRANCH   1  16
ATOM     16  C   UNL     1       6.006  -2.722   4.726  0.00  0.00    -0.003 C 
BRANCH  16  17
ATOM     17  C   UNL     1       6.244  -2.558   6.205  0.00  0.00    +0.089 A 
ATOM     18  C   UNL     1       5.726  -1.589   6.982  0.00  0.00    +0.042 A 
ATOM     19  C   UNL     1       6.207  -1.815   8.292  0.00  0.00    +0.041 A 
ATOM     20  C   UNL     1       6.989  -2.908   8.238  0.00  0.00    +0.195 A 
ATOM     21  O   UNL     1       7.003  -3.357   6.972  0.00  0.00    -0.470 OA
ENDBRANCH  16  17
ENDBRANCH   1  16
BRANCH   1  22
ATOM     22  C   UNL     1       8.366  -2.663   4.300  0.00  0.00    -0.035 C 
BRANCH  22  23
ATOM     23  C   UNL     1       9.475  -1.880   3.646  0.00  0.00    +0.025 A 
ATOM     24  C   UNL     1      10.090  -2.183   2.414  0.00  0.00    +0.117 A 
ATOM     25  N   UNL     1      11.006  -1.271   2.184  0.00  0.00    -0.076 NA
ATOM     26  O   UNL     1      10.999  -0.360   3.268  0.00  0.00    -0.339 OA
ATOM     27  C   UNL     1      10.053  -0.754   4.137  0.00  0.00    +0.222 A 
BRANCH  27  28
ATOM     28  N   UNL     1       9.729  -0.126   5.325  0.00  0.00    -0.299 N 
ATOM     29  C   UNL     1      10.477  -0.417   6.555  0.00  0.00    +0.108 C 
ATOM     30  C   UNL     1      10.982   0.902   7.150  0.00  0.00    +0.019 C 
ATOM     31  C   UNL     1       9.799   1.854   7.344  0.00  0.00    +0.003 C 
ATOM     32  C   UNL     1       9.153   2.151   5.989  0.00  0.00    +0.019 C 
ATOM     33  C   UNL     1       8.632   0.850   5.380  0.00  0.00    +0.108 C 
ENDBRANCH  27  28
BRANCH  24  34
ATOM     34  C   UNL     1       9.760  -3.330   1.532  0.00  0.00    +0.004 A 
ATOM     35  C   UNL     1       9.546  -4.594   2.079  0.00  0.00    +0.010 A 
ATOM     36  C   UNL     1       9.239  -5.657   1.255  0.00  0.00    +0.001 A 
ATOM     37  C   UNL     1       9.143  -5.471  -0.113  0.00  0.00    +0.000 A 
ATOM     38  C   UNL     1       9.354  -4.218  -0.661  0.00  0.00    +0.001 A 
ATOM     39  C   UNL     1       9.657  -3.147   0.155  0.00  0.00    +0.010 A 
ENDBRANCH  24  34
ENDBRANCH  22  23
ENDBRANCH   1  22
TORSDOF 13
