REMARK  Name = ZINC39352738
REMARK  7 active torsions:
REMARK  status: ('A' for Active; 'I' for Inactive)
REMARK    1  A    between atoms: C_2  and  C_3
REMARK    2  A    between atoms: C_3  and  N_4
REMARK    3  A    between atoms: C_7  and  C_9
REMARK    4  A    between atoms: C_18  and  N_22
REMARK    5  A    between atoms: N_22  and  C_23
REMARK    6  A    between atoms: C_23  and  C_24
REMARK    7  A    between atoms: C_24  and  N_30
REMARK                            x       y       z     vdW  Elec       q    Type
REMARK                         _______ _______ _______ _____ _____    ______ ____
ROOT
ATOM      1  N   UNL     1      -1.528  -1.981  -1.019  0.00  0.00    -0.264 N 
ATOM      2  C   UNL     1      -1.927  -1.693  -2.269  0.00  0.00    +0.043 A 
ATOM      3  C   UNL     1      -1.640  -2.771  -3.040  0.00  0.00    +0.004 A 
ATOM      4  C   UNL     1      -1.053  -3.715  -2.180  0.00  0.00    +0.151 A 
ATOM      5  N   UNL     1      -1.015  -3.162  -0.980  0.00  0.00    -0.166 NA
ATOM      6  C   UNL     1      -1.921  -2.866  -4.514  0.00  0.00    +0.023 C 
ATOM      7  C   UNL     1      -2.184  -1.451  -5.046  0.00  0.00    -0.067 C 
ATOM      8  C   UNL     1      -3.210  -0.750  -4.151  0.00  0.00    -0.009 C 
ATOM      9  C   UNL     1      -2.577  -0.437  -2.789  0.00  0.00    +0.054 C 
ENDROOT
BRANCH   4  10
ATOM     10  C   UNL     1      -0.567  -5.061  -2.548  0.00  0.00    +0.267 C 
ATOM     11  O   UNL     1      -0.756  -5.490  -3.670  0.00  0.00    -0.268 OA
ATOM     12  N   UNL     1       0.086  -5.813  -1.640  0.00  0.00    -0.295 N 
ATOM     13  C   UNL     1       0.197  -5.343  -0.258  0.00  0.00    +0.119 C 
ATOM     14  C   UNL     1      -0.587  -6.283   0.665  0.00  0.00    +0.088 C 
ATOM     15  S   UNL     1       0.055  -7.971   0.458  0.00  0.00    -0.158 S 
ATOM     16  C   UNL     1      -0.053  -8.237  -1.337  0.00  0.00    +0.088 C 
ATOM     17  C   UNL     1       0.669  -7.092  -2.046  0.00  0.00    +0.119 C 
ENDBRANCH   4  10
BRANCH   7  18
ATOM     18  N   UNL     1      -2.706  -1.533  -6.417  0.00  0.00    +0.380 N 
ATOM     19  H   UNL     1      -2.067  -2.065  -6.989  0.00  0.00    -0.086 HD
ATOM     20  H   UNL     1      -3.607  -1.986  -6.407  0.00  0.00    -0.086 HD
BRANCH  18  21
ATOM     21  C   UNL     1      -2.844  -0.179  -6.970  0.00  0.00    -0.095 C 
BRANCH  21  22
ATOM     22  C   UNL     1      -3.491  -0.257  -8.354  0.00  0.00    -0.081 C 
ATOM     23  C   UNL     1      -3.616   1.152  -8.938  0.00  0.00    -0.014 C 
ATOM     24  C   UNL     1      -4.484   2.011  -8.017  0.00  0.00    -0.001 C 
ATOM     25  C   UNL     1      -5.875   1.385  -7.896  0.00  0.00    -0.000 C 
ATOM     26  C   UNL     1      -5.750  -0.024  -7.311  0.00  0.00    -0.001 C 
ATOM     27  C   UNL     1      -4.882  -0.883  -8.232  0.00  0.00    -0.014 C 
BRANCH  22  28
ATOM     28  N   UNL     1      -2.658  -1.082  -9.238  0.00  0.00    +0.382 N 
ATOM     29  C   UNL     1      -1.292  -0.545  -9.262  0.00  0.00    -0.078 C 
ATOM     30  C   UNL     1      -0.400  -1.448 -10.117  0.00  0.00    -0.019 C 
ATOM     31  C   UNL     1      -0.955  -1.500 -11.544  0.00  0.00    -0.004 C 
ATOM     32  C   UNL     1      -2.405  -1.990 -11.500  0.00  0.00    -0.019 C 
ATOM     33  C   UNL     1      -3.222  -1.068 -10.593  0.00  0.00    -0.078 C 
ATOM     34  H   UNL     1      -2.639  -2.030  -8.893  0.00  0.00    -0.081 HD
ENDBRANCH  22  28
ENDBRANCH  21  22
ENDBRANCH  18  21
ENDBRANCH   7  18
BRANCH   1  35
ATOM     35  C   UNL     1      -1.653  -1.081   0.131  0.00  0.00    +0.170 C 
BRANCH  35  37
ATOM     36  C   UNL     1      -0.522   1.079   0.263  0.00  0.00    +0.006 C 
ATOM     37  C   UNL     1      -0.416  -0.227   0.236  0.00  0.00    -0.012 C 
ENDBRANCH  35  37
ENDBRANCH   1  35
TORSDOF 7
