REMARK  Name = ZINC39467050
REMARK  6 active torsions:
REMARK  status: ('A' for Active; 'I' for Inactive)
REMARK    1  A    between atoms: C_1  and  S_2
REMARK    2  A    between atoms: S_2  and  C_3
REMARK    3  A    between atoms: C_15  and  C_16
REMARK    4  A    between atoms: C_16  and  C_17
REMARK    5  A    between atoms: P_25  and  C_28
REMARK    6  A    between atoms: C_33  and  O_34
REMARK                            x       y       z     vdW  Elec       q    Type
REMARK                         _______ _______ _______ _____ _____    ______ ____
ROOT
ATOM      1  C   UNL     1       0.877  -0.427   1.472  0.00  0.00    +0.007 C 
ATOM      2  C   UNL     1       1.335   0.537   2.287  0.00  0.00    -0.010 C 
ATOM      3  C   UNL     1       2.066   0.137   3.538  0.00  0.00    +0.005 C 
ATOM      4  C   UNL     1       2.025   1.238   4.590  0.00  0.00    -0.046 C 
ATOM      5  N   UNL     1       2.787   0.819   5.780  0.00  0.00    +0.398 N 
ATOM      6  C   UNL     1       2.231  -0.398   6.371  0.00  0.00    -0.020 C 
ATOM      7  C   UNL     1       2.196  -1.543   5.349  0.00  0.00    -0.003 C 
ATOM      8  C   UNL     1       1.390  -1.108   4.129  0.00  0.00    +0.016 C 
ATOM      9  C   UNL     1       1.351  -2.185   3.081  0.00  0.00    -0.018 C 
ATOM     10  C   UNL     1       1.106  -1.844   1.820  0.00  0.00    -0.034 C 
ATOM     11  C   UNL     1       3.082  -0.890   7.549  0.00  0.00    +0.157 C 
ATOM     12  O   UNL     1       3.092   0.113   8.581  0.00  0.00    -0.316 OA
ATOM     13  P   UNL     1       3.455   1.640   8.150  0.00  0.00    +0.291 P 
ATOM     14  O   UNL     1       4.921   1.804   8.030  0.00  0.00    -0.269 OA
ATOM     15  N   UNL     1       2.713   1.866   6.675  0.00  0.00    -0.288 NA
ATOM     16  H   UNL     1       2.264   2.694   6.444  0.00  0.00    +0.111 HD
ATOM     17  H   UNL     1       3.751   0.661   5.525  0.00  0.00    -0.055 HD
ENDROOT
BRANCH  13  18
ATOM     18  C   UNL     1       2.790   2.811   9.365  0.00  0.00    +0.091 A 
ATOM     19  C   UNL     1       1.515   3.320   9.209  0.00  0.00    +0.018 A 
ATOM     20  C   UNL     1       1.008   4.213  10.134  0.00  0.00    +0.001 A 
ATOM     21  C   UNL     1       1.775   4.599  11.218  0.00  0.00    +0.004 A 
ATOM     22  C   UNL     1       3.050   4.093  11.379  0.00  0.00    +0.046 A 
ATOM     23  C   UNL     1       3.559   3.192  10.455  0.00  0.00    +0.131 A 
BRANCH  23  24
ATOM     24  O   UNL     1       4.811   2.689  10.614  0.00  0.00    -0.506 OA
ATOM     25  H   UNL     1       5.504   3.215  10.192  0.00  0.00    +0.292 HD
ENDBRANCH  23  24
ENDBRANCH  13  18
BRANCH   1  27
ATOM     26  C   UNL     1      -0.022   1.810   0.012  0.00  0.00    +0.090 C 
ATOM     27  S   UNL     1       0.002  -0.004   0.002  0.00  0.00    -0.129 S 
ENDBRANCH   1  27
BRANCH  10  28
ATOM     28  C   UNL     1       1.067  -2.902   0.747  0.00  0.00    +0.071 C 
BRANCH  28  29
ATOM     29  C   UNL     1      -0.359  -3.338   0.523  0.00  0.00    -0.043 A 
ATOM     30  C   UNL     1      -0.885  -4.384   1.258  0.00  0.00    +0.004 A 
ATOM     31  C   UNL     1      -2.192  -4.784   1.053  0.00  0.00    +0.000 A 
ATOM     32  C   UNL     1      -2.973  -4.138   0.113  0.00  0.00    +0.000 A 
ATOM     33  C   UNL     1      -2.447  -3.091  -0.621  0.00  0.00    +0.000 A 
ATOM     34  C   UNL     1      -1.141  -2.688  -0.413  0.00  0.00    +0.004 A 
ENDBRANCH  28  29
ENDBRANCH  10  28
TORSDOF 5
