REMARK  Name = ZINC09422207
REMARK  13 active torsions:
REMARK  status: ('A' for Active; 'I' for Inactive)
REMARK    1  A    between atoms: C_1  and  C_2
REMARK    2  A    between atoms: C_2  and  C_3
REMARK    3  A    between atoms: C_3  and  C_4
REMARK    4  A    between atoms: C_4  and  N_62
REMARK    5  A    between atoms: C_5  and  N_62
REMARK    6  A    between atoms: C_6  and  C_7
REMARK    7  A    between atoms: C_6  and  N_62
REMARK    8  A    between atoms: C_8  and  O_31
REMARK    9  A    between atoms: C_15  and  C_16
REMARK   10  A    between atoms: N_18  and  C_27
REMARK   11  A    between atoms: C_22  and  O_25
REMARK   12  A    between atoms: O_25  and  C_26
REMARK   13  A    between atoms: C_27  and  C_28
REMARK                            x       y       z     vdW  Elec       q    Type
REMARK                         _______ _______ _______ _____ _____    ______ ____
ROOT
ATOM      1  C   UNL     1      -1.897   2.727  -0.108  0.00  0.00    +0.020 A 
ATOM      2  C   UNL     1      -1.462   2.638  -1.421  0.00  0.00    +0.122 A 
ATOM      3  C   UNL     1      -2.362   2.769  -2.475  0.00  0.00    +0.046 A 
ATOM      4  C   UNL     1      -3.685   3.002  -2.225  0.00  0.00    +0.019 A 
ATOM      5  C   UNL     1      -4.136   3.100  -0.910  0.00  0.00    +0.068 A 
ATOM      6  C   UNL     1      -3.238   2.962   0.162  0.00  0.00    +0.144 A 
ATOM      7  O   UNL     1      -3.919   3.098   1.320  0.00  0.00    -0.451 OA
ATOM      8  C   UNL     1      -5.236   3.321   1.097  0.00  0.00    +0.176 C 
ATOM      9  C   UNL     1      -6.187   3.500   2.056  0.00  0.00    +0.060 C 
ATOM     10  C   UNL     1      -5.459   3.337  -0.305  0.00  0.00    +0.231 C 
ATOM     11  O   UNL     1      -6.519   3.510  -0.885  0.00  0.00    -0.283 OA
ENDROOT
BRANCH   9  12
ATOM     12  C   UNL     1      -7.541   3.897   1.678  0.00  0.00    +0.004 A 
ATOM     13  C   UNL     1      -7.894   4.805   0.702  0.00  0.00    +0.094 A 
ATOM     14  N   UNL     1      -9.245   4.903   0.643  0.00  0.00    -0.346 N 
ATOM     15  C   UNL     1      -9.832   4.075   1.581  0.00  0.00    +0.050 A 
ATOM     16  C   UNL     1      -8.804   3.411   2.267  0.00  0.00    +0.011 A 
ATOM     17  C   UNL     1      -9.109   2.505   3.279  0.00  0.00    +0.056 A 
ATOM     18  C   UNL     1     -10.431   2.262   3.604  0.00  0.00    +0.121 A 
ATOM     19  C   UNL     1     -11.450   2.920   2.923  0.00  0.00    +0.047 A 
ATOM     20  C   UNL     1     -11.157   3.819   1.920  0.00  0.00    +0.030 A 
BRANCH  18  21
ATOM     21  O   UNL     1     -10.735   1.378   4.591  0.00  0.00    -0.495 OA
ATOM     22  C   UNL     1     -12.121   1.175   4.875  0.00  0.00    +0.277 C 
ENDBRANCH  18  21
BRANCH  14  23
ATOM     23  C   UNL     1      -9.980   5.771  -0.281  0.00  0.00    +0.118 C 
ATOM     24  C   UNL     1     -10.302   7.097   0.412  0.00  0.00    +0.027 C 
ENDBRANCH  14  23
ENDBRANCH   9  12
BRANCH   2  25
ATOM     25  O   UNL     1      -0.149   2.413  -1.681  0.00  0.00    -0.506 OA
ATOM     26  H   UNL     1       0.085   1.477  -1.746  0.00  0.00    +0.292 HD
ENDBRANCH   2  25
BRANCH   1  27
ATOM     27  C   UNL     1      -0.915   2.576   1.024  0.00  0.00    -0.036 C 
BRANCH  27  29
ATOM     28  C   UNL     1      -0.248   0.353   0.335  0.00  0.00    -0.096 C 
ATOM     29  N   UNL     1      -0.857   1.153   1.418  0.00  0.00    +0.381 N 
ATOM     30  H   UNL     1      -1.812   0.814   1.586  0.00  0.00    -0.082 HD
BRANCH  29  31
ATOM     31  C   UNL     1      -0.069   1.004   2.660  0.00  0.00    -0.079 C 
BRANCH  31  32
ATOM     32  C   UNL     1      -0.212  -0.433   3.166  0.00  0.00    -0.019 C 
BRANCH  32  34
ATOM     33  C   UNL     1       0.438  -2.035   4.969  0.00  0.00    +0.004 C 
ATOM     34  C   UNL     1       0.581  -0.598   4.464  0.00  0.00    -0.005 C 
ENDBRANCH  32  34
ENDBRANCH  31  32
ENDBRANCH  29  31
ENDBRANCH  27  29
ENDBRANCH   1  27
TORSDOF 9
