REMARK  Name = ZINC19080710
REMARK  7 active torsions:
REMARK  status: ('A' for Active; 'I' for Inactive)
REMARK    1  A    between atoms: C_1  and  C_2
REMARK    2  A    between atoms: C_2  and  C_4
REMARK    3  A    between atoms: C_2  and  N_21
REMARK    4  A    between atoms: C_13  and  C_17
REMARK    5  A    between atoms: C_17  and  C_18
REMARK    6  A    between atoms: C_17  and  C_19
REMARK    7  A    between atoms: C_17  and  C_20
REMARK                            x       y       z     vdW  Elec       q    Type
REMARK                         _______ _______ _______ _____ _____    ______ ____
ROOT
ATOM      1  C   UNL     1       3.840   3.078  -0.019  0.00  0.00    +0.241 C 
ATOM      2  O   UNL     1       2.910   3.857  -0.005  0.00  0.00    -0.273 OA
ATOM      3  N   UNL     1       3.606   1.751  -0.024  0.00  0.00    -0.263 N 
ATOM      4  C   UNL     1       2.300   1.275  -0.014  0.00  0.00    +0.165 A 
ATOM      5  N   UNL     1       1.172   1.954   0.001  0.00  0.00    -0.229 NA
ATOM      6  C   UNL     1      -0.016   1.354   0.009  0.00  0.00    +0.054 A 
ATOM      7  C   UNL     1       0.002  -0.004   0.002  0.00  0.00    +0.015 A 
ATOM      8  S   UNL     1       1.736  -0.370  -0.017  0.00  0.00    -0.057 S 
ATOM      9  C   UNL     1      -1.163  -0.935   0.010  0.00  0.00    +0.048 C 
ATOM     10  C   UNL     1      -2.416  -0.133   0.395  0.00  0.00    -0.000 C 
ATOM     11  C   UNL     1      -2.451   1.154  -0.433  0.00  0.00    +0.010 C 
ATOM     12  C   UNL     1      -1.343   2.104   0.020  0.00  0.00    +0.056 C 
ATOM     13  H   UNL     1       4.349   1.128  -0.035  0.00  0.00    +0.157 HD
ENDROOT
BRANCH  10  14
ATOM     14  C   UNL     1      -3.667  -0.965   0.103  0.00  0.00    -0.035 C 
ATOM     15  C   UNL     1      -3.620  -2.259   0.918  0.00  0.00    +0.011 C 
ATOM     16  C   UNL     1      -4.913  -0.165   0.488  0.00  0.00    +0.011 C 
ATOM     17  C   UNL     1      -3.718  -1.303  -1.388  0.00  0.00    +0.011 C 
ENDBRANCH  10  14
BRANCH   1  19
ATOM     18  C   UNL     1       5.994   3.084   1.210  0.00  0.00    +0.041 C 
ATOM     19  C   UNL     1       5.255   3.595  -0.030  0.00  0.00    +0.171 C 
BRANCH  19  20
ATOM     20  N   UNL     1       5.241   5.059  -0.021  0.00  0.00    -0.325 N 
ATOM     21  C   UNL     1       5.779   5.882  -0.973  0.00  0.00    +0.107 A 
ATOM     22  C   UNL     1       5.540   7.147  -0.576  0.00  0.00    +0.130 A 
ATOM     23  N   UNL     1       4.882   7.097   0.592  0.00  0.00    -0.244 NA
ATOM     24  C   UNL     1       4.700   5.850   0.930  0.00  0.00    +0.199 A 
ENDBRANCH  19  20
ENDBRANCH   1  19
TORSDOF 3
