REMARK  Name = ZINC17150050
REMARK  4 active torsions:
REMARK  status: ('A' for Active; 'I' for Inactive)
REMARK    1  A    between atoms: C_3  and  N_8
REMARK    2  A    between atoms: C_11  and  C_25
REMARK    3  A    between atoms: C_13  and  C_15
REMARK    4  A    between atoms: C_18  and  C_21
REMARK                            x       y       z     vdW  Elec       q    Type
REMARK                         _______ _______ _______ _____ _____    ______ ____
ROOT
ATOM      1  N   UNL     1       2.103   0.661  -0.015  0.00  0.00    -0.245 N 
ATOM      2  C   UNL     1       1.324   1.805  -0.001  0.00  0.00    +0.170 A 
ATOM      3  C   UNL     1      -0.017   1.379   0.010  0.00  0.00    +0.117 A 
ATOM      4  C   UNL     1      -1.024   2.344   0.029  0.00  0.00    +0.154 A 
ATOM      5  N   UNL     1      -0.673   3.631   0.028  0.00  0.00    -0.220 NA
ATOM      6  C   UNL     1       0.600   3.990   0.018  0.00  0.00    +0.163 A 
ATOM      7  N   UNL     1       1.586   3.100   0.004  0.00  0.00    -0.208 NA
ATOM      8  N   UNL     1       0.002  -0.004   0.002  0.00  0.00    -0.303 N 
ATOM      9  H   UNL     1      -0.776  -0.583   0.006  0.00  0.00    +0.171 HD
ATOM     10  C   UNL     1       1.287  -0.410  -0.012  0.00  0.00    +0.333 A 
ATOM     11  O   UNL     1       1.654  -1.570  -0.022  0.00  0.00    -0.246 OA
ENDROOT
BRANCH   1  14
ATOM     12  C   UNL     1       5.548  -0.631  -0.057  0.00  0.00    +0.003 A 
ATOM     13  C   UNL     1       4.167  -0.596  -0.042  0.00  0.00    +0.026 A 
ATOM     14  C   UNL     1       3.504   0.624  -0.029  0.00  0.00    +0.054 A 
ATOM     15  C   UNL     1       4.231   1.806  -0.036  0.00  0.00    +0.046 A 
ATOM     16  C   UNL     1       5.613   1.766  -0.046  0.00  0.00    +0.043 A 
ATOM     17  C   UNL     1       6.270   0.548  -0.059  0.00  0.00    +0.020 A 
ATOM     18 CL   UNL     1       6.524   3.243  -0.048  0.00  0.00    -0.083 Cl
ENDBRANCH   1  14
BRANCH   6  19
ATOM     19  C   UNL     1       0.938   5.434   0.022  0.00  0.00    +0.019 A 
ATOM     20  C   UNL     1       2.271   5.841   0.018  0.00  0.00    +0.012 A 
ATOM     21  C   UNL     1       2.579   7.186   0.017  0.00  0.00    +0.013 A 
ATOM     22  C   UNL     1       1.569   8.130   0.032  0.00  0.00    +0.055 A 
ATOM     23  C   UNL     1       0.244   7.732   0.042  0.00  0.00    +0.013 A 
ATOM     24  C   UNL     1      -0.076   6.390   0.037  0.00  0.00    +0.012 A 
BRANCH  22  25
ATOM     25  C   UNL     1       1.912   9.597   0.037  0.00  0.00    +0.417 C 
ATOM     26  F   UNL     1       2.030  10.043   1.358  0.00  0.00    -0.166 F 
ATOM     27  F   UNL     1       3.124   9.795  -0.632  0.00  0.00    -0.166 F 
ATOM     28  F   UNL     1       0.900  10.316  -0.608  0.00  0.00    -0.166 F 
ENDBRANCH  22  25
ENDBRANCH   6  19
BRANCH   4  29
ATOM     29  C   UNL     1      -2.451   1.949   0.047  0.00  0.00    +0.262 C 
ATOM     30  O   UNL     1      -2.755   0.772   0.045  0.00  0.00    -0.269 OA
ATOM     31  N   UNL     1      -3.412   2.893   0.067  0.00  0.00    -0.324 N 
ATOM     32  H   UNL     1      -3.169   3.833   0.069  0.00  0.00    +0.145 HD
ATOM     33  H   UNL     1      -4.346   2.634   0.078  0.00  0.00    +0.145 HD
ENDBRANCH   4  29
TORSDOF 4
