REMARK  Name = ZINC39532371
REMARK  5 active torsions:
REMARK  status: ('A' for Active; 'I' for Inactive)
REMARK    1  A    between atoms: C_1  and  C_2
REMARK    2  A    between atoms: C_5  and  C_26
REMARK    3  A    between atoms: C_6  and  N_8
REMARK    4  A    between atoms: C_14  and  C_18
REMARK    5  A    between atoms: C_19  and  C_20
REMARK                            x       y       z     vdW  Elec       q    Type
REMARK                         _______ _______ _______ _____ _____    ______ ____
ROOT
ATOM      1  N   UNL     1      -0.003  -2.823   2.258  0.00  0.00    -0.309 N 
ATOM      2  C   UNL     1       0.083  -4.290   2.200  0.00  0.00    +0.113 C 
ATOM      3  C   UNL     1       1.378  -4.751   2.878  0.00  0.00    +0.076 C 
ATOM      4  C   UNL     1       1.532  -4.017   4.192  0.00  0.00    +0.068 C 
ATOM      5  C   UNL     1       0.876  -2.890   4.486  0.00  0.00    +0.000 C 
ATOM      6  C   UNL     1      -0.095  -2.188   3.588  0.00  0.00    +0.141 C 
ATOM      7  C   UNL     1       1.336  -2.520   5.872  0.00  0.00    +0.180 C 
ATOM      8  N   UNL     1       2.282  -3.605   6.197  0.00  0.00    -0.175 NA
ATOM      9  N   UNL     1       2.325  -4.371   5.229  0.00  0.00    -0.158 NA
ENDROOT
BRANCH   1  15
ATOM     10  C   UNL     1       2.450  -0.248  -0.972  0.00  0.00    +0.067 C 
ATOM     11  C   UNL     1       1.155  -0.824  -0.458  0.00  0.00    +0.058 A 
ATOM     12  C   UNL     1      -0.023  -0.590  -1.141  0.00  0.00    +0.134 A 
ATOM     13  N   UNL     1      -1.162  -1.093  -0.694  0.00  0.00    -0.255 NA
ATOM     14  C   UNL     1      -1.177  -1.820   0.406  0.00  0.00    +0.078 A 
ATOM     15  C   UNL     1       0.009  -2.058   1.098  0.00  0.00    +0.143 A 
ATOM     16  N   UNL     1       1.149  -1.556   0.643  0.00  0.00    -0.234 NA
ATOM     17  C   UNL     1      -2.475  -2.393   0.915  0.00  0.00    +0.069 C 
ENDBRANCH   1  15
BRANCH   7  18
ATOM     18  C   UNL     1       2.031  -1.183   5.865  0.00  0.00    +0.006 C 
ATOM     19  C   UNL     1       1.615  -0.215   6.669  0.00  0.00    +0.006 C 
BRANCH  19  20
ATOM     20  C   UNL     1       2.297   1.096   6.662  0.00  0.00    -0.025 A 
ATOM     21  C   UNL     1       3.376   1.320   5.806  0.00  0.00    +0.008 A 
ATOM     22  C   UNL     1       4.009   2.546   5.805  0.00  0.00    +0.001 A 
ATOM     23  C   UNL     1       3.576   3.553   6.650  0.00  0.00    +0.000 A 
ATOM     24  C   UNL     1       2.507   3.337   7.501  0.00  0.00    +0.001 A 
ATOM     25  C   UNL     1       1.861   2.117   7.508  0.00  0.00    +0.008 A 
ENDBRANCH  19  20
ENDBRANCH   7  18
TORSDOF 3
