REMARK  Name = ZINC34939336
REMARK  2 active torsions:
REMARK  status: ('A' for Active; 'I' for Inactive)
REMARK    1  A    between atoms: C_6  and  N_7
REMARK    2  A    between atoms: C_11  and  C_13
REMARK                            x       y       z     vdW  Elec       q    Type
REMARK                         _______ _______ _______ _____ _____    ______ ____
ROOT
ATOM      1  N   UNL     1      -1.200  -0.722   0.010  0.00  0.00    -0.160 N 
ATOM      2  C   UNL     1      -1.285  -2.069   0.009  0.00  0.00    +0.245 C 
ATOM      3  O   UNL     1      -0.371  -2.866   0.001  0.00  0.00    -0.273 OA
ATOM      4  C   UNL     1      -2.772  -2.369   0.020  0.00  0.00    +0.159 C 
ATOM      5  C   UNL     1      -3.410  -0.996   0.027  0.00  0.00    +0.148 C 
ATOM      6  N   UNL     1      -2.464  -0.140   0.026  0.00  0.00    -0.172 NA
ENDROOT
BRANCH   1  12
ATOM      7  C   UNL     1      -0.017   1.385   0.010  0.00  0.00    +0.026 A 
ATOM      8  C   UNL     1       1.171   2.090   0.002  0.00  0.00    +0.017 A 
ATOM      9  C   UNL     1       2.378   1.415  -0.013  0.00  0.00    +0.018 A 
ATOM     10  C   UNL     1       2.400   0.031  -0.021  0.00  0.00    +0.017 A 
ATOM     11  C   UNL     1       1.216  -0.679  -0.013  0.00  0.00    +0.026 A 
ATOM     12  C   UNL     1       0.002  -0.004   0.002  0.00  0.00    +0.060 A 
ATOM     13 BR   UNL     1       4.002   2.384  -0.025  0.00  0.00    -0.050 Br
ENDBRANCH   1  12
BRANCH   5  14
ATOM     14  C   UNL     1      -4.887  -0.696   0.039  0.00  0.00    +0.432 C 
ATOM     15  F   UNL     1      -5.082   0.689   0.042  0.00  0.00    -0.165 F 
ATOM     16  F   UNL     1      -5.484  -1.248  -1.100  0.00  0.00    -0.165 F 
ATOM     17  F   UNL     1      -5.467  -1.251   1.185  0.00  0.00    -0.165 F 
ENDBRANCH   5  14
TORSDOF 2
