REMARK  Name = ZINC11841503
REMARK  6 active torsions:
REMARK  status: ('A' for Active; 'I' for Inactive)
REMARK    1  A    between atoms: C_1  and  C_2
REMARK    2  A    between atoms: C_3  and  C_16
REMARK    3  A    between atoms: C_16  and  C_18
REMARK    4  A    between atoms: C_16  and  N_19
REMARK    5  A    between atoms: C_20  and  C_22
REMARK    6  A    between atoms: C_23  and  C_27
REMARK                            x       y       z     vdW  Elec       q    Type
REMARK                         _______ _______ _______ _____ _____    ______ ____
ROOT
ATOM      1  C   UNL     1      -6.067   4.042   1.591  0.00  0.00    +0.066 C 
ATOM      2  C   UNL     1      -5.124   3.732   0.457  0.00  0.00    +0.048 A 
ATOM      3  C   UNL     1      -4.857   4.685  -0.514  0.00  0.00    +0.012 A 
ATOM      4  C   UNL     1      -3.984   4.359  -1.540  0.00  0.00    +0.121 A 
ATOM      5  N   UNL     1      -3.432   3.158  -1.559  0.00  0.00    -0.222 NA
ATOM      6  C   UNL     1      -3.712   2.267  -0.619  0.00  0.00    +0.218 A 
ATOM      7  N   UNL     1      -4.542   2.547   0.375  0.00  0.00    -0.219 NA
ATOM      8  N   UNL     1      -3.121   1.017  -0.674  0.00  0.00    -0.300 N 
ATOM      9  C   UNL     1      -2.196   0.680  -1.766  0.00  0.00    +0.108 C 
ATOM     10  C   UNL     1      -0.924   1.504  -1.615  0.00  0.00    +0.019 C 
ATOM     11  C   UNL     1      -0.109   0.961  -0.429  0.00  0.00    +0.002 C 
ATOM     12  C   UNL     1      -0.725   1.451   0.876  0.00  0.00    +0.000 C 
ATOM     13  C   UNL     1      -1.306   0.273   1.680  0.00  0.00    +0.002 C 
ATOM     14  C   UNL     1      -2.088  -0.652   0.748  0.00  0.00    +0.019 C 
ATOM     15  C   UNL     1      -3.406   0.024   0.348  0.00  0.00    +0.108 C 
ENDROOT
BRANCH   3  16
ATOM     16  C   UNL     1      -5.501   6.046  -0.454  0.00  0.00    +0.104 C 
ATOM     17  C   UNL     1      -6.858   5.999  -1.159  0.00  0.00    +0.033 C 
BRANCH  16  18
ATOM     18  N   UNL     1      -4.638   7.025  -1.121  0.00  0.00    -0.302 N 
ATOM     19  C   UNL     1      -4.683   8.321  -0.756  0.00  0.00    +0.282 C 
ATOM     20  O   UNL     1      -5.439   8.679   0.127  0.00  0.00    -0.267 OA
ATOM     21  H   UNL     1      -4.035   6.739  -1.825  0.00  0.00    +0.150 HD
BRANCH  19  22
ATOM     22  C   UNL     1      -3.819   9.301  -1.424  0.00  0.00    +0.212 A 
ATOM     23  C   UNL     1      -3.757  10.639  -1.169  0.00  0.00    +0.089 A 
ATOM     24  N   UNL     1      -2.843  11.163  -1.993  0.00  0.00    -0.221 NA
ATOM     25  C   UNL     1      -2.353  10.212  -2.742  0.00  0.00    +0.309 A 
ATOM     26  O   UNL     1      -2.933   9.053  -2.417  0.00  0.00    -0.438 OA
ATOM     27  C   UNL     1      -4.567  11.390  -0.144  0.00  0.00    +0.070 C 
ENDBRANCH  19  22
ENDBRANCH  16  18
ENDBRANCH   3  16
TORSDOF 3
