REMARK  Name = ZINC35705212
REMARK  14 active torsions:
REMARK  status: ('A' for Active; 'I' for Inactive)
REMARK    1  A    between atoms: C_1  and  C_2
REMARK    2  A    between atoms: C_2  and  C_3
REMARK    3  A    between atoms: C_4  and  C_34
REMARK    4  A    between atoms: C_5  and  C_24
REMARK    5  A    between atoms: C_8  and  C_13
REMARK    6  A    between atoms: C_14  and  N_16
REMARK    7  A    between atoms: N_16  and  C_17
REMARK    8  A    between atoms: C_17  and  C_18
REMARK    9  A    between atoms: C_27  and  O_32
REMARK   10  A    between atoms: C_28  and  O_30
REMARK   11  A    between atoms: O_30  and  C_31
REMARK   12  A    between atoms: O_32  and  C_33
REMARK   13  A    between atoms: C_34  and  O_36
REMARK   14  A    between atoms: O_36  and  C_37
REMARK                            x       y       z     vdW  Elec       q    Type
REMARK                         _______ _______ _______ _____ _____    ______ ____
ROOT
ATOM      1  C   UNL     1       1.484  -1.539  -1.606  0.00  0.00    +0.056 C 
ATOM      2  C   UNL     1       2.862  -1.568  -1.706  0.00  0.00    +0.083 C 
ATOM      3  C   UNL     1       3.471  -1.506  -3.089  0.00  0.00    +0.150 C 
ATOM      4  N   UNL     1       2.531  -1.420  -4.238  0.00  0.00    -0.267 N 
ATOM      5  C   UNL     1       2.861  -1.354  -5.578  0.00  0.00    +0.048 C 
ATOM      6  C   UNL     1       1.848  -1.280  -6.469  0.00  0.00    +0.072 C 
ATOM      7  S   UNL     1       0.418  -1.303  -5.406  0.00  0.00    -0.060 S 
ATOM      8  C   UNL     1       1.201  -1.404  -3.925  0.00  0.00    +0.166 C 
ATOM      9  N   UNL     1       0.735  -1.466  -2.695  0.00  0.00    -0.229 NA
ENDROOT
BRANCH   3  10
ATOM     10  C   UNL     1       4.381  -0.306  -3.142  0.00  0.00    -0.018 A 
ATOM     11  C   UNL     1       3.842   0.967  -3.161  0.00  0.00    +0.009 A 
ATOM     12  C   UNL     1       4.673   2.071  -3.210  0.00  0.00    +0.050 A 
ATOM     13  C   UNL     1       6.048   1.903  -3.240  0.00  0.00    +0.162 A 
ATOM     14  C   UNL     1       6.590   0.622  -3.221  0.00  0.00    +0.162 A 
ATOM     15  C   UNL     1       5.752  -0.481  -3.167  0.00  0.00    +0.055 A 
BRANCH  14  16
ATOM     16  O   UNL     1       7.939   0.452  -3.250  0.00  0.00    -0.491 OA
ATOM     17  C   UNL     1       8.422  -0.891  -3.333  0.00  0.00    +0.277 C 
ENDBRANCH  14  16
BRANCH  13  18
ATOM     18  O   UNL     1       6.866   2.988  -3.289  0.00  0.00    -0.491 OA
ATOM     19  C   UNL     1       6.240   4.273  -3.307  0.00  0.00    +0.277 C 
ENDBRANCH  13  18
ENDBRANCH   3  10
BRANCH   5  20
ATOM     20  C   UNL     1       4.263  -1.364  -6.018  0.00  0.00    +0.091 C 
ATOM     21  C   UNL     1       4.557  -1.483  -7.327  0.00  0.00    +0.239 C 
ATOM     22  O   UNL     1       3.565  -1.460  -8.249  0.00  0.00    -0.271 OA
BRANCH  21  23
ATOM     23  N   UNL     1       5.874  -1.630  -7.730  0.00  0.00    -0.309 N 
ATOM     24  H   UNL     1       6.577  -1.722  -7.068  0.00  0.00    +0.149 HD
BRANCH  23  25
ATOM     25  C   UNL     1       6.205  -1.645  -9.157  0.00  0.00    +0.136 C 
BRANCH  25  26
ATOM     26  C   UNL     1       7.697  -1.937  -9.331  0.00  0.00    +0.135 C 
ATOM     27  C   UNL     1       8.072  -1.945 -10.834  0.00  0.00    +0.035 C 
ATOM     28  C   UNL     1       9.585  -1.602 -10.762  0.00  0.00    +0.031 C 
ATOM     29  C   UNL     1       9.648  -0.645  -9.552  0.00  0.00    +0.160 C 
ATOM     30  O   UNL     1       8.482  -0.882  -8.752  0.00  0.00    -0.375 OA
ENDBRANCH  25  26
ENDBRANCH  23  25
ENDBRANCH  21  23
ENDBRANCH   5  20
BRANCH   1  32
ATOM     31  C   UNL     1       0.751  -0.189   0.340  0.00  0.00    +0.010 C 
ATOM     32  C   UNL     1       0.830  -1.599  -0.250  0.00  0.00    +0.053 C 
ENDBRANCH   1  32
BRANCH   2  33
ATOM     33  C   UNL     1       3.668  -1.651  -0.564  0.00  0.00    +0.339 C 
ATOM     34  O   UNL     1       3.164  -1.585   0.544  0.00  0.00    -0.245 OA
BRANCH  33  35
ATOM     35  O   UNL     1       5.005  -1.803  -0.690  0.00  0.00    -0.465 OA
ATOM     36  C   UNL     1       5.766  -1.880   0.517  0.00  0.00    +0.280 C 
ENDBRANCH  33  35
ENDBRANCH   2  33
TORSDOF 10
