REMARK  Name = ZINC09684280
REMARK  6 active torsions:
REMARK  status: ('A' for Active; 'I' for Inactive)
REMARK    1  A    between atoms: C_1  and  C_2
REMARK    2  A    between atoms: C_3  and  C_23
REMARK    3  A    between atoms: C_4  and  S_9
REMARK    4  A    between atoms: C_5  and  C_8
REMARK    5  A    between atoms: S_9  and  N_12
REMARK    6  A    between atoms: C_20  and  C_22
REMARK                            x       y       z     vdW  Elec       q    Type
REMARK                         _______ _______ _______ _____ _____    ______ ____
ROOT
ATOM      1  C   UNL     1       1.429   3.057   0.687  0.00  0.00    +0.064 C 
ATOM      2  C   UNL     1       1.051   1.646   0.318  0.00  0.00    +0.027 A 
ATOM      3  C   UNL     1       1.924   0.623   0.068  0.00  0.00    +0.084 A 
ATOM      4  C   UNL     1       1.100  -0.549  -0.246  0.00  0.00    +0.141 A 
ATOM      5  C   UNL     1      -0.180  -0.144  -0.162  0.00  0.00    +0.041 A 
ATOM      6  N   UNL     1      -0.203   1.177   0.178  0.00  0.00    -0.360 N 
ATOM      7  H   UNL     1      -1.009   1.704   0.298  0.00  0.00    +0.165 HD
ATOM      8  C   UNL     1      -1.390  -1.009  -0.403  0.00  0.00    +0.065 C 
ENDROOT
BRANCH   3   9
ATOM      9  C   UNL     1       3.395   0.686   0.107  0.00  0.00    +0.250 C 
ATOM     10  O   UNL     1       4.019   0.974  -0.896  0.00  0.00    -0.270 OA
ATOM     11  N   UNL     1       4.051   0.423   1.256  0.00  0.00    -0.297 N 
ATOM     12  C   UNL     1       3.425   0.070   2.538  0.00  0.00    +0.108 C 
ATOM     13  C   UNL     1       4.560  -0.115   3.567  0.00  0.00    +0.020 C 
ATOM     14  C   UNL     1       5.723   0.705   2.949  0.00  0.00    +0.020 C 
ATOM     15  C   UNL     1       5.514   0.450   1.435  0.00  0.00    +0.108 C 
ENDBRANCH   3   9
BRANCH   4  16
ATOM     16  S   UNL     1       1.673  -2.165  -0.653  0.00  0.00    +0.077 S 
ATOM     17  O   UNL     1       2.930  -2.324  -0.011  0.00  0.00    -0.150 OA
ATOM     18  O   UNL     1       0.584  -3.050  -0.426  0.00  0.00    -0.150 OA
BRANCH  16  19
ATOM     19  N   UNL     1       1.967  -2.184  -2.283  0.00  0.00    -0.200 N 
ATOM     20  C   UNL     1       1.008  -2.430  -3.266  0.00  0.00    +0.055 A 
ATOM     21  C   UNL     1      -0.355  -2.704  -3.124  0.00  0.00    +0.025 A 
ATOM     22  C   UNL     1      -1.139  -2.921  -4.237  0.00  0.00    +0.002 A 
ATOM     23  C   UNL     1      -0.583  -2.868  -5.502  0.00  0.00    +0.000 A 
ATOM     24  C   UNL     1       0.764  -2.597  -5.650  0.00  0.00    +0.005 A 
ATOM     25  C   UNL     1       1.555  -2.380  -4.538  0.00  0.00    -0.023 A 
ATOM     26  C   UNL     1       3.030  -2.069  -4.415  0.00  0.00    +0.061 C 
ATOM     27  C   UNL     1       3.272  -1.939  -2.903  0.00  0.00    +0.099 C 
ATOM     28  C   UNL     1       4.286  -2.986  -2.438  0.00  0.00    +0.030 C 
ENDBRANCH  16  19
ENDBRANCH   4  16
TORSDOF 3
