REMARK  Name = ZINC39489966
REMARK  9 active torsions:
REMARK  status: ('A' for Active; 'I' for Inactive)
REMARK    1  A    between atoms: C_4  and  C_7
REMARK    2  A    between atoms: C_7  and  C_8
REMARK    3  A    between atoms: C_7  and  C_28
REMARK    4  A    between atoms: C_8  and  N_9
REMARK    5  A    between atoms: C_15  and  C_17
REMARK    6  A    between atoms: C_17  and  C_18
REMARK    7  A    between atoms: N_20  and  C_21
REMARK    8  A    between atoms: C_21  and  C_22
REMARK    9  A    between atoms: C_22  and  C_23
REMARK                            x       y       z     vdW  Elec       q    Type
REMARK                         _______ _______ _______ _____ _____    ______ ____
ROOT
ATOM      1  N   UNL     1       3.378  -0.698   2.013  0.00  0.00    +0.389 N 
ATOM      2  C   UNL     1       4.684  -0.089   1.712  0.00  0.00    -0.059 C 
ATOM      3  C   UNL     1       4.892   1.113   2.636  0.00  0.00    +0.085 C 
ATOM      4  N   UNL     1       4.650   0.722   4.023  0.00  0.00    -0.318 N 
ATOM      5  C   UNL     1       3.983  -0.391   4.352  0.00  0.00    +0.200 C 
ATOM      6  O   UNL     1       3.803  -0.634   5.527  0.00  0.00    -0.278 OA
ATOM      7  C   UNL     1       3.449  -1.350   3.327  0.00  0.00    +0.028 C 
ATOM      8  H   UNL     1       4.986   1.291   4.733  0.00  0.00    +0.149 HD
ATOM      9  H   UNL     1       2.666   0.017   2.029  0.00  0.00    -0.081 HD
ENDROOT
BRANCH   1  10
ATOM     10  C   UNL     1       3.052  -1.696   0.986  0.00  0.00    -0.065 C 
BRANCH  10  11
ATOM     11  C   UNL     1       2.827  -0.992  -0.354  0.00  0.00    +0.032 C 
BRANCH  11  15
ATOM     12  C   UNL     1      -0.619   1.518  -0.085  0.00  0.00    +0.000 A 
ATOM     13  C   UNL     1       0.585   2.041  -0.516  0.00  0.00    +0.000 A 
ATOM     14  C   UNL     1       1.700   1.229  -0.603  0.00  0.00    +0.004 A 
ATOM     15  C   UNL     1       1.611  -0.107  -0.259  0.00  0.00    -0.042 A 
ATOM     16  C   UNL     1       0.407  -0.630   0.173  0.00  0.00    +0.004 A 
ATOM     17  C   UNL     1      -0.709   0.182   0.259  0.00  0.00    +0.000 A 
ENDBRANCH  11  15
BRANCH  11  18
ATOM     18  C   UNL     1       2.613  -2.023  -1.433  0.00  0.00    -0.042 A 
ATOM     19  C   UNL     1       1.668  -3.018  -1.261  0.00  0.00    +0.004 A 
ATOM     20  C   UNL     1       1.473  -3.963  -2.251  0.00  0.00    +0.000 A 
ATOM     21  C   UNL     1       2.222  -3.914  -3.411  0.00  0.00    +0.000 A 
ATOM     22  C   UNL     1       3.166  -2.919  -3.583  0.00  0.00    +0.000 A 
ATOM     23  C   UNL     1       3.359  -1.971  -2.596  0.00  0.00    +0.004 A 
ENDBRANCH  11  18
ENDBRANCH  10  11
ENDBRANCH   1  10
BRANCH   7  24
ATOM     24  C   UNL     1       2.050  -1.808   3.742  0.00  0.00    +0.089 C 
BRANCH  24  25
ATOM     25  C   UNL     1       1.156  -0.606   3.909  0.00  0.00    +0.212 C 
ATOM     26  O   UNL     1       1.620   0.511   3.822  0.00  0.00    -0.276 OA
ATOM     27  N   UNL     1      -0.158  -0.772   4.156  0.00  0.00    -0.315 N 
ATOM     28  H   UNL     1      -0.529  -1.666   4.226  0.00  0.00    +0.149 HD
BRANCH  27  29
ATOM     29  C   UNL     1      -1.026   0.396   4.319  0.00  0.00    +0.108 C 
BRANCH  29  30
ATOM     30  C   UNL     1      -2.460  -0.067   4.588  0.00  0.00    +0.053 C 
BRANCH  30  31
ATOM     31  C   UNL     1      -3.353   1.135   4.755  0.00  0.00    -0.025 C 
ATOM     32  C   UNL     1      -4.110   1.732   3.832  0.00  0.00    +0.135 C 
ATOM     33  N   UNL     1      -4.772   2.785   4.362  0.00  0.00    -0.162 NA
ATOM     34  N   UNL     1      -4.552   2.978   5.560  0.00  0.00    -0.183 NA
ATOM     35  C   UNL     1      -3.606   1.944   6.015  0.00  0.00    +0.198 C 
ENDBRANCH  30  31
ENDBRANCH  29  30
ENDBRANCH  27  29
ENDBRANCH  24  25
ENDBRANCH   7  24
TORSDOF 9
