REMARK  Name = ZINC58945331
REMARK  11 active torsions:
REMARK  status: ('A' for Active; 'I' for Inactive)
REMARK    1  A    between atoms: C_1  and  C_2
REMARK    2  A    between atoms: C_2  and  O_3
REMARK    3  A    between atoms: O_3  and  C_4
REMARK    4  A    between atoms: C_4  and  C_6
REMARK    5  A    between atoms: C_9  and  N_12
REMARK    6  A    between atoms: C_13  and  C_15
REMARK    7  A    between atoms: N_20  and  C_31
REMARK    8  A    between atoms: N_22  and  C_23
REMARK    9  A    between atoms: C_31  and  C_32
REMARK   10  A    between atoms: C_32  and  O_34
REMARK   11  A    between atoms: O_34  and  C_35
REMARK                            x       y       z     vdW  Elec       q    Type
REMARK                         _______ _______ _______ _____ _____    ______ ____
ROOT
ATOM      1  C   UNL     1       4.348  -5.775  -7.158  0.00  0.00    +0.149 C 
ATOM      2  C   UNL     1       5.034  -7.078  -6.744  0.00  0.00    +0.120 C 
ATOM      3  C   UNL     1       5.659  -7.784  -7.897  0.00  0.00    +0.223 C 
ATOM      4  O   UNL     1       6.615  -8.481  -7.631  0.00  0.00    -0.275 OA
ATOM      5  N   UNL     1       5.308  -7.753  -9.174  0.00  0.00    -0.240 N 
ATOM      6  C   UNL     1       4.340  -6.914  -9.695  0.00  0.00    +0.164 C 
ATOM      7  N   UNL     1       4.249  -6.695 -10.985  0.00  0.00    -0.226 NA
ATOM      8  S   UNL     1       3.228  -6.146  -8.548  0.00  0.00    -0.077 S 
ENDROOT
BRANCH   7   9
ATOM      9  C   UNL     1       3.279  -5.858 -11.471  0.00  0.00    +0.067 A 
ATOM     10  C   UNL     1       1.970  -5.952 -10.995  0.00  0.00    +0.029 A 
ATOM     11  C   UNL     1       0.998  -5.106 -11.488  0.00  0.00    +0.022 A 
ATOM     12  C   UNL     1       1.318  -4.166 -12.452  0.00  0.00    +0.041 A 
ATOM     13  C   UNL     1       2.615  -4.068 -12.929  0.00  0.00    +0.022 A 
ATOM     14  C   UNL     1       3.597  -4.904 -12.440  0.00  0.00    +0.029 A 
ATOM     15 CL   UNL     1       0.089  -3.105 -13.068  0.00  0.00    -0.084 Cl
ENDBRANCH   7   9
BRANCH   1  17
ATOM     16  N   UNL     1       3.368  -3.894  -5.884  0.00  0.00    -0.285 N 
ATOM     17  C   UNL     1       3.557  -5.224  -5.999  0.00  0.00    +0.231 C 
ATOM     18  O   UNL     1       3.091  -5.977  -5.171  0.00  0.00    -0.274 OA
ATOM     19  H   UNL     1       3.674  -3.298  -6.586  0.00  0.00    +0.155 HD
BRANCH  16  23
ATOM     20  C   UNL     1       1.470  -2.345  -2.516  0.00  0.00    +0.059 A 
ATOM     21  C   UNL     1       2.279  -3.480  -2.405  0.00  0.00    +0.017 A 
ATOM     22  C   UNL     1       2.904  -3.989  -3.520  0.00  0.00    +0.024 A 
ATOM     23  C   UNL     1       2.732  -3.376  -4.757  0.00  0.00    +0.033 A 
ATOM     24  C   UNL     1       1.929  -2.246  -4.872  0.00  0.00    +0.024 A 
ATOM     25  C   UNL     1       1.295  -1.735  -3.762  0.00  0.00    +0.017 A 
BRANCH  20  26
ATOM     26  C   UNL     1       0.797  -1.796  -1.323  0.00  0.00    +0.339 C 
ATOM     27  O   UNL     1       0.091  -0.813  -1.423  0.00  0.00    -0.245 OA
BRANCH  26  28
ATOM     28  O   UNL     1       0.967  -2.386  -0.124  0.00  0.00    -0.461 OA
BRANCH  28  30
ATOM     29  C   UNL     1       0.597  -2.601   2.255  0.00  0.00    +0.048 C 
ATOM     30  C   UNL     1       0.286  -1.801   0.988  0.00  0.00    +0.229 C 
ENDBRANCH  28  30
ENDBRANCH  26  28
ENDBRANCH  20  26
ENDBRANCH  16  23
ENDBRANCH   1  17
BRANCH   5  31
ATOM     31  C   UNL     1       5.991  -8.666 -10.094  0.00  0.00    +0.236 C 
BRANCH  31  32
ATOM     32  C   UNL     1       5.235  -9.968 -10.162  0.00  0.00    +0.325 C 
ATOM     33  O   UNL     1       4.229 -10.118  -9.509  0.00  0.00    -0.249 OA
BRANCH  32  34
ATOM     34  O   UNL     1       5.679 -10.962 -10.948  0.00  0.00    -0.467 OA
ATOM     35  C   UNL     1       4.913 -12.168 -10.964  0.00  0.00    +0.280 C 
ENDBRANCH  32  34
ENDBRANCH  31  32
ENDBRANCH   5  31
TORSDOF 9
