REMARK  Name = ZINC66347420
REMARK  8 active torsions:
REMARK  status: ('A' for Active; 'I' for Inactive)
REMARK    1  A    between atoms: C_1  and  C_2
REMARK    2  A    between atoms: C_2  and  N_3
REMARK    3  A    between atoms: C_4  and  C_6
REMARK    4  A    between atoms: C_9  and  N_13
REMARK    5  A    between atoms: C_10  and  C_12
REMARK    6  A    between atoms: N_16  and  C_17
REMARK    7  A    between atoms: C_17  and  C_18
REMARK    8  A    between atoms: N_22  and  C_24
REMARK                            x       y       z     vdW  Elec       q    Type
REMARK                         _______ _______ _______ _____ _____    ______ ____
ROOT
ATOM      1  N   UNL     1       3.469  -3.618  -6.066  0.00  0.00    -0.269 N 
ATOM      2  C   UNL     1       3.876  -2.735  -6.999  0.00  0.00    +0.304 C 
ATOM      3  O   UNL     1       3.756  -1.542  -6.800  0.00  0.00    -0.253 OA
ATOM      4  N   UNL     1       4.416  -3.175  -8.153  0.00  0.00    -0.299 N 
ATOM      5  H   UNL     1       3.624  -4.567  -6.195  0.00  0.00    +0.156 HD
ATOM      6  H   UNL     1       4.512  -4.127  -8.311  0.00  0.00    +0.150 HD
ENDROOT
BRANCH   1  10
ATOM      7  C   UNL     1       1.543  -2.272  -2.626  0.00  0.00    +0.037 A 
ATOM      8  C   UNL     1       2.558  -1.506  -3.205  0.00  0.00    +0.015 A 
ATOM      9  C   UNL     1       3.193  -1.954  -4.342  0.00  0.00    +0.024 A 
ATOM     10  C   UNL     1       2.824  -3.167  -4.914  0.00  0.00    +0.038 A 
ATOM     11  C   UNL     1       1.814  -3.932  -4.340  0.00  0.00    -0.028 A 
ATOM     12  C   UNL     1       1.179  -3.493  -3.200  0.00  0.00    +0.018 A 
ATOM     13  C   UNL     1       1.417  -5.246  -4.964  0.00  0.00    +0.045 C 
BRANCH   7  15
ATOM     14  N   UNL     1       1.214  -0.618  -0.854  0.00  0.00    -0.312 N 
ATOM     15  C   UNL     1       0.861  -1.796  -1.407  0.00  0.00    +0.244 C 
ATOM     16  O   UNL     1      -0.018  -2.466  -0.901  0.00  0.00    -0.270 OA
ATOM     17  H   UNL     1       1.915  -0.083  -1.258  0.00  0.00    +0.149 HD
BRANCH  14  19
ATOM     18  C   UNL     1       1.121   1.207   0.772  0.00  0.00    +0.024 C 
ATOM     19  C   UNL     1       0.537  -0.145   0.356  0.00  0.00    +0.101 C 
ENDBRANCH  14  19
ENDBRANCH   7  15
ENDBRANCH   1  10
BRANCH   4  20
ATOM     20  C   UNL     1       4.859  -2.216  -9.167  0.00  0.00    +0.110 C 
BRANCH  20  21
ATOM     21  C   UNL     1       5.429  -2.971 -10.369  0.00  0.00    +0.025 C 
ATOM     22  C   UNL     1       4.305  -3.727 -11.126  0.00  0.00    +0.025 C 
ATOM     23  C   UNL     1       4.894  -3.810 -12.556  0.00  0.00    +0.105 C 
ATOM     24  N   UNL     1       5.597  -2.528 -12.750  0.00  0.00    -0.330 N 
ATOM     25  C   UNL     1       5.963  -1.986 -11.430  0.00  0.00    +0.110 C 
BRANCH  24  26
ATOM     26  C   UNL     1       5.875  -1.929 -13.982  0.00  0.00    +0.030 A 
ATOM     27  C   UNL     1       6.553  -0.718 -14.029  0.00  0.00    +0.026 A 
ATOM     28  C   UNL     1       6.826  -0.128 -15.248  0.00  0.00    +0.040 A 
ATOM     29  C   UNL     1       6.425  -0.743 -16.422  0.00  0.00    +0.124 A 
ATOM     30  C   UNL     1       5.749  -1.951 -16.377  0.00  0.00    +0.040 A 
ATOM     31  C   UNL     1       5.478  -2.547 -15.161  0.00  0.00    +0.026 A 
ATOM     32  F   UNL     1       6.693  -0.164 -17.613  0.00  0.00    -0.205 F 
ENDBRANCH  24  26
ENDBRANCH  20  21
ENDBRANCH   4  20
TORSDOF 6
