REMARK  Name = ZINC63588617
REMARK  9 active torsions:
REMARK  status: ('A' for Active; 'I' for Inactive)
REMARK    1  A    between atoms: C_1  and  C_2
REMARK    2  A    between atoms: C_2  and  O_3
REMARK    3  A    between atoms: O_3  and  C_4
REMARK    4  A    between atoms: C_7  and  N_10
REMARK    5  A    between atoms: N_12  and  C_13
REMARK    6  A    between atoms: C_13  and  C_14
REMARK    7  A    between atoms: C_14  and  C_15
REMARK    8  A    between atoms: N_24  and  C_25
REMARK    9  A    between atoms: C_25  and  C_27
REMARK                            x       y       z     vdW  Elec       q    Type
REMARK                         _______ _______ _______ _____ _____    ______ ____
ROOT
ATOM      1  N   UNL     1       0.856  -5.786  -2.265  0.00  0.00    -0.328 N 
ATOM      2  C   UNL     1       1.805  -6.440  -2.995  0.00  0.00    +0.194 C 
ATOM      3  N   UNL     1       1.995  -7.780  -2.823  0.00  0.00    -0.357 N 
ATOM      4  N   UNL     1       2.542  -5.774  -3.871  0.00  0.00    -0.143 NA
ATOM      5  H   UNL     1       1.395  -8.286  -2.253  0.00  0.00    +0.162 HD
ATOM      6  H   UNL     1       0.451  -4.975  -2.610  0.00  0.00    +0.169 HD
ENDROOT
BRANCH   1  10
ATOM      7  C   UNL     1      -0.306  -7.275   1.452  0.00  0.00    +0.121 A 
ATOM      8  C   UNL     1      -1.258  -6.761   0.584  0.00  0.00    +0.047 A 
ATOM      9  C   UNL     1      -0.873  -6.268  -0.648  0.00  0.00    +0.029 A 
ATOM     10  C   UNL     1       0.465  -6.286  -1.016  0.00  0.00    +0.042 A 
ATOM     11  C   UNL     1       1.417  -6.800  -0.145  0.00  0.00    +0.029 A 
ATOM     12  C   UNL     1       1.032  -7.288   1.088  0.00  0.00    +0.047 A 
BRANCH   7  13
ATOM     13  O   UNL     1      -0.685  -7.761   2.665  0.00  0.00    -0.492 OA
BRANCH  13  15
ATOM     14  C   UNL     1      -2.311  -8.302   4.369  0.00  0.00    +0.048 C 
ATOM     15  C   UNL     1      -2.080  -7.716   2.974  0.00  0.00    +0.225 C 
ENDBRANCH  13  15
ENDBRANCH   7  13
ENDBRANCH   1  10
BRANCH   4  16
ATOM     16  C   UNL     1       2.483  -4.436  -3.916  0.00  0.00    +0.270 C 
ATOM     17  O   UNL     1       1.900  -3.822  -3.040  0.00  0.00    -0.268 OA
BRANCH  16  18
ATOM     18  C   UNL     1       3.126  -3.705  -5.030  0.00  0.00    +0.043 A 
ATOM     19  C   UNL     1       3.691  -4.409  -6.095  0.00  0.00    +0.017 A 
ATOM     20  C   UNL     1       4.290  -3.726  -7.132  0.00  0.00    +0.050 A 
ATOM     21  C   UNL     1       4.333  -2.339  -7.121  0.00  0.00    +0.166 A 
ATOM     22  C   UNL     1       3.771  -1.630  -6.059  0.00  0.00    +0.167 A 
ATOM     23  C   UNL     1       3.164  -2.310  -5.021  0.00  0.00    +0.062 A 
ATOM     24  O   UNL     1       3.944  -0.295  -6.286  0.00  0.00    -0.453 OA
ATOM     25  C   UNL     1       4.974  -0.207  -7.288  0.00  0.00    +0.466 C 
ATOM     26  O   UNL     1       4.857  -1.447  -8.010  0.00  0.00    -0.453 OA
ENDBRANCH  16  18
ENDBRANCH   4  16
BRANCH   3  27
ATOM     27  C   UNL     1       3.106  -8.456  -3.499  0.00  0.00    +0.120 C 
BRANCH  27  28
ATOM     28  C   UNL     1       3.092  -9.943  -3.139  0.00  0.00    +0.054 C 
BRANCH  28  29
ATOM     29  C   UNL     1       4.235 -10.638  -3.835  0.00  0.00    -0.040 C 
ATOM     30  C   UNL     1       5.459 -10.900  -3.323  0.00  0.00    -0.001 A 
ATOM     31  C   UNL     1       6.071 -10.627  -2.017  0.00  0.00    +0.010 A 
ATOM     32  C   UNL     1       7.346 -11.020  -1.795  0.00  0.00    +0.001 A 
ATOM     33  C   UNL     1       8.096 -11.678  -2.779  0.00  0.00    +0.002 A 
ATOM     34  C   UNL     1       7.604 -11.964  -4.002  0.00  0.00    +0.026 A 
ATOM     35  C   UNL     1       6.273 -11.598  -4.345  0.00  0.00    +0.043 A 
ATOM     36  N   UNL     1       5.578 -11.760  -5.445  0.00  0.00    -0.380 N 
ATOM     37  C   UNL     1       4.242 -11.188  -5.243  0.00  0.00    +0.144 C 
ATOM     38  H   UNL     1       5.894 -12.189  -6.255  0.00  0.00    +0.160 HD
ENDBRANCH  28  29
ENDBRANCH  27  28
ENDBRANCH   3  27
TORSDOF 8
