REMARK  Name = ZINC18128540
REMARK  12 active torsions:
REMARK  status: ('A' for Active; 'I' for Inactive)
REMARK    1  A    between atoms: C_1  and  C_2
REMARK    2  A    between atoms: C_2  and  C_3
REMARK    3  A    between atoms: C_8  and  N_9
REMARK    4  A    between atoms: C_10  and  C_12
REMARK    5  A    between atoms: C_12  and  N_13
REMARK    6  A    between atoms: C_19  and  C_21
REMARK    7  A    between atoms: C_21  and  C_23
REMARK    8  A    between atoms: C_21  and  N_26
REMARK    9  A    between atoms: C_23  and  C_24
REMARK   10  A    between atoms: C_23  and  C_25
REMARK   11  A    between atoms: N_26  and  S_27
REMARK   12  A    between atoms: S_27  and  C_30
REMARK                            x       y       z     vdW  Elec       q    Type
REMARK                         _______ _______ _______ _____ _____    ______ ____
ROOT
ATOM      1  N   UNL     1       6.997  -2.247   0.617  0.00  0.00    -0.291 NA
ATOM      2  C   UNL     1       7.362  -1.275  -0.422  0.00  0.00    +0.104 C 
ATOM      3  C   UNL     1       8.882  -1.283  -0.613  0.00  0.00    +0.123 C 
ATOM      4  N   UNL     1       9.518  -1.064   0.695  0.00  0.00    -0.298 N 
ATOM      5  C   UNL     1       9.102  -1.911   1.823  0.00  0.00    +0.123 C 
ATOM      6  C   UNL     1       7.573  -1.878   1.917  0.00  0.00    +0.104 C 
ATOM      7  C   UNL     1      10.458  -0.111   0.856  0.00  0.00    +0.235 C 
ATOM      8  O   UNL     1      10.732   0.632  -0.062  0.00  0.00    -0.274 OA
ENDROOT
BRANCH   1   9
ATOM      9  C   UNL     1       5.538  -2.394   0.711  0.00  0.00    +0.180 C 
BRANCH   9  11
ATOM     10  N   UNL     1       3.692  -3.236  -0.705  0.00  0.00    -0.284 N 
ATOM     11  C   UNL     1       5.013  -3.006  -0.563  0.00  0.00    +0.231 C 
ATOM     12  O   UNL     1       5.778  -3.290  -1.460  0.00  0.00    -0.274 OA
ATOM     13  H   UNL     1       3.071  -2.930  -0.026  0.00  0.00    +0.155 HD
BRANCH  10  19
ATOM     14  C   UNL     1       2.074  -4.699  -1.741  0.00  0.00    -0.026 A 
ATOM     15  C   UNL     1       1.606  -5.366  -2.857  0.00  0.00    +0.005 A 
ATOM     16  C   UNL     1       2.277  -5.260  -4.060  0.00  0.00    +0.000 A 
ATOM     17  C   UNL     1       3.420  -4.486  -4.152  0.00  0.00    +0.002 A 
ATOM     18  C   UNL     1       3.893  -3.817  -3.041  0.00  0.00    +0.023 A 
ATOM     19  C   UNL     1       3.218  -3.917  -1.831  0.00  0.00    +0.037 A 
BRANCH  14  21
ATOM     20  C   UNL     1       0.372  -3.641  -0.281  0.00  0.00    +0.009 C 
ATOM     21  C   UNL     1       1.341  -4.816  -0.430  0.00  0.00    +0.033 C 
ENDBRANCH  14  21
ENDBRANCH  10  19
ENDBRANCH   9  11
ENDBRANCH   1   9
BRANCH   7  22
ATOM     22  C   UNL     1      11.170   0.030   2.177  0.00  0.00    +0.165 C 
BRANCH  22  23
ATOM     23  C   UNL     1      10.226   0.666   3.199  0.00  0.00    +0.010 C 
ATOM     24  C   UNL     1      10.907   0.703   4.569  0.00  0.00    +0.009 C 
ATOM     25  C   UNL     1       9.885   2.092   2.760  0.00  0.00    +0.009 C 
ENDBRANCH  22  23
BRANCH  22  26
ATOM     26  N   UNL     1      12.351   0.880   2.007  0.00  0.00    -0.177 NA
ATOM     27  H   UNL     1      12.252   1.786   1.676  0.00  0.00    +0.149 HD
BRANCH  26  28
ATOM     28  S   UNL     1      13.854   0.293   2.381  0.00  0.00    +0.065 S 
ATOM     29  O   UNL     1      14.778   1.333   2.094  0.00  0.00    -0.153 OA
ATOM     30  O   UNL     1      13.750  -0.300   3.668  0.00  0.00    -0.153 OA
BRANCH  28  31
ATOM     31  C   UNL     1      14.199  -1.014   1.251  0.00  0.00    +0.142 A 
ATOM     32  C   UNL     1      14.805  -0.958   0.040  0.00  0.00    +0.036 A 
ATOM     33  C   UNL     1      14.972  -2.125  -0.681  0.00  0.00    +0.010 A 
ATOM     34  C   UNL     1      14.524  -3.292  -0.156  0.00  0.00    +0.047 A 
ATOM     35  S   UNL     1      13.846  -2.757   1.407  0.00  0.00    -0.077 S 
ENDBRANCH  28  31
ENDBRANCH  26  28
ENDBRANCH  22  26
ENDBRANCH   7  22
TORSDOF 9
