REMARK  Name = ZINC39266385
REMARK  13 active torsions:
REMARK  status: ('A' for Active; 'I' for Inactive)
REMARK    1  A    between atoms: C_1  and  C_2
REMARK    2  A    between atoms: C_2  and  N_3
REMARK    3  A    between atoms: C_7  and  C_9
REMARK    4  A    between atoms: C_9  and  N_10
REMARK    5  A    between atoms: C_11  and  C_13
REMARK    6  A    between atoms: C_13  and  C_15
REMARK    7  A    between atoms: C_13  and  N_19
REMARK    8  A    between atoms: C_15  and  C_16
REMARK    9  A    between atoms: C_16  and  C_17
REMARK   10  A    between atoms: C_16  and  C_18
REMARK   11  A    between atoms: N_28  and  C_29
REMARK   12  A    between atoms: C_29  and  C_30
REMARK   13  A    between atoms: C_35  and  C_36
REMARK                            x       y       z     vdW  Elec       q    Type
REMARK                         _______ _______ _______ _____ _____    ______ ____
ROOT
ATOM      1  N   UNL     1      -1.927  -1.736   7.108  0.00  0.00    -0.291 N 
ATOM      2  C   UNL     1      -1.827  -2.823   8.090  0.00  0.00    +0.107 C 
ATOM      3  C   UNL     1      -2.735  -2.401   9.268  0.00  0.00    +0.016 C 
ATOM      4  C   UNL     1      -3.725  -1.451   8.571  0.00  0.00    +0.015 C 
ATOM      5  C   UNL     1      -2.993  -0.952   7.354  0.00  0.00    +0.206 C 
ATOM      6  O   UNL     1      -3.318   0.012   6.693  0.00  0.00    -0.277 OA
ATOM      7  C   UNL     1      -4.095  -0.287   9.502  0.00  0.00    -0.005 C 
ATOM      8  C   UNL     1      -5.596  -0.052   9.179  0.00  0.00    -0.019 C 
ATOM      9  C   UNL     1      -6.090  -1.495   8.904  0.00  0.00    -0.077 C 
ATOM     10  N   UNL     1      -4.960  -2.156   8.210  0.00  0.00    +0.392 N 
ATOM     11  H   UNL     1      -5.099  -2.110   7.212  0.00  0.00    -0.080 HD
ENDROOT
BRANCH   1  12
ATOM     12  C   UNL     1      -0.983  -1.526   6.007  0.00  0.00    +0.162 C 
BRANCH  12  14
ATOM     13  N   UNL     1      -0.666  -2.519   3.764  0.00  0.00    -0.315 N 
ATOM     14  C   UNL     1      -1.082  -2.675   5.036  0.00  0.00    +0.234 C 
ATOM     15  O   UNL     1      -1.535  -3.739   5.400  0.00  0.00    -0.274 OA
ATOM     16  H   UNL     1      -0.236  -1.693   3.491  0.00  0.00    +0.149 HD
BRANCH  13  17
ATOM     17  C   UNL     1      -0.862  -3.598   2.792  0.00  0.00    +0.089 C 
BRANCH  17  22
ATOM     18  N   UNL     1      -1.149  -1.881   1.054  0.00  0.00    +0.382 N 
ATOM     19  C   UNL     1      -1.961  -2.134  -0.155  0.00  0.00    -0.078 C 
ATOM     20  C   UNL     1      -1.258  -3.319  -0.863  0.00  0.00    -0.020 C 
ATOM     21  C   UNL     1      -0.799  -4.178   0.345  0.00  0.00    -0.016 C 
ATOM     22  C   UNL     1      -0.429  -3.119   1.405  0.00  0.00    -0.051 C 
ATOM     23  H   UNL     1      -1.753  -1.612   1.816  0.00  0.00    -0.081 HD
BRANCH  18  25
ATOM     24  C   UNL     1      -0.932   0.505   0.544  0.00  0.00    -0.017 C 
ATOM     25  C   UNL     1      -0.183  -0.807   0.785  0.00  0.00    -0.082 C 
ENDBRANCH  18  25
ENDBRANCH  17  22
ENDBRANCH  13  17
ENDBRANCH  12  14
BRANCH  12  26
ATOM     26  C   UNL     1       0.440  -1.449   6.562  0.00  0.00    +0.035 C 
BRANCH  26  27
ATOM     27  C   UNL     1       0.573  -0.212   7.454  0.00  0.00    -0.015 C 
ATOM     28  C   UNL     1       1.931  -0.235   8.159  0.00  0.00    +0.007 C 
ATOM     29  C   UNL     1       0.466   1.049   6.594  0.00  0.00    +0.007 C 
ENDBRANCH  26  27
ENDBRANCH  12  26
ENDBRANCH   1  12
BRANCH  10  30
ATOM     30  C   UNL     1      -4.872  -3.559   8.634  0.00  0.00    -0.041 C 
BRANCH  30  31
ATOM     31  C   UNL     1      -6.076  -4.313   8.131  0.00  0.00    -0.056 A 
ATOM     32  C   UNL     1      -6.972  -3.696   7.281  0.00  0.00    +0.002 A 
ATOM     33  C   UNL     1      -8.077  -4.386   6.818  0.00  0.00    +0.000 A 
ATOM     34  C   UNL     1      -8.292  -5.697   7.204  0.00  0.00    +0.001 A 
ATOM     35  C   UNL     1      -7.403  -6.324   8.053  0.00  0.00    +0.009 A 
ATOM     36  C   UNL     1      -6.285  -5.635   8.518  0.00  0.00    -0.017 A 
BRANCH  36  37
ATOM     37  C   UNL     1      -5.322  -6.304   9.428  0.00  0.00    -0.018 A 
ATOM     38  C   UNL     1      -3.973  -6.378   9.087  0.00  0.00    +0.008 A 
ATOM     39  C   UNL     1      -3.082  -7.001   9.937  0.00  0.00    +0.001 A 
ATOM     40  C   UNL     1      -3.526  -7.554  11.125  0.00  0.00    +0.000 A 
ATOM     41  C   UNL     1      -4.865  -7.484  11.468  0.00  0.00    +0.001 A 
ATOM     42  C   UNL     1      -5.763  -6.858  10.628  0.00  0.00    +0.008 A 
ENDBRANCH  36  37
ENDBRANCH  30  31
ENDBRANCH  10  30
TORSDOF 10
