REMARK  Name = ZINC48547520
REMARK  13 active torsions:
REMARK  status: ('A' for Active; 'I' for Inactive)
REMARK    1  A    between atoms: C_1  and  C_2
REMARK    2  A    between atoms: C_2  and  C_3
REMARK    3  A    between atoms: C_2  and  N_4
REMARK    4  A    between atoms: N_4  and  C_5
REMARK    5  A    between atoms: N_4  and  C_32
REMARK    6  A    between atoms: C_5  and  C_6
REMARK    7  A    between atoms: C_8  and  C_25
REMARK    8  A    between atoms: C_13  and  C_15
REMARK    9  A    between atoms: C_20  and  S_21
REMARK   10  A    between atoms: S_21  and  N_24
REMARK   11  A    between atoms: C_30  and  O_31
REMARK   12  A    between atoms: C_32  and  C_33
REMARK   13  A    between atoms: C_32  and  C_34
REMARK                            x       y       z     vdW  Elec       q    Type
REMARK                         _______ _______ _______ _____ _____    ______ ____
ROOT
ATOM      1  C   UNL     1      -3.462   1.105   0.730  0.00  0.00    +0.112 C 
ATOM      2  C   UNL     1      -4.815   1.373   0.105  0.00  0.00    +0.081 C 
ATOM      3  N   UNL     1      -5.609   0.433   0.508  0.00  0.00    -0.173 NA
ATOM      4  N   UNL     1      -4.980  -0.478   1.350  0.00  0.00    -0.122 N 
ATOM      5  C   UNL     1      -3.682  -0.154   1.544  0.00  0.00    +0.249 C 
ATOM      6  O   UNL     1      -2.867  -0.743   2.223  0.00  0.00    -0.273 OA
ATOM      7  C   UNL     1      -5.587  -1.547   1.904  0.00  0.00    +0.275 C 
ATOM      8  O   UNL     1      -4.982  -2.252   2.687  0.00  0.00    -0.268 OA
ENDROOT
BRANCH   7   9
ATOM      9  C   UNL     1      -6.989  -1.861   1.559  0.00  0.00    +0.065 A 
ATOM     10  C   UNL     1      -7.454  -1.656   0.258  0.00  0.00    +0.015 A 
ATOM     11  C   UNL     1      -8.763  -1.952  -0.057  0.00  0.00    +0.001 A 
ATOM     12  C   UNL     1      -9.617  -2.449   0.912  0.00  0.00    +0.002 A 
ATOM     13  C   UNL     1      -9.163  -2.654   2.203  0.00  0.00    +0.029 A 
ATOM     14  C   UNL     1      -7.853  -2.368   2.531  0.00  0.00    +0.117 A 
BRANCH  14  15
ATOM     15  S   UNL     1      -7.275  -2.637   4.173  0.00  0.00    +0.057 S 
ATOM     16  O   UNL     1      -6.607  -1.447   4.569  0.00  0.00    -0.153 OA
ATOM     17  O   UNL     1      -8.368  -3.176   4.905  0.00  0.00    -0.153 OA
BRANCH  15  18
ATOM     18  N   UNL     1      -6.123  -3.824   4.099  0.00  0.00    -0.203 NA
ATOM     19  H   UNL     1      -5.396  -3.835   4.741  0.00  0.00    +0.144 HD
ATOM     20  H   UNL     1      -6.176  -4.509   3.414  0.00  0.00    +0.144 HD
ENDBRANCH  15  18
ENDBRANCH  14  15
ENDBRANCH   7   9
BRANCH   2  21
ATOM     21  C   UNL     1      -5.162   2.491  -0.790  0.00  0.00    +0.040 A 
ATOM     22  C   UNL     1      -4.194   3.433  -1.145  0.00  0.00    +0.013 A 
ATOM     23  C   UNL     1      -4.526   4.477  -1.983  0.00  0.00    +0.001 A 
ATOM     24  C   UNL     1      -5.815   4.595  -2.475  0.00  0.00    +0.004 A 
ATOM     25  C   UNL     1      -6.782   3.670  -2.131  0.00  0.00    +0.046 A 
ATOM     26  C   UNL     1      -6.464   2.611  -1.295  0.00  0.00    +0.126 A 
BRANCH  26  27
ATOM     27  O   UNL     1      -7.412   1.698  -0.961  0.00  0.00    -0.506 OA
ATOM     28  H   UNL     1      -7.913   1.923  -0.165  0.00  0.00    +0.292 HD
ENDBRANCH  26  27
ENDBRANCH   2  21
BRANCH   1  29
ATOM     29  C   UNL     1      -2.407   0.868  -0.353  0.00  0.00    -0.059 C 
BRANCH  29  30
ATOM     30  N   UNL     1      -1.111   0.585   0.279  0.00  0.00    +0.383 N 
ATOM     31  H   UNL     1      -1.113   0.940   1.223  0.00  0.00    -0.081 HD
BRANCH  30  33
ATOM     32  C   UNL     1      -0.315   2.738  -0.573  0.00  0.00    -0.014 C 
ATOM     33  C   UNL     1      -0.040   1.236  -0.487  0.00  0.00    -0.075 C 
ATOM     34  C   UNL     1       1.301   1.002   0.212  0.00  0.00    -0.014 C 
ENDBRANCH  30  33
BRANCH  30  35
ATOM     35  C   UNL     1      -0.885  -0.866   0.302  0.00  0.00    -0.075 C 
ATOM     36  C   UNL     1      -0.241  -1.303  -1.016  0.00  0.00    -0.014 C 
ATOM     37  C   UNL     1       0.044  -1.219   1.465  0.00  0.00    -0.014 C 
ENDBRANCH  30  35
ENDBRANCH  29  30
ENDBRANCH   1  29
TORSDOF 9
