REMARK  Name = ZINC06194800
REMARK  10 active torsions:
REMARK  status: ('A' for Active; 'I' for Inactive)
REMARK    1  A    between atoms: C_1  and  C_2
REMARK    2  A    between atoms: C_6  and  C_15
REMARK    3  A    between atoms: C_13  and  C_14
REMARK    4  A    between atoms: C_15  and  C_17
REMARK    5  A    between atoms: C_15  and  N_72
REMARK    6  A    between atoms: N_21  and  C_22
REMARK    7  A    between atoms: C_28  and  C_29
REMARK    8  A    between atoms: C_28  and  N_72
REMARK    9  A    between atoms: C_35  and  C_36
REMARK   10  A    between atoms: C_35  and  N_72
REMARK                            x       y       z     vdW  Elec       q    Type
REMARK                         _______ _______ _______ _____ _____    ______ ____
ROOT
ATOM      1  C   UNL     1      -5.044   3.653  -0.050  0.00  0.00    +0.040 C 
ENDROOT
BRANCH   1   7
ATOM      2  C   UNL     1       2.230   2.484  -1.209  0.00  0.00    +0.044 C 
ATOM      3  C   UNL     1       0.814   1.976  -1.129  0.00  0.00    -0.047 A 
ATOM      4  C   UNL     1      -0.199   2.839  -0.820  0.00  0.00    +0.013 A 
ATOM      5  C   UNL     1      -1.514   2.367  -0.746  0.00  0.00    -0.001 A 
ATOM      6  C   UNL     1      -2.623   3.265  -0.418  0.00  0.00    +0.017 A 
ATOM      7  C   UNL     1      -3.879   2.755  -0.379  0.00  0.00    +0.011 A 
ATOM      8  C   UNL     1      -4.097   1.384  -0.631  0.00  0.00    +0.251 A 
ATOM      9  O   UNL     1      -5.233   0.944  -0.580  0.00  0.00    -0.268 OA
ATOM     10  N   UNL     1      -3.084   0.550  -0.927  0.00  0.00    -0.322 N 
ATOM     11  H   UNL     1      -3.270  -0.387  -1.096  0.00  0.00    +0.169 HD
ATOM     12  C   UNL     1      -1.786   1.009  -0.995  0.00  0.00    +0.049 A 
ATOM     13  C   UNL     1      -0.738   0.148  -1.303  0.00  0.00    +0.030 A 
ATOM     14  C   UNL     1       0.550   0.634  -1.369  0.00  0.00    -0.046 A 
ATOM     15  C   UNL     1       1.683  -0.299  -1.708  0.00  0.00    +0.044 C 
ENDBRANCH   1   7
BRANCH   1  16
ATOM     16  C   UNL     1      -5.954   3.752  -1.247  0.00  0.00    +0.143 A 
ATOM     17  N   UNL     1      -6.787   2.835  -1.675  0.00  0.00    -0.115 NA
ATOM     18  N   UNL     1      -7.384   3.296  -2.720  0.00  0.00    -0.023 NA
ATOM     19  N   UNL     1      -6.953   4.483  -2.970  0.00  0.00    -0.044 NA
ATOM     20  N   UNL     1      -6.074   4.802  -2.081  0.00  0.00    -0.227 N 
BRANCH  20  21
ATOM     21  C   UNL     1      -5.341   6.068  -1.997  0.00  0.00    +0.111 C 
ATOM     22  C   UNL     1      -6.333   7.221  -1.828  0.00  0.00    +0.027 C 
ATOM     23  C   UNL     1      -5.567   8.543  -1.741  0.00  0.00    +0.002 C 
ATOM     24  C   UNL     1      -4.758   8.750  -3.022  0.00  0.00    +0.000 C 
ATOM     25  C   UNL     1      -3.766   7.597  -3.191  0.00  0.00    +0.002 C 
ATOM     26  C   UNL     1      -4.531   6.275  -3.278  0.00  0.00    +0.027 C 
ENDBRANCH  20  21
ENDBRANCH   1  16
BRANCH   1  27
ATOM     27  N   UNL     1      -5.802   3.070   1.077  0.00  0.00    +0.397 N 
ATOM     28  H   UNL     1      -6.294   2.231   0.749  0.00  0.00    -0.079 HD
BRANCH  27  29
ATOM     29  C   UNL     1      -4.876   2.690   2.165  0.00  0.00    -0.039 C 
BRANCH  29  30
ATOM     30  C   UNL     1      -5.599   1.769   3.115  0.00  0.00    -0.046 A 
ATOM     31  C   UNL     1      -6.337   2.287   4.168  0.00  0.00    +0.005 A 
ATOM     32  C   UNL     1      -6.989   1.403   5.014  0.00  0.00    +0.020 A 
ATOM     33  C   UNL     1      -6.874   0.044   4.787  0.00  0.00    +0.111 A 
ATOM     34  N   UNL     1      -6.158  -0.412   3.778  0.00  0.00    -0.263 NA
ATOM     35  C   UNL     1      -5.529   0.399   2.950  0.00  0.00    +0.112 A 
ENDBRANCH  29  30
ENDBRANCH  27  29
BRANCH  27  36
ATOM     36  C   UNL     1      -6.794   4.045   1.576  0.00  0.00    -0.001 C 
BRANCH  36  37
ATOM     37  C   UNL     1      -6.104   5.243   2.176  0.00  0.00    +0.089 A 
ATOM     38  C   UNL     1      -5.827   6.393   1.536  0.00  0.00    +0.042 A 
ATOM     39  C   UNL     1      -5.178   7.235   2.469  0.00  0.00    +0.041 A 
ATOM     40  C   UNL     1      -5.098   6.548   3.623  0.00  0.00    +0.195 A 
ATOM     41  O   UNL     1      -5.665   5.344   3.441  0.00  0.00    -0.470 OA
ENDBRANCH  36  37
ENDBRANCH  27  36
ENDBRANCH   1  27
TORSDOF 8
