REMARK  Name = ZINC04275965
REMARK  2 active torsions:
REMARK  status: ('A' for Active; 'I' for Inactive)
REMARK    1  A    between atoms: C_8  and  C_10
REMARK    2  A    between atoms: C_16  and  C_18
REMARK                            x       y       z     vdW  Elec       q    Type
REMARK                         _______ _______ _______ _____ _____    ______ ____
ROOT
ATOM      1  C   UNL     1       2.997   5.445   0.001  0.00  0.00    +0.260 C 
ATOM      2  O   UNL     1       2.142   6.311   0.013  0.00  0.00    -0.269 OA
ATOM      3  N   UNL     1       4.301   5.785  -0.010  0.00  0.00    -0.234 N 
ATOM      4  C   UNL     1       4.668   7.120  -0.008  0.00  0.00    +0.315 A 
ATOM      5  N   UNL     1       3.854   8.149  -0.001  0.00  0.00    -0.092 NA
ATOM      6  N   UNL     1       4.539   9.238   0.003  0.00  0.00    -0.106 NA
ATOM      7  C   UNL     1       5.818   8.947  -0.011  0.00  0.00    +0.250 A 
ATOM      8  O   UNL     1       5.925   7.601  -0.018  0.00  0.00    -0.405 OA
ATOM      9  H   UNL     1       4.982   5.095  -0.020  0.00  0.00    +0.160 HD
ENDROOT
BRANCH   1  17
ATOM     10  C   UNL     1       0.002  -0.004   0.002  0.00  0.00    +0.001 A 
ATOM     11  C   UNL     1       1.195  -0.717  -0.013  0.00  0.00    +0.001 A 
ATOM     12  C   UNL     1       2.394  -0.034  -0.021  0.00  0.00    +0.016 A 
ATOM     13  C   UNL     1       2.392   1.345  -0.013  0.00  0.00    +0.021 A 
ATOM     14  C   UNL     1       1.193   2.096   0.002  0.00  0.00    +0.008 A 
ATOM     15  C   UNL     1      -0.016   1.354   0.009  0.00  0.00    +0.010 A 
ATOM     16  C   UNL     1       1.357   3.494   0.007  0.00  0.00    +0.068 A 
ATOM     17  C   UNL     1       2.608   4.030  -0.002  0.00  0.00    +0.094 A 
ATOM     18  S   UNL     1       3.659   2.588  -0.019  0.00  0.00    -0.082 S 
ATOM     19 CL   UNL     1      -0.034   4.533   0.026  0.00  0.00    -0.082 Cl
ENDBRANCH   1  17
BRANCH   7  20
ATOM     20  C   UNL     1       6.935   9.914  -0.018  0.00  0.00    +0.039 A 
ATOM     21  C   UNL     1       8.255   9.460  -0.027  0.00  0.00    +0.016 A 
ATOM     22  C   UNL     1       9.293  10.367  -0.038  0.00  0.00    +0.039 A 
ATOM     23  C   UNL     1       9.029  11.728  -0.029  0.00  0.00    +0.123 A 
ATOM     24  C   UNL     1       7.720  12.184  -0.015  0.00  0.00    +0.039 A 
ATOM     25  C   UNL     1       6.674  11.286  -0.009  0.00  0.00    +0.016 A 
ATOM     26  F   UNL     1      10.050  12.612  -0.035  0.00  0.00    -0.205 F 
ENDBRANCH   7  20
TORSDOF 2
