REMARK  Name = ZINC36007494
REMARK  6 active torsions:
REMARK  status: ('A' for Active; 'I' for Inactive)
REMARK    1  A    between atoms: C_4  and  N_7
REMARK    2  A    between atoms: N_7  and  C_8
REMARK    3  A    between atoms: C_8  and  N_10
REMARK    4  A    between atoms: C_22  and  C_24
REMARK    5  A    between atoms: C_24  and  C_25
REMARK    6  A    between atoms: N_27  and  C_28
REMARK                            x       y       z     vdW  Elec       q    Type
REMARK                         _______ _______ _______ _____ _____    ______ ____
ROOT
ATOM      1  N   UNL     1       6.082  -2.438  -0.548  0.00  0.00    -0.296 N 
ATOM      2  C   UNL     1       6.721  -3.730  -0.873  0.00  0.00    +0.096 C 
ATOM      3  C   UNL     1       7.692  -3.496  -2.034  0.00  0.00    +0.024 C 
ATOM      4  C   UNL     1       8.474  -4.777  -2.325  0.00  0.00    +0.002 C 
ATOM      5  C   UNL     1       9.280  -5.166  -1.082  0.00  0.00    +0.002 C 
ATOM      6  C   UNL     1       8.315  -5.430   0.075  0.00  0.00    +0.024 C 
ATOM      7  C   UNL     1       7.471  -4.195   0.372  0.00  0.00    +0.093 C 
ATOM      8  N   UNL     1       8.289  -3.129   0.923  0.00  0.00    -0.309 N 
ATOM      9  C   UNL     1       8.058  -1.829   0.719  0.00  0.00    +0.234 C 
ATOM     10  O   UNL     1       8.754  -1.020   1.294  0.00  0.00    -0.274 OA
ATOM     11  C   UNL     1       6.974  -1.323  -0.199  0.00  0.00    +0.170 C 
ATOM     12  H   UNL     1       9.049  -3.376   1.473  0.00  0.00    +0.149 HD
ENDROOT
BRANCH   1  13
ATOM     13  C   UNL     1       4.743  -2.288  -0.577  0.00  0.00    +0.138 C 
ATOM     14  S   UNL     1       3.752  -3.550  -1.173  0.00  0.00    -0.018 S 
BRANCH  13  15
ATOM     15  N   UNL     1       4.184  -1.144  -0.135  0.00  0.00    -0.297 N 
ATOM     16  H   UNL     1       4.032  -0.409  -0.750  0.00  0.00    +0.154 HD
BRANCH  15  20
ATOM     17  C   UNL     1       3.106  -0.763   3.871  0.00  0.00    +0.000 A 
ATOM     18  C   UNL     1       2.851   0.269   2.987  0.00  0.00    +0.002 A 
ATOM     19  C   UNL     1       3.207   0.146   1.658  0.00  0.00    +0.023 A 
ATOM     20  C   UNL     1       3.822  -1.016   1.210  0.00  0.00    +0.033 A 
ATOM     21  C   UNL     1       4.078  -2.050   2.101  0.00  0.00    +0.023 A 
ATOM     22  C   UNL     1       3.719  -1.921   3.428  0.00  0.00    +0.002 A 
ENDBRANCH  15  20
ENDBRANCH  13  15
ENDBRANCH   1  13
BRANCH  11  23
ATOM     23  C   UNL     1       6.171  -0.231   0.512  0.00  0.00    +0.128 C 
BRANCH  23  24
ATOM     24  C   UNL     1       5.463   0.618  -0.512  0.00  0.00    +0.219 C 
ATOM     25  O   UNL     1       5.531   0.333  -1.689  0.00  0.00    -0.275 OA
ATOM     26  N   UNL     1       4.753   1.695  -0.120  0.00  0.00    -0.285 N 
ATOM     27  H   UNL     1       4.772   1.977   0.808  0.00  0.00    +0.155 HD
BRANCH  26  28
ATOM     28  C   UNL     1       3.987   2.406  -1.052  0.00  0.00    +0.037 A 
ATOM     29  C   UNL     1       3.479   1.760  -2.171  0.00  0.00    +0.027 A 
ATOM     30  C   UNL     1       2.723   2.461  -3.092  0.00  0.00    +0.051 A 
ATOM     31  C   UNL     1       2.470   3.810  -2.901  0.00  0.00    +0.166 A 
ATOM     32  C   UNL     1       2.978   4.460  -1.779  0.00  0.00    +0.168 A 
ATOM     33  C   UNL     1       3.731   3.756  -0.854  0.00  0.00    +0.072 A 
ATOM     34  O   UNL     1       2.593   5.770  -1.823  0.00  0.00    -0.453 OA
ATOM     35  C   UNL     1       2.192   6.007  -3.185  0.00  0.00    +0.466 C 
ATOM     36  O   UNL     1       1.766   4.712  -3.647  0.00  0.00    -0.453 OA
ENDBRANCH  26  28
ENDBRANCH  23  24
ENDBRANCH  11  23
TORSDOF 6
