REMARK  Name = ZINC20682454
REMARK  13 active torsions:
REMARK  status: ('A' for Active; 'I' for Inactive)
REMARK    1  A    between atoms: C_1  and  C_2
REMARK    2  A    between atoms: C_2  and  C_3
REMARK    3  A    between atoms: N_9  and  C_10
REMARK    4  A    between atoms: C_10  and  C_11
REMARK    5  A    between atoms: C_11  and  C_12
REMARK    6  A    between atoms: C_12  and  N_13
REMARK    7  A    between atoms: C_14  and  C_16
REMARK    8  A    between atoms: C_23  and  S_28
REMARK    9  A    between atoms: S_28  and  N_31
REMARK   10  A    between atoms: N_31  and  C_32
REMARK   11  A    between atoms: N_31  and  C_34
REMARK   12  A    between atoms: C_32  and  C_33
REMARK   13  A    between atoms: C_34  and  C_35
REMARK                            x       y       z     vdW  Elec       q    Type
REMARK                         _______ _______ _______ _____ _____    ______ ____
ROOT
ATOM      1  C   UNL     1      -7.385   1.200   4.316  0.00  0.00    +0.100 A 
ATOM      2  C   UNL     1      -6.809   1.753   5.441  0.00  0.00    +0.100 A 
ATOM      3  N   UNL     1      -7.516   2.020   6.548  0.00  0.00    -0.360 N 
ATOM      4  H   UNL     1      -7.019   2.461   7.425  0.00  0.00    +0.165 HD
ATOM      5  C   UNL     1      -8.866   1.765   6.650  0.00  0.00    +0.050 A 
ATOM      6  C   UNL     1      -9.555   2.062   7.824  0.00  0.00    +0.028 A 
ATOM      7  C   UNL     1     -10.905   1.803   7.914  0.00  0.00    +0.030 A 
ATOM      8  C   UNL     1     -11.593   1.247   6.845  0.00  0.00    +0.106 A 
ATOM      9  C   UNL     1     -10.932   0.945   5.675  0.00  0.00    +0.042 A 
ATOM     10  C   UNL     1      -9.565   1.202   5.569  0.00  0.00    +0.048 A 
ATOM     11  C   UNL     1      -8.825   0.898   4.330  0.00  0.00    +0.202 A 
ATOM     12  O   UNL     1      -9.382   0.414   3.361  0.00  0.00    -0.286 OA
ENDROOT
BRANCH   1  14
ATOM     13  N   UNL     1      -5.257   1.210   3.118  0.00  0.00    -0.311 N 
ATOM     14  C   UNL     1      -6.574   0.923   3.120  0.00  0.00    +0.249 C 
ATOM     15  O   UNL     1      -7.092   0.435   2.134  0.00  0.00    -0.270 OA
ATOM     16  H   UNL     1      -4.788   1.651   4.010  0.00  0.00    +0.149 HD
BRANCH  13  17
ATOM     17  C   UNL     1      -4.450   0.934   1.927  0.00  0.00    +0.102 C 
BRANCH  17  18
ATOM     18  C   UNL     1      -3.000   1.349   2.186  0.00  0.00    +0.000 C 
BRANCH  18  19
ATOM     19  C   UNL     1      -2.157   1.060   0.943  0.00  0.00    -0.077 C 
BRANCH  19  25
ATOM     20  C   UNL     1       0.096   1.102   0.057  0.00  0.00    -0.069 C 
ATOM     21  C   UNL     1       1.502   1.659   0.286  0.00  0.00    -0.015 C 
ATOM     22  C   UNL     1       2.070   1.078   1.584  0.00  0.00    -0.003 C 
ATOM     23  C   UNL     1       1.131   1.423   2.743  0.00  0.00    -0.019 C 
ATOM     24  C   UNL     1      -0.266   0.873   2.442  0.00  0.00    -0.078 C 
ATOM     25  N   UNL     1      -0.765   1.459   1.192  0.00  0.00    +0.382 N 
ATOM     26  H   UNL     1      -0.739   2.553   1.300  0.00  0.00    -0.081 HD
BRANCH  20  28
ATOM     27  C   UNL     1       0.351   1.234  -2.425  0.00  0.00    +0.002 C 
ATOM     28  C   UNL     1      -0.484   1.695  -1.229  0.00  0.00    -0.019 C 
ENDBRANCH  20  28
ENDBRANCH  19  25
ENDBRANCH  18  19
ENDBRANCH  17  18
ENDBRANCH  13  17
ENDBRANCH   1  14
BRANCH   8  29
ATOM     29  S   UNL     1     -13.320   0.926   6.985  0.00  0.00    +0.061 S 
ATOM     30  O   UNL     1     -13.815   1.801   7.989  0.00  0.00    -0.153 OA
ATOM     31  O   UNL     1     -13.839   0.911   5.662  0.00  0.00    -0.153 OA
BRANCH  29  32
ATOM     32  N   UNL     1     -13.485  -0.613   7.575  0.00  0.00    -0.177 NA
BRANCH  32  33
ATOM     33  C   UNL     1     -13.546  -0.840   9.021  0.00  0.00    +0.106 C 
ATOM     34  C   UNL     1     -15.009  -0.904   9.466  0.00  0.00    +0.022 C 
ENDBRANCH  32  33
BRANCH  32  35
ATOM     35  C   UNL     1     -13.570  -1.746   6.651  0.00  0.00    +0.106 C 
ATOM     36  C   UNL     1     -12.181  -2.359   6.465  0.00  0.00    +0.022 C 
ENDBRANCH  32  35
ENDBRANCH  29  32
ENDBRANCH   8  29
TORSDOF 10
