REMARK  Name = ZINC08592288
REMARK  8 active torsions:
REMARK  status: ('A' for Active; 'I' for Inactive)
REMARK    1  A    between atoms: C_1  and  C_2
REMARK    2  A    between atoms: C_5  and  N_9
REMARK    3  A    between atoms: C_6  and  C_8
REMARK    4  A    between atoms: C_10  and  C_12
REMARK    5  A    between atoms: C_13  and  C_37
REMARK    6  A    between atoms: C_16  and  C_28
REMARK    7  A    between atoms: C_20  and  C_22
REMARK    8  A    between atoms: N_30  and  C_31
REMARK                            x       y       z     vdW  Elec       q    Type
REMARK                         _______ _______ _______ _____ _____    ______ ____
ROOT
ATOM      1  C   UNL     1       0.135  -6.267  -1.427  0.00  0.00    +0.060 C 
ATOM      2  C   UNL     1       0.191  -6.807  -2.653  0.00  0.00    +0.017 C 
ATOM      3  N   UNL     1       0.231  -8.166  -2.849  0.00  0.00    -0.302 N 
ATOM      4  C   UNL     1       0.476  -8.960  -1.743  0.00  0.00    +0.134 A 
ATOM      5  C   UNL     1       0.799 -10.301  -1.666  0.00  0.00    +0.096 A 
ATOM      6  C   UNL     1       0.948 -10.608  -0.290  0.00  0.00    +0.149 A 
ATOM      7  N   UNL     1       0.725  -9.520   0.398  0.00  0.00    -0.176 NA
ATOM      8  N   UNL     1       0.425  -8.479  -0.476  0.00  0.00    -0.238 N 
ATOM      9  C   UNL     1       0.103  -7.086  -0.165  0.00  0.00    +0.176 C 
ATOM     10  C   UNL     1       0.211  -5.895  -3.852  0.00  0.00    +0.061 C 
ATOM     11  H   UNL     1       0.092  -8.553  -3.727  0.00  0.00    +0.153 HD
ENDROOT
BRANCH   9  12
ATOM     12  C   UNL     1      -1.274  -7.019   0.443  0.00  0.00    -0.018 A 
ATOM     13  C   UNL     1      -2.368  -7.471  -0.271  0.00  0.00    +0.006 A 
ATOM     14  C   UNL     1      -3.631  -7.409   0.286  0.00  0.00    +0.000 A 
ATOM     15  C   UNL     1      -3.801  -6.895   1.558  0.00  0.00    +0.000 A 
ATOM     16  C   UNL     1      -2.707  -6.444   2.273  0.00  0.00    +0.000 A 
ATOM     17  C   UNL     1      -1.443  -6.510   1.717  0.00  0.00    +0.006 A 
ENDBRANCH   9  12
BRANCH   1  19
ATOM     18  N   UNL     1      -1.059  -4.193  -1.413  0.00  0.00    -0.281 N 
ATOM     19  C   UNL     1       0.110  -4.857  -1.313  0.00  0.00    +0.248 C 
ATOM     20  O   UNL     1       1.145  -4.243  -1.125  0.00  0.00    -0.270 OA
ATOM     21  H   UNL     1      -1.892  -4.686  -1.481  0.00  0.00    +0.155 HD
BRANCH  18  26
ATOM     22  C   UNL     1      -1.107   1.479  -1.439  0.00  0.00    +0.044 C 
ATOM     23  C   UNL     1      -1.094  -0.028  -1.432  0.00  0.00    -0.050 A 
ATOM     24  C   UNL     1       0.038  -0.710  -1.840  0.00  0.00    +0.005 A 
ATOM     25  C   UNL     1       0.053  -2.091  -1.835  0.00  0.00    +0.024 A 
ATOM     26  C   UNL     1      -1.071  -2.795  -1.419  0.00  0.00    +0.037 A 
ATOM     27  C   UNL     1      -2.205  -2.107  -1.010  0.00  0.00    -0.029 A 
ATOM     28  C   UNL     1      -2.212  -0.726  -1.013  0.00  0.00    +0.008 A 
ATOM     29  C   UNL     1      -3.426  -2.866  -0.559  0.00  0.00    +0.045 C 
ENDBRANCH  18  26
ENDBRANCH   1  19
BRANCH   5  30
ATOM     30  C   UNL     1       0.958 -11.229  -2.793  0.00  0.00    +0.253 C 
ATOM     31  O   UNL     1       0.801 -10.834  -3.933  0.00  0.00    -0.270 OA
ATOM     32  N   UNL     1       1.278 -12.518  -2.564  0.00  0.00    -0.281 N 
ATOM     33  H   UNL     1       1.328 -12.851  -1.654  0.00  0.00    +0.155 HD
BRANCH  32  34
ATOM     34  C   UNL     1       1.538 -13.376  -3.638  0.00  0.00    +0.034 A 
ATOM     35  C   UNL     1       2.172 -12.894  -4.776  0.00  0.00    +0.023 A 
ATOM     36  C   UNL     1       2.427 -13.743  -5.834  0.00  0.00    +0.002 A 
ATOM     37  C   UNL     1       2.051 -15.072  -5.762  0.00  0.00    +0.000 A 
ATOM     38  C   UNL     1       1.420 -15.555  -4.631  0.00  0.00    +0.002 A 
ATOM     39  C   UNL     1       1.167 -14.712  -3.567  0.00  0.00    +0.023 A 
ENDBRANCH  32  34
ENDBRANCH   5  30
TORSDOF 5
