REMARK  Name = ZINC09018902
REMARK  6 active torsions:
REMARK  status: ('A' for Active; 'I' for Inactive)
REMARK    1  A    between atoms: C_1  and  C_2
REMARK    2  A    between atoms: C_7  and  N_8
REMARK    3  A    between atoms: C_13  and  O_25
REMARK    4  A    between atoms: C_15  and  S_17
REMARK    5  A    between atoms: S_17  and  C_18
REMARK    6  A    between atoms: C_18  and  C_19
REMARK                            x       y       z     vdW  Elec       q    Type
REMARK                         _______ _______ _______ _____ _____    ______ ____
ROOT
ATOM      1  N   UNL     1       3.791   2.169   2.500  0.00  0.00    -0.214 N 
ATOM      2  C   UNL     1       3.464   1.788   1.229  0.00  0.00    +0.171 A 
ATOM      3  C   UNL     1       2.276   1.036   1.330  0.00  0.00    +0.100 A 
ATOM      4  C   UNL     1       1.934   0.986   2.699  0.00  0.00    +0.150 A 
ATOM      5  N   UNL     1       2.825   1.655   3.374  0.00  0.00    -0.172 NA
ATOM      6  C   UNL     1       1.717   0.508   0.152  0.00  0.00    +0.227 A 
ATOM      7  N   UNL     1       2.323   0.751  -1.001  0.00  0.00    -0.187 NA
ATOM      8  C   UNL     1       3.439   1.471  -1.053  0.00  0.00    +0.194 A 
ATOM      9  N   UNL     1       4.004   1.981   0.029  0.00  0.00    -0.202 NA
ENDROOT
BRANCH   1  16
ATOM     10  C   UNL     1       4.007   3.017   5.208  0.00  0.00    +0.046 C 
ATOM     11  C   UNL     1       5.046   3.375   4.176  0.00  0.00    -0.025 A 
ATOM     12  C   UNL     1       6.145   4.130   4.535  0.00  0.00    +0.005 A 
ATOM     13  C   UNL     1       7.095   4.464   3.588  0.00  0.00    +0.000 A 
ATOM     14  C   UNL     1       6.952   4.037   2.280  0.00  0.00    +0.002 A 
ATOM     15  C   UNL     1       5.858   3.276   1.917  0.00  0.00    +0.028 A 
ATOM     16  C   UNL     1       4.902   2.940   2.865  0.00  0.00    +0.071 A 
ENDBRANCH   1  16
BRANCH   6  17
ATOM     17  O   UNL     1       0.580  -0.227   0.195  0.00  0.00    -0.492 OA
ATOM     18  H   UNL     1       0.730  -1.176   0.304  0.00  0.00    +0.294 HD
ENDBRANCH   6  17
BRANCH   8  19
ATOM     19  S   UNL     1       4.193   1.755  -2.620  0.00  0.00    -0.081 S 
BRANCH  19  20
ATOM     20  C   UNL     1       3.040   0.862  -3.691  0.00  0.00    +0.114 C 
BRANCH  20  21
ATOM     21  C   UNL     1       3.497   0.971  -5.123  0.00  0.00    -0.019 A 
ATOM     22  C   UNL     1       3.057   2.014  -5.923  0.00  0.00    +0.007 A 
ATOM     23  C   UNL     1       3.508   2.076  -7.233  0.00  0.00    +0.020 A 
ATOM     24  C   UNL     1       4.367   1.098  -7.697  0.00  0.00    +0.111 A 
ATOM     25  N   UNL     1       4.761   0.117  -6.909  0.00  0.00    -0.263 NA
ATOM     26  C   UNL     1       4.356   0.029  -5.657  0.00  0.00    +0.115 A 
ENDBRANCH  20  21
ENDBRANCH  19  20
ENDBRANCH   8  19
TORSDOF 5
