REMARK  Name = ZINC57355562
REMARK  12 active torsions:
REMARK  status: ('A' for Active; 'I' for Inactive)
REMARK    1  A    between atoms: C_1  and  C_2
REMARK    2  A    between atoms: C_2  and  C_3
REMARK    3  A    between atoms: C_6  and  C_25
REMARK    4  A    between atoms: N_8  and  C_23
REMARK    5  A    between atoms: C_10  and  N_12
REMARK    6  A    between atoms: N_12  and  C_13
REMARK    7  A    between atoms: C_14  and  C_22
REMARK    8  A    between atoms: N_16  and  C_19
REMARK    9  A    between atoms: C_17  and  C_18
REMARK   10  A    between atoms: C_19  and  C_20
REMARK   11  A    between atoms: C_19  and  C_21
REMARK   12  A    between atoms: C_23  and  C_24
REMARK                            x       y       z     vdW  Elec       q    Type
REMARK                         _______ _______ _______ _____ _____    ______ ____
ROOT
ATOM      1  C   UNL     1       1.334  -2.895  -1.972  0.00  0.00    +0.132 A 
ATOM      2  N   UNL     1       0.921  -3.111  -3.200  0.00  0.00    -0.229 NA
ATOM      3  C   UNL     1       1.457  -2.439  -4.227  0.00  0.00    +0.117 A 
ATOM      4  C   UNL     1       1.245  -2.436  -5.622  0.00  0.00    +0.086 A 
ATOM      5  N   UNL     1       2.055  -1.572  -6.166  0.00  0.00    -0.174 NA
ATOM      6  N   UNL     1       2.835  -0.966  -5.172  0.00  0.00    -0.259 N 
ATOM      7  C   UNL     1       2.469  -1.499  -3.965  0.00  0.00    +0.127 A 
ATOM      8  C   UNL     1       2.873  -1.307  -2.636  0.00  0.00    +0.152 A 
ATOM      9  N   UNL     1       2.279  -2.017  -1.684  0.00  0.00    -0.215 NA
ATOM     10  C   UNL     1       0.248  -3.291  -6.361  0.00  0.00    +0.070 C 
ENDROOT
BRANCH   1  12
ATOM     11  C   UNL     1      -0.513  -2.911  -0.318  0.00  0.00    +0.012 C 
ATOM     12  C   UNL     1       0.702  -3.675  -0.848  0.00  0.00    +0.073 C 
ENDBRANCH   1  12
BRANCH   8  13
ATOM     13  N   UNL     1       3.865  -0.394  -2.324  0.00  0.00    -0.295 N 
ATOM     14  H   UNL     1       4.239   0.172  -3.017  0.00  0.00    +0.154 HD
BRANCH  13  15
ATOM     15  C   UNL     1       4.330  -0.287  -1.000  0.00  0.00    +0.076 A 
ATOM     16  C   UNL     1       3.584   0.147   0.106  0.00  0.00    +0.081 A 
ATOM     17  N   UNL     1       4.355   0.111   1.163  0.00  0.00    -0.174 NA
ATOM     18  N   UNL     1       5.619  -0.347   0.772  0.00  0.00    -0.264 N 
ATOM     19  C   UNL     1       5.580  -0.591  -0.565  0.00  0.00    +0.058 A 
ATOM     20  C   UNL     1       6.718  -1.102  -1.410  0.00  0.00    +0.067 C 
ATOM     21  C   UNL     1       2.141   0.582   0.080  0.00  0.00    +0.069 C 
BRANCH  18  22
ATOM     22  C   UNL     1       6.778  -0.534   1.649  0.00  0.00    +0.101 C 
ATOM     23  C   UNL     1       7.148   0.801   2.297  0.00  0.00    +0.032 C 
ATOM     24  C   UNL     1       6.433  -1.552   2.738  0.00  0.00    +0.032 C 
ENDBRANCH  18  22
ENDBRANCH  13  15
ENDBRANCH   8  13
BRANCH   6  25
ATOM     25  C   UNL     1       3.860   0.058  -5.386  0.00  0.00    +0.141 C 
ATOM     26  C   UNL     1       3.252   1.444  -5.162  0.00  0.00    +0.029 C 
ENDBRANCH   6  25
TORSDOF 5
