REMARK  Name = ZINC09824390
REMARK  6 active torsions:
REMARK  status: ('A' for Active; 'I' for Inactive)
REMARK    1  A    between atoms: C_1  and  C_2
REMARK    2  A    between atoms: N_11  and  C_15
REMARK    3  A    between atoms: C_15  and  C_16
REMARK    4  A    between atoms: N_18  and  C_19
REMARK    5  A    between atoms: C_23  and  S_25
REMARK    6  A    between atoms: S_25  and  N_28
REMARK                            x       y       z     vdW  Elec       q    Type
REMARK                         _______ _______ _______ _____ _____    ______ ____
ROOT
ATOM      1  C   UNL     1      -2.968   0.512   5.588  0.00  0.00    +0.235 C 
ATOM      2  O   UNL     1      -1.787   0.697   5.381  0.00  0.00    -0.274 OA
ATOM      3  N   UNL     1      -3.409   0.315   6.847  0.00  0.00    -0.284 N 
ATOM      4  H   UNL     1      -4.360   0.244   7.022  0.00  0.00    +0.155 HD
ENDROOT
BRANCH   3   5
ATOM      5  C   UNL     1      -2.494   0.213   7.900  0.00  0.00    +0.035 A 
ATOM      6  C   UNL     1      -1.249  -0.366   7.688  0.00  0.00    +0.023 A 
ATOM      7  C   UNL     1      -0.347  -0.461   8.729  0.00  0.00    +0.004 A 
ATOM      8  C   UNL     1      -0.685   0.010   9.984  0.00  0.00    +0.029 A 
ATOM      9  C   UNL     1      -1.925   0.583  10.200  0.00  0.00    +0.110 A 
ATOM     10  C   UNL     1      -2.830   0.685   9.162  0.00  0.00    +0.052 A 
BRANCH   9  11
ATOM     11  S   UNL     1      -2.350   1.181  11.802  0.00  0.00    +0.073 S 
ATOM     12  O   UNL     1      -1.127   1.463  12.469  0.00  0.00    -0.150 OA
ATOM     13  O   UNL     1      -3.359   2.164  11.613  0.00  0.00    -0.150 OA
BRANCH  11  14
ATOM     14  N   UNL     1      -3.058  -0.072  12.621  0.00  0.00    -0.205 N 
ATOM     15  C   UNL     1      -2.327  -1.189  12.929  0.00  0.00    +0.088 C 
ATOM     16  C   UNL     1      -0.569  -2.648  13.085  0.00  0.00    +0.114 C 
ATOM     17  C   UNL     1      -1.823  -3.498  13.399  0.00  0.00    +0.028 C 
ATOM     18  C   UNL     1      -2.867  -2.388  13.677  0.00  0.00    +0.072 C 
ATOM     19  H   UNL     1      -3.990  -0.015  12.883  0.00  0.00    +0.175 HD
ATOM     20  N   UNL     1      -1.077  -1.342  12.615  0.00  0.00    -0.375 N 
ATOM     21  H   UNL     1      -0.516  -0.648  12.108  0.00  0.00    +0.161 HD
ENDBRANCH  11  14
ENDBRANCH   9  11
ENDBRANCH   3   5
BRANCH   1  22
ATOM     22  C   UNL     1      -3.942   0.504   4.439  0.00  0.00    +0.214 C 
BRANCH  22  32
ATOM     23  C   UNL     1      -0.082   1.826   2.647  0.00  0.00    +0.010 C 
ATOM     24  C   UNL     1      -0.857   2.377   1.448  0.00  0.00    +0.018 C 
ATOM     25  C   UNL     1      -0.082   2.084   0.161  0.00  0.00    +0.006 C 
ATOM     26  C   UNL     1      -0.867   2.617  -1.039  0.00  0.00    +0.000 C 
ATOM     27  C   UNL     1      -2.231   1.927  -1.106  0.00  0.00    +0.003 C 
ATOM     28  C   UNL     1      -3.014   2.219   0.176  0.00  0.00    +0.035 C 
ATOM     29  C   UNL     1      -2.227   1.712   1.380  0.00  0.00    +0.115 C 
ATOM     30  C   UNL     1      -2.998   1.960   2.656  0.00  0.00    +0.247 C 
ATOM     31  O   UNL     1      -3.343   3.030   3.109  0.00  0.00    -0.273 OA
ATOM     32  N   UNL     1      -3.221   0.739   3.186  0.00  0.00    -0.215 N 
ATOM     33  C   UNL     1      -2.701  -0.231   2.424  0.00  0.00    +0.310 C 
ATOM     34  O   UNL     1      -2.773  -1.414   2.693  0.00  0.00    -0.252 OA
ATOM     35  N   UNL     1      -2.088   0.252   1.325  0.00  0.00    -0.285 N 
ATOM     36  H   UNL     1      -1.643  -0.264   0.635  0.00  0.00    +0.151 HD
ENDBRANCH  22  32
ENDBRANCH   1  22
TORSDOF 5
