REMARK  Name = ZINC38684681
REMARK  15 active torsions:
REMARK  status: ('A' for Active; 'I' for Inactive)
REMARK    1  A    between atoms: C_1  and  C_2
REMARK    2  A    between atoms: C_2  and  C_4
REMARK    3  A    between atoms: C_2  and  O_33
REMARK    4  A    between atoms: C_4  and  O_6
REMARK    5  A    between atoms: O_6  and  C_7
REMARK    6  A    between atoms: C_14  and  N_32
REMARK    7  A    between atoms: C_15  and  C_30
REMARK    8  A    between atoms: C_16  and  C_18
REMARK    9  A    between atoms: C_22  and  O_24
REMARK   10  A    between atoms: O_24  and  C_25
REMARK   11  A    between atoms: C_25  and  C_26
REMARK   12  A    between atoms: C_26  and  C_27
REMARK   13  A    between atoms: C_27  and  C_28
REMARK   14  A    between atoms: C_27  and  C_29
REMARK   15  A    between atoms: O_33  and  C_34
REMARK                            x       y       z     vdW  Elec       q    Type
REMARK                         _______ _______ _______ _____ _____    ______ ____
ROOT
ATOM      1  C   UNL     1       2.074  -1.230  -2.963  0.00  0.00    +0.135 A 
ATOM      2  C   UNL     1       0.971  -1.568  -3.735  0.00  0.00    +0.047 A 
ATOM      3  C   UNL     1       1.147  -2.204  -4.948  0.00  0.00    +0.012 A 
ATOM      4  C   UNL     1       2.420  -2.506  -5.398  0.00  0.00    +0.008 A 
ATOM      5  C   UNL     1       3.525  -2.170  -4.632  0.00  0.00    +0.138 A 
ATOM      6  C   UNL     1       3.350  -1.525  -3.414  0.00  0.00    +0.093 A 
ATOM      7  O   UNL     1       4.780  -2.458  -5.056  0.00  0.00    -0.441 OA
ATOM      8  C   UNL     1       4.969  -3.389  -6.006  0.00  0.00    +0.199 C 
ATOM      9  C   UNL     1       3.971  -3.785  -6.830  0.00  0.00    +0.098 C 
ATOM     10  C   UNL     1       2.591  -3.199  -6.724  0.00  0.00    +0.098 C 
ENDROOT
BRANCH  10  11
ATOM     11  C   UNL     1       2.384  -2.205  -7.838  0.00  0.00    -0.031 A 
ATOM     12  C   UNL     1       3.204  -1.097  -7.935  0.00  0.00    +0.005 A 
ATOM     13  C   UNL     1       3.017  -0.183  -8.956  0.00  0.00    +0.004 A 
ATOM     14  C   UNL     1       2.009  -0.375  -9.880  0.00  0.00    +0.045 A 
ATOM     15  C   UNL     1       1.185  -1.487  -9.785  0.00  0.00    +0.121 A 
ATOM     16  C   UNL     1       1.379  -2.406  -8.763  0.00  0.00    +0.050 A 
BRANCH  15  17
ATOM     17  O   UNL     1       0.192  -1.679 -10.693  0.00  0.00    -0.492 OA
BRANCH  17  18
ATOM     18  C   UNL     1       0.054  -0.695 -11.721  0.00  0.00    +0.229 C 
BRANCH  18  19
ATOM     19  C   UNL     1      -1.106  -1.078 -12.641  0.00  0.00    +0.044 C 
BRANCH  19  20
ATOM     20  C   UNL     1      -1.253  -0.025 -13.742  0.00  0.00    -0.014 C 
ATOM     21  C   UNL     1      -2.330  -0.471 -14.733  0.00  0.00    +0.007 C 
ATOM     22  C   UNL     1      -1.657   1.312 -13.117  0.00  0.00    +0.007 C 
ENDBRANCH  19  20
ENDBRANCH  18  19
ENDBRANCH  17  18
ENDBRANCH  15  17
ENDBRANCH  10  11
BRANCH   8  23
ATOM     23  N   UNL     1       6.212  -3.955  -6.145  0.00  0.00    -0.328 N 
ATOM     24  H   UNL     1       6.938  -3.681  -5.563  0.00  0.00    +0.145 HD
ATOM     25  H   UNL     1       6.364  -4.629  -6.826  0.00  0.00    +0.145 HD
ENDBRANCH   8  23
BRANCH   9  26
ATOM     26  C   UNL     1       4.235  -4.783  -7.823  0.00  0.00    +0.101 C 
ATOM     27  N   UNL     1       4.444  -5.574  -8.610  0.00  0.00    -0.191 NA
ENDBRANCH   9  26
BRANCH   1  28
ATOM     28  O   UNL     1       1.902  -0.604  -1.768  0.00  0.00    -0.423 OA
BRANCH  28  29
ATOM     29  C   UNL     1       1.495  -1.342  -0.723  0.00  0.00    +0.353 C 
ATOM     30  O   UNL     1       1.343  -2.534  -0.847  0.00  0.00    -0.246 OA
BRANCH  29  32
ATOM     31  C   UNL     1       0.042   0.276   0.469  0.00  0.00    +0.064 C 
ATOM     32  C   UNL     1       1.227  -0.683   0.606  0.00  0.00    +0.279 C 
BRANCH  32  33
ATOM     33  O   UNL     1       0.922  -1.682   1.580  0.00  0.00    -0.475 OA
BRANCH  33  34
ATOM     34  C   UNL     1       1.128  -1.356   2.884  0.00  0.00    +0.157 A 
ATOM     35  C   UNL     1       1.568  -0.085   3.221  0.00  0.00    +0.048 A 
ATOM     36  C   UNL     1       1.777   0.244   4.547  0.00  0.00    +0.004 A 
ATOM     37  C   UNL     1       1.548  -0.693   5.538  0.00  0.00    +0.003 A 
ATOM     38  C   UNL     1       1.110  -1.961   5.206  0.00  0.00    +0.042 A 
ATOM     39  C   UNL     1       0.892  -2.294   3.881  0.00  0.00    +0.165 A 
ATOM     40  F   UNL     1       0.458  -3.532   3.557  0.00  0.00    -0.202 F 
ENDBRANCH  33  34
ENDBRANCH  32  33
ENDBRANCH  29  32
ENDBRANCH  28  29
ENDBRANCH   1  28
TORSDOF 12
