REMARK  Name = ZINC63384611
REMARK  11 active torsions:
REMARK  status: ('A' for Active; 'I' for Inactive)
REMARK    1  A    between atoms: C_1  and  C_2
REMARK    2  A    between atoms: C_9  and  C_35
REMARK    3  A    between atoms: C_10  and  C_17
REMARK    4  A    between atoms: C_15  and  C_16
REMARK    5  A    between atoms: C_17  and  C_18
REMARK    6  A    between atoms: C_18  and  C_19
REMARK    7  A    between atoms: N_21  and  C_22
REMARK    8  A    between atoms: C_22  and  C_23
REMARK    9  A    between atoms: C_23  and  C_24
REMARK   10  A    between atoms: C_27  and  O_33
REMARK   11  A    between atoms: O_33  and  C_34
REMARK                            x       y       z     vdW  Elec       q    Type
REMARK                         _______ _______ _______ _____ _____    ______ ____
ROOT
ATOM      1  C   UNL     1      -1.329  -2.659   7.677  0.00  0.00    +0.100 C 
ENDROOT
BRANCH   1   2
ATOM      2  C   UNL     1      -1.318  -2.518   9.177  0.00  0.00    +0.213 C 
ATOM      3  O   UNL     1      -0.268  -2.357   9.763  0.00  0.00    -0.276 OA
ATOM      4  N   UNL     1      -2.474  -2.572   9.868  0.00  0.00    -0.315 N 
ATOM      5  H   UNL     1      -3.313  -2.701   9.400  0.00  0.00    +0.149 HD
BRANCH   4   6
ATOM      6  C   UNL     1      -2.462  -2.435  11.327  0.00  0.00    +0.108 C 
BRANCH   6   7
ATOM      7  C   UNL     1      -3.893  -2.532  11.860  0.00  0.00    +0.052 C 
BRANCH   7   8
ATOM      8  C   UNL     1      -3.881  -2.391  13.360  0.00  0.00    -0.040 C 
ATOM      9  C   UNL     1      -4.083  -1.259  14.072  0.00  0.00    +0.002 A 
ATOM     10  C   UNL     1      -4.362   0.127  13.680  0.00  0.00    +0.055 A 
ATOM     11  C   UNL     1      -4.520   1.072  14.638  0.00  0.00    +0.121 A 
ATOM     12  C   UNL     1      -4.426   0.774  16.009  0.00  0.00    +0.047 A 
ATOM     13  C   UNL     1      -4.173  -0.470  16.467  0.00  0.00    +0.029 A 
ATOM     14  C   UNL     1      -3.985  -1.571  15.516  0.00  0.00    +0.043 A 
ATOM     15  N   UNL     1      -3.732  -2.845  15.690  0.00  0.00    -0.380 N 
ATOM     16  C   UNL     1      -3.648  -3.488  14.374  0.00  0.00    +0.144 C 
ATOM     17  H   UNL     1      -3.623  -3.289  16.546  0.00  0.00    +0.160 HD
BRANCH  11  18
ATOM     18  O   UNL     1      -4.777   2.352  14.260  0.00  0.00    -0.495 OA
ATOM     19  C   UNL     1      -4.937   3.316  15.303  0.00  0.00    +0.277 C 
ENDBRANCH  11  18
ENDBRANCH   7   8
ENDBRANCH   6   7
ENDBRANCH   4   6
ENDBRANCH   1   2
BRANCH   1  20
ATOM     20  C   UNL     1       0.102  -2.562   7.144  0.00  0.00    +0.052 C 
BRANCH  20  30
ATOM     21  C   UNL     1      -0.018   1.503   0.010  0.00  0.00    +0.047 C 
ATOM     22  C   UNL     1       0.002  -0.004   0.002  0.00  0.00    -0.005 A 
ATOM     23  C   UNL     1       0.009  -0.802  -1.073  0.00  0.00    +0.199 A 
ATOM     24  O   UNL     1       0.028  -2.093  -0.695  0.00  0.00    -0.462 OA
ATOM     25  C   UNL     1       0.035  -2.202   0.649  0.00  0.00    +0.141 A 
ATOM     26  C   UNL     1       0.025  -0.893   1.172  0.00  0.00    +0.024 A 
ATOM     27  C   UNL     1       0.035  -0.683   2.544  0.00  0.00    +0.023 A 
ATOM     28  C   UNL     1       0.058  -1.782   3.403  0.00  0.00    +0.022 A 
ATOM     29  C   UNL     1       0.068  -1.597   4.857  0.00  0.00    -0.030 A 
ATOM     30  C   UNL     1       0.090  -2.703   5.644  0.00  0.00    +0.041 A 
ATOM     31  C   UNL     1       0.102  -3.985   5.054  0.00  0.00    +0.341 A 
ATOM     32  O   UNL     1       0.121  -4.968   5.772  0.00  0.00    -0.245 OA
ATOM     33  O   UNL     1       0.092  -4.149   3.722  0.00  0.00    -0.422 OA
ATOM     34  C   UNL     1       0.071  -3.092   2.879  0.00  0.00    +0.146 A 
ATOM     35  C   UNL     1       0.053  -3.290   1.510  0.00  0.00    +0.035 A 
ATOM     36  C   UNL     1       0.070  -4.690   0.952  0.00  0.00    +0.051 C 
ATOM     37  C   UNL     1       0.056  -0.217   5.462  0.00  0.00    +0.045 C 
ENDBRANCH  20  30
ENDBRANCH   1  20
TORSDOF 7
