REMARK  Name = ZINC05247177
REMARK  9 active torsions:
REMARK  status: ('A' for Active; 'I' for Inactive)
REMARK    1  A    between atoms: C_1  and  C_2
REMARK    2  A    between atoms: C_2  and  N_3
REMARK    3  A    between atoms: N_3  and  C_4
REMARK    4  A    between atoms: N_3  and  C_6
REMARK    5  A    between atoms: C_4  and  C_5
REMARK    6  A    between atoms: C_9  and  C_12
REMARK    7  A    between atoms: C_21  and  C_29
REMARK    8  A    between atoms: C_23  and  C_24
REMARK    9  A    between atoms: C_23  and  C_26
REMARK                            x       y       z     vdW  Elec       q    Type
REMARK                         _______ _______ _______ _____ _____    ______ ____
ROOT
ATOM      1  C   UNL     1       2.222   3.700  -0.996  0.00  0.00    +0.066 C 
ATOM      2  C   UNL     1       0.918   3.246  -0.338  0.00  0.00    +0.027 C 
ATOM      3  C   UNL     1      -0.286   3.956  -0.909  0.00  0.00    +0.009 C 
ATOM      4  C   UNL     1      -1.033   3.092  -1.922  0.00  0.00    +0.005 C 
ATOM      5  C   UNL     1      -1.464   1.795  -1.230  0.00  0.00    +0.027 C 
ATOM      6  C   UNL     1      -0.219   1.077  -0.778  0.00  0.00    -0.026 C 
ATOM      7  C   UNL     1       0.853   1.749  -0.406  0.00  0.00    -0.047 C 
ATOM      8  C   UNL     1       2.084   1.007  -0.028  0.00  0.00    +0.164 C 
ATOM      9  C   UNL     1       3.262   1.675   0.054  0.00  0.00    +0.065 C 
ATOM     10  C   UNL     1       3.400   3.148  -0.192  0.00  0.00    +0.188 C 
ATOM     11  N   UNL     1       4.385   0.968   0.379  0.00  0.00    -0.304 NA
ATOM     12  H   UNL     1       4.326   0.014   0.544  0.00  0.00    +0.186 HD
ENDROOT
BRANCH   1  16
ATOM     13  C   UNL     1       2.393   7.970  -1.035  0.00  0.00    +0.030 A 
ATOM     14  C   UNL     1       1.980   7.301   0.110  0.00  0.00    +0.023 A 
ATOM     15  C   UNL     1       1.926   5.921   0.119  0.00  0.00    +0.006 A 
ATOM     16  C   UNL     1       2.282   5.206  -1.010  0.00  0.00    -0.041 A 
ATOM     17  C   UNL     1       2.699   5.869  -2.149  0.00  0.00    +0.006 A 
ATOM     18  C   UNL     1       2.750   7.249  -2.167  0.00  0.00    +0.023 A 
BRANCH  13  19
ATOM     19  N   UNL     1       2.449   9.366  -1.048  0.00  0.00    -0.330 N 
BRANCH  19  21
ATOM     20  C   UNL     1       1.671  10.367  -3.140  0.00  0.00    +0.024 C 
ATOM     21  C   UNL     1       2.885  10.070  -2.257  0.00  0.00    +0.102 C 
ENDBRANCH  19  21
BRANCH  19  22
ATOM     22  C   UNL     1       2.073  10.125   0.147  0.00  0.00    +0.102 C 
ATOM     23  C   UNL     1       3.307  10.339   1.025  0.00  0.00    +0.024 C 
ENDBRANCH  19  22
ENDBRANCH  13  19
ENDBRANCH   1  16
BRANCH  10  24
ATOM     24  C   UNL     1       3.467   3.846   1.102  0.00  0.00    +0.091 C 
ATOM     25  N   UNL     1       3.519   4.385   2.100  0.00  0.00    -0.195 NA
ENDBRANCH  10  24
BRANCH  10  26
ATOM     26  C   UNL     1       4.645   3.396  -0.936  0.00  0.00    +0.091 C 
ATOM     27  N   UNL     1       5.606   3.587  -1.511  0.00  0.00    -0.195 NA
ENDBRANCH  10  26
BRANCH   8  28
ATOM     28  C   UNL     1       2.028  -0.398   0.246  0.00  0.00    +0.076 C 
ATOM     29  N   UNL     1       1.984  -1.512   0.464  0.00  0.00    -0.196 NA
ENDBRANCH   8  28
TORSDOF 7
