REMARK  Name = ZINC01074088
REMARK  8 active torsions:
REMARK  status: ('A' for Active; 'I' for Inactive)
REMARK    1  A    between atoms: C_1  and  C_2
REMARK    2  A    between atoms: C_2  and  C_3
REMARK    3  A    between atoms: C_6  and  C_8
REMARK    4  A    between atoms: C_10  and  C_18
REMARK    5  A    between atoms: N_20  and  C_21
REMARK    6  A    between atoms: C_22  and  C_28
REMARK    7  A    between atoms: C_23  and  C_27
REMARK    8  A    between atoms: C_24  and  C_26
REMARK                            x       y       z     vdW  Elec       q    Type
REMARK                         _______ _______ _______ _____ _____    ______ ____
ROOT
ATOM      1  C   UNL     1      -3.261   2.122  -4.477  0.00  0.00    +0.079 A 
ATOM      2  C   UNL     1      -4.149   1.046  -4.652  0.00  0.00    +0.042 A 
ATOM      3  C   UNL     1      -5.046   1.069  -5.708  0.00  0.00    +0.048 A 
ATOM      4  C   UNL     1      -5.006   2.229  -6.600  0.00  0.00    +0.013 A 
ATOM      5  C   UNL     1      -5.869   2.338  -7.696  0.00  0.00    +0.011 A 
ATOM      6  C   UNL     1      -5.798   3.435  -8.503  0.00  0.00    +0.001 A 
ATOM      7  C   UNL     1      -4.878   4.449  -8.249  0.00  0.00    +0.002 A 
ATOM      8  C   UNL     1      -4.024   4.375  -7.191  0.00  0.00    +0.028 A 
ATOM      9  C   UNL     1      -4.068   3.258  -6.337  0.00  0.00    +0.072 A 
ATOM     10  N   UNL     1      -3.242   3.158  -5.293  0.00  0.00    -0.246 NA
ENDROOT
BRANCH   1  14
ATOM     11  C   UNL     1      -0.783   1.614  -1.177  0.00  0.00    -0.010 A 
ATOM     12  C   UNL     1      -0.593   2.765  -1.875  0.00  0.00    +0.012 A 
ATOM     13  C   UNL     1      -1.366   3.011  -2.985  0.00  0.00    +0.018 A 
ATOM     14  C   UNL     1      -2.314   2.088  -3.346  0.00  0.00    +0.038 A 
ATOM     15  S   UNL     1      -2.105   0.836  -2.091  0.00  0.00    -0.092 S 
BRANCH  11  17
ATOM     16  C   UNL     1      -0.794   1.628   1.303  0.00  0.00    +0.009 C 
ATOM     17  C   UNL     1      -0.067   1.123   0.055  0.00  0.00    +0.039 C 
ENDBRANCH  11  17
ENDBRANCH   1  14
BRANCH   3  18
ATOM     18  C   UNL     1      -6.002  -0.037  -5.929  0.00  0.00    +0.249 C 
ATOM     19  O   UNL     1      -6.847   0.054  -6.798  0.00  0.00    -0.270 OA
ATOM     20  N   UNL     1      -5.936  -1.147  -5.167  0.00  0.00    -0.275 N 
ATOM     21  H   UNL     1      -5.261  -1.220  -4.473  0.00  0.00    +0.156 HD
BRANCH  20  22
ATOM     22  C   UNL     1      -6.831  -2.183  -5.374  0.00  0.00    +0.085 A 
ATOM     23  C   UNL     1      -6.921  -3.395  -4.698  0.00  0.00    +0.068 A 
ATOM     24  C   UNL     1      -7.960  -4.301  -5.125  0.00  0.00    -0.027 A 
ATOM     25  C   UNL     1      -8.749  -3.897  -6.137  0.00  0.00    -0.008 A 
ATOM     26  S   UNL     1      -8.114  -2.281  -6.532  0.00  0.00    -0.078 S 
ATOM     27  C   UNL     1      -9.899  -4.633  -6.777  0.00  0.00    +0.052 C 
ATOM     28  C   UNL     1      -8.153  -5.642  -4.465  0.00  0.00    +0.045 C 
BRANCH  23  29
ATOM     29  C   UNL     1      -6.005  -3.736  -3.604  0.00  0.00    +0.244 C 
ATOM     30  O   UNL     1      -6.290  -3.441  -2.458  0.00  0.00    -0.270 OA
ATOM     31  N   UNL     1      -4.848  -4.374  -3.869  0.00  0.00    -0.325 N 
ATOM     32  H   UNL     1      -4.622  -4.609  -4.783  0.00  0.00    +0.145 HD
ATOM     33  H   UNL     1      -4.242  -4.600  -3.146  0.00  0.00    +0.145 HD
ENDBRANCH  23  29
ENDBRANCH  20  22
ENDBRANCH   3  18
TORSDOF 5
