REMARK  Name = ZINC65074684
REMARK  4 active torsions:
REMARK  status: ('A' for Active; 'I' for Inactive)
REMARK    1  A    between atoms: C_4  and  S_7
REMARK    2  A    between atoms: S_7  and  N_10
REMARK    3  A    between atoms: N_21  and  C_22
REMARK    4  A    between atoms: C_22  and  C_23
REMARK                            x       y       z     vdW  Elec       q    Type
REMARK                         _______ _______ _______ _____ _____    ______ ____
ROOT
ATOM      1  N   UNL     1       4.378  -1.079   1.536  0.00  0.00    -0.176 NA
ATOM      2  C   UNL     1       5.190  -0.084   2.249  0.00  0.00    +0.111 C 
ATOM      3  C   UNL     1       4.477   0.293   3.551  0.00  0.00    +0.047 C 
ATOM      4  C   UNL     1       4.189  -0.976   4.358  0.00  0.00    +0.075 C 
ATOM      5  C   UNL     1       3.266  -1.893   3.550  0.00  0.00    +0.047 C 
ATOM      6  C   UNL     1       3.961  -2.293   2.250  0.00  0.00    +0.111 C 
ATOM      7  C   UNL     1       3.521  -0.608   5.652  0.00  0.00    +0.089 C 
ATOM      8  N   UNL     1       3.833  -1.123   6.781  0.00  0.00    -0.374 N 
ATOM      9  C   UNL     1       4.880  -2.124   6.954  0.00  0.00    +0.129 C 
ATOM     10  C   UNL     1       5.230  -2.756   5.604  0.00  0.00    +0.102 C 
ATOM     11  N   UNL     1       5.453  -1.676   4.628  0.00  0.00    -0.303 NA
ATOM     12  N   UNL     1       2.525   0.332   5.623  0.00  0.00    -0.329 N 
ATOM     13  H   UNL     1       5.856  -2.037   3.776  0.00  0.00    +0.123 HD
ATOM     14  H   UNL     1       2.267   0.740   4.781  0.00  0.00    +0.147 HD
ATOM     15  H   UNL     1       3.346  -0.831   7.567  0.00  0.00    +0.161 HD
ENDROOT
BRANCH   1  16
ATOM     16  S   UNL     1       3.934  -0.832  -0.041  0.00  0.00    +0.061 S 
ATOM     17  O   UNL     1       3.674  -2.114  -0.595  0.00  0.00    -0.153 OA
ATOM     18  O   UNL     1       4.890   0.060  -0.597  0.00  0.00    -0.153 OA
BRANCH  16  22
ATOM     19  C   UNL     1      -0.017   1.378   0.010  0.00  0.00    +0.000 A 
ATOM     20  C   UNL     1       1.171   2.086   0.002  0.00  0.00    +0.002 A 
ATOM     21  C   UNL     1       2.377   1.411  -0.013  0.00  0.00    +0.028 A 
ATOM     22  C   UNL     1       2.396   0.029  -0.020  0.00  0.00    +0.105 A 
ATOM     23  C   UNL     1       1.208  -0.679  -0.012  0.00  0.00    +0.028 A 
ATOM     24  C   UNL     1       0.002  -0.004   0.002  0.00  0.00    +0.002 A 
ENDBRANCH  16  22
ENDBRANCH   1  16
BRANCH  12  25
ATOM     25  C   UNL     1       1.847   0.721   6.862  0.00  0.00    +0.138 C 
BRANCH  25  26
ATOM     26  C   UNL     1       0.801   1.761   6.558  0.00  0.00    -0.030 A 
ATOM     27  C   UNL     1       1.133   3.103   6.584  0.00  0.00    +0.008 A 
ATOM     28  C   UNL     1       0.174   4.058   6.305  0.00  0.00    +0.038 A 
ATOM     29  C   UNL     1      -1.120   3.671   5.998  0.00  0.00    +0.123 A 
ATOM     30  C   UNL     1      -1.451   2.327   5.972  0.00  0.00    +0.038 A 
ATOM     31  C   UNL     1      -0.489   1.373   6.247  0.00  0.00    +0.008 A 
ATOM     32  F   UNL     1      -2.058   4.604   5.725  0.00  0.00    -0.205 F 
ENDBRANCH  25  26
ENDBRANCH  12  25
TORSDOF 4
