REMARK  Name = ZINC35636215
REMARK  10 active torsions:
REMARK  status: ('A' for Active; 'I' for Inactive)
REMARK    1  A    between atoms: C_1  and  C_2
REMARK    2  A    between atoms: C_2  and  N_3
REMARK    3  A    between atoms: C_6  and  C_11
REMARK    4  A    between atoms: C_15  and  O_17
REMARK    5  A    between atoms: O_17  and  C_18
REMARK    6  A    between atoms: N_26  and  C_28
REMARK    7  A    between atoms: C_28  and  C_30
REMARK    8  A    between atoms: C_28  and  C_31
REMARK    9  A    between atoms: N_33  and  C_34
REMARK   10  A    between atoms: C_34  and  C_35
REMARK                            x       y       z     vdW  Elec       q    Type
REMARK                         _______ _______ _______ _____ _____    ______ ____
ROOT
ATOM      1  N   UNL     1      -1.384  -0.472   0.220  0.00  0.00    -0.257 N 
ATOM      2  C   UNL     1      -1.974  -0.762   1.417  0.00  0.00    +0.042 C 
ATOM      3  C   UNL     1      -3.235  -1.234   1.479  0.00  0.00    +0.058 C 
ATOM      4  C   UNL     1      -3.978  -1.432   0.173  0.00  0.00    +0.142 C 
ATOM      5  N   UNL     1      -3.255  -1.090  -1.064  0.00  0.00    -0.288 N 
ATOM      6  C   UNL     1      -1.995  -0.623  -0.963  0.00  0.00    +0.307 C 
ATOM      7  O   UNL     1      -1.392  -0.334  -1.978  0.00  0.00    -0.252 OA
ATOM      8  C   UNL     1      -3.611  -1.454   2.820  0.00  0.00    +0.247 C 
ATOM      9  O   UNL     1      -4.697  -1.879   3.169  0.00  0.00    -0.270 OA
ATOM     10  N   UNL     1      -2.613  -1.134   3.663  0.00  0.00    -0.281 N 
ATOM     11  C   UNL     1      -1.485  -0.666   2.845  0.00  0.00    +0.160 C 
ATOM     12  H   UNL     1      -3.678  -1.196  -1.931  0.00  0.00    +0.151 HD
ENDROOT
BRANCH   4  13
ATOM     13  C   UNL     1      -4.387  -2.880   0.086  0.00  0.00    -0.019 A 
ATOM     14  C   UNL     1      -3.466  -3.836  -0.304  0.00  0.00    +0.006 A 
ATOM     15  C   UNL     1      -3.838  -5.165  -0.384  0.00  0.00    +0.004 A 
ATOM     16  C   UNL     1      -5.131  -5.542  -0.075  0.00  0.00    +0.046 A 
ATOM     17  C   UNL     1      -6.056  -4.585   0.316  0.00  0.00    +0.129 A 
ATOM     18  C   UNL     1      -5.679  -3.252   0.402  0.00  0.00    +0.052 A 
BRANCH  17  19
ATOM     19  O   UNL     1      -7.329  -4.953   0.621  0.00  0.00    -0.456 OA
BRANCH  19  20
ATOM     20  C   UNL     1      -8.327  -4.539  -0.203  0.00  0.00    +0.128 A 
ATOM     21  C   UNL     1      -8.023  -3.879  -1.385  0.00  0.00    +0.046 A 
ATOM     22  C   UNL     1      -9.040  -3.459  -2.221  0.00  0.00    +0.004 A 
ATOM     23  C   UNL     1     -10.359  -3.696  -1.881  0.00  0.00    +0.000 A 
ATOM     24  C   UNL     1     -10.664  -4.354  -0.703  0.00  0.00    +0.004 A 
ATOM     25  C   UNL     1      -9.651  -4.781   0.133  0.00  0.00    +0.046 A 
ENDBRANCH  19  20
ENDBRANCH  17  19
ENDBRANCH   4  13
BRANCH   1  27
ATOM     26  C   UNL     1      -0.035   1.565   0.319  0.00  0.00    +0.025 C 
ATOM     27  C   UNL     1      -0.011   0.038   0.229  0.00  0.00    +0.111 C 
ENDBRANCH   1  27
BRANCH  10  28
ATOM     28  C   UNL     1      -2.645  -1.232   5.124  0.00  0.00    +0.159 C 
ATOM     29  C   UNL     1      -3.766  -0.347   5.671  0.00  0.00    +0.038 C 
BRANCH  28  30
ATOM     30  C   UNL     1      -2.894  -2.663   5.526  0.00  0.00    +0.233 C 
ATOM     31  O   UNL     1      -3.031  -3.517   4.675  0.00  0.00    -0.274 OA
ATOM     32  N   UNL     1      -2.964  -2.995   6.830  0.00  0.00    -0.311 N 
ATOM     33  H   UNL     1      -2.854  -2.312   7.511  0.00  0.00    +0.149 HD
BRANCH  32  34
ATOM     34  C   UNL     1      -3.205  -4.386   7.221  0.00  0.00    +0.135 C 
BRANCH  34  35
ATOM     35  C   UNL     1      -3.239  -4.489   8.747  0.00  0.00    +0.135 C 
ATOM     36  C   UNL     1      -3.372  -5.968   9.169  0.00  0.00    +0.035 C 
ATOM     37  C   UNL     1      -4.345  -5.880  10.376  0.00  0.00    +0.031 C 
ATOM     38  C   UNL     1      -5.253  -4.704   9.937  0.00  0.00    +0.160 C 
ATOM     39  O   UNL     1      -4.378  -3.787   9.257  0.00  0.00    -0.375 OA
ENDBRANCH  34  35
ENDBRANCH  32  34
ENDBRANCH  28  30
ENDBRANCH  10  28
TORSDOF 8
