REMARK  Name = ZINC21501034
REMARK  4 active torsions:
REMARK  status: ('A' for Active; 'I' for Inactive)
REMARK    1  A    between atoms: C_1  and  C_2
REMARK    2  A    between atoms: C_11  and  O_13
REMARK    3  A    between atoms: O_13  and  C_14
REMARK    4  A    between atoms: C_17  and  N_21
REMARK                            x       y       z     vdW  Elec       q    Type
REMARK                         _______ _______ _______ _____ _____    ______ ____
ROOT
ATOM      1  C   UNL     1      -3.410   9.995   0.508  0.00  0.00    +0.045 C 
ATOM      2  C   UNL     1      -4.711   9.234   0.508  0.00  0.00    -0.033 A 
ATOM      3  C   UNL     1      -5.899   9.883   0.622  0.00  0.00    +0.096 A 
ATOM      4  C   UNL     1      -7.103   9.148   0.619  0.00  0.00    +0.337 A 
ATOM      5  O   UNL     1      -8.161   9.743   0.721  0.00  0.00    -0.245 OA
ATOM      6  O   UNL     1      -7.112   7.811   0.508  0.00  0.00    -0.422 OA
ATOM      7  C   UNL     1      -5.967   7.105   0.392  0.00  0.00    +0.143 A 
ATOM      8  C   UNL     1      -4.729   7.774   0.387  0.00  0.00    +0.021 A 
ATOM      9  C   UNL     1      -3.539   7.047   0.266  0.00  0.00    +0.015 A 
ATOM     10  C   UNL     1      -3.584   5.687   0.160  0.00  0.00    +0.047 A 
ATOM     11  C   UNL     1      -4.807   5.019   0.159  0.00  0.00    +0.132 A 
ATOM     12  C   UNL     1      -5.995   5.724   0.277  0.00  0.00    +0.093 A 
ENDROOT
BRANCH  11  13
ATOM     13  O   UNL     1      -4.835   3.667   0.046  0.00  0.00    -0.454 OA
BRANCH  13  14
ATOM     14  C   UNL     1      -3.649   3.001   0.051  0.00  0.00    +0.147 A 
ATOM     15  C   UNL     1      -3.075   2.599  -1.146  0.00  0.00    +0.049 A 
ATOM     16  C   UNL     1      -1.868   1.928  -1.143  0.00  0.00    +0.026 A 
ATOM     17  C   UNL     1      -1.234   1.645   0.060  0.00  0.00    +0.026 A 
ATOM     18  C   UNL     1      -1.809   2.047   1.258  0.00  0.00    +0.046 A 
ATOM     19  C   UNL     1      -3.014   2.724   1.253  0.00  0.00    +0.085 A 
ATOM     20 CL   UNL     1      -3.733   3.227   2.751  0.00  0.00    -0.080 Cl
BRANCH  17  21
ATOM     21  N   UNL     1      -0.014   0.961   0.063  0.00  0.00    -0.358 N 
ATOM     22  H   UNL     1       0.488   0.737   1.016  0.00  0.00    +0.142 HD
ATOM     23  H   UNL     1       0.443   0.646  -0.886  0.00  0.00    +0.142 HD
ENDBRANCH  17  21
ENDBRANCH  13  14
ENDBRANCH  11  13
TORSDOF 3
