REMARK  Name = ZINC39324791
REMARK  9 active torsions:
REMARK  status: ('A' for Active; 'I' for Inactive)
REMARK    1  A    between atoms: C_1  and  O_2
REMARK    2  A    between atoms: O_2  and  C_3
REMARK    3  A    between atoms: C_3  and  C_5
REMARK    4  A    between atoms: C_8  and  S_11
REMARK    5  A    between atoms: S_11  and  N_14
REMARK    6  A    between atoms: N_14  and  C_15
REMARK    7  A    between atoms: N_14  and  C_21
REMARK    8  A    between atoms: C_15  and  C_16
REMARK    9  A    between atoms: C_21  and  C_22
REMARK                            x       y       z     vdW  Elec       q    Type
REMARK                         _______ _______ _______ _____ _____    ______ ____
ROOT
ATOM      1  N   UNL     1      -1.170  -6.924   1.406  0.00  0.00    -0.168 NA
ENDROOT
BRANCH   1   2
ATOM      2  S   UNL     1      -1.016  -6.290  -0.116  0.00  0.00    +0.061 S 
ATOM      3  O   UNL     1      -2.171  -6.690  -0.841  0.00  0.00    -0.153 OA
ATOM      4  O   UNL     1       0.301  -6.595  -0.552  0.00  0.00    -0.153 OA
BRANCH   2   8
ATOM      5  C   UNL     1      -1.236  -1.781   0.283  0.00  0.00    +0.059 A 
ATOM      6  C   UNL     1       0.004  -2.423   0.255  0.00  0.00    +0.017 A 
ATOM      7  C   UNL     1       0.063  -3.796   0.133  0.00  0.00    +0.029 A 
ATOM      8  C   UNL     1      -1.102  -4.536   0.039  0.00  0.00    +0.106 A 
ATOM      9  C   UNL     1      -2.333  -3.907   0.067  0.00  0.00    +0.029 A 
ATOM     10  C   UNL     1      -2.408  -2.535   0.194  0.00  0.00    +0.017 A 
BRANCH   5  11
ATOM     11  C   UNL     1      -1.307  -0.311   0.414  0.00  0.00    +0.339 C 
ATOM     12  O   UNL     1      -2.387   0.244   0.443  0.00  0.00    -0.245 OA
BRANCH  11  14
ATOM     13  C   UNL     1      -0.319   1.829   0.624  0.00  0.00    +0.280 C 
ATOM     14  O   UNL     1      -0.175   0.413   0.500  0.00  0.00    -0.464 OA
ENDBRANCH  11  14
ENDBRANCH   5  11
ENDBRANCH   2   8
ENDBRANCH   1   2
BRANCH   1  15
ATOM     15  C   UNL     1      -2.500  -7.105   1.993  0.00  0.00    +0.183 C 
BRANCH  15  16
ATOM     16  C   UNL     1      -2.970  -8.516   1.748  0.00  0.00    +0.120 A 
ATOM     17  C   UNL     1      -2.762  -9.567   2.561  0.00  0.00    +0.046 A 
ATOM     18  C   UNL     1      -3.369 -10.686   1.947  0.00  0.00    +0.041 A 
ATOM     19  C   UNL     1      -3.912 -10.252   0.796  0.00  0.00    +0.195 A 
ATOM     20  O   UNL     1      -3.672  -8.935   0.683  0.00  0.00    -0.466 OA
ENDBRANCH  15  16
ENDBRANCH   1  15
BRANCH   1  21
ATOM     21  C   UNL     1       0.024  -7.304   2.165  0.00  0.00    +0.126 C 
BRANCH  21  22
ATOM     22  C   UNL     1       0.099  -6.473   3.447  0.00  0.00    +0.114 C 
ATOM     23  C   UNL     1       1.319  -6.927   4.224  0.00  0.00    -0.003 C 
ATOM     24  C   UNL     1       2.259  -5.987   4.517  0.00  0.00    -0.003 A 
ATOM     25  C   UNL     1       3.466  -6.344   5.265  0.00  0.00    +0.059 A 
ATOM     26  C   UNL     1       4.384  -5.382   5.542  0.00  0.00    +0.167 A 
ATOM     27  C   UNL     1       4.194  -4.048   5.122  0.00  0.00    +0.168 A 
ATOM     28  C   UNL     1       3.075  -3.662   4.415  0.00  0.00    +0.073 A 
ATOM     29  C   UNL     1       2.078  -4.589   4.087  0.00  0.00    +0.044 A 
ATOM     30  N   UNL     1       1.002  -4.194   3.401  0.00  0.00    -0.284 N 
ATOM     31  C   UNL     1       0.025  -5.014   3.060  0.00  0.00    +0.225 C 
ATOM     32  O   UNL     1      -0.932  -4.596   2.435  0.00  0.00    -0.275 OA
ATOM     33  O   UNL     1       5.267  -3.315   5.538  0.00  0.00    -0.453 OA
ATOM     34  C   UNL     1       5.901  -4.100   6.563  0.00  0.00    +0.466 C 
ATOM     35  O   UNL     1       5.572  -5.457   6.215  0.00  0.00    -0.453 OA
ATOM     36  H   UNL     1       0.935  -3.261   3.143  0.00  0.00    +0.155 HD
ENDBRANCH  21  22
ENDBRANCH   1  21
TORSDOF 8
