REMARK  Name = ZINC14920820
REMARK  9 active torsions:
REMARK  status: ('A' for Active; 'I' for Inactive)
REMARK    1  A    between atoms: C_1  and  N_2
REMARK    2  A    between atoms: N_2  and  C_3
REMARK    3  A    between atoms: N_2  and  C_4
REMARK    4  A    between atoms: C_7  and  N_24
REMARK    5  A    between atoms: C_9  and  C_10
REMARK    6  A    between atoms: N_11  and  N_12
REMARK    7  A    between atoms: C_13  and  C_15
REMARK    8  A    between atoms: C_15  and  N_16
REMARK    9  A    between atoms: N_16  and  C_17
REMARK                            x       y       z     vdW  Elec       q    Type
REMARK                         _______ _______ _______ _____ _____    ______ ____
ROOT
ATOM      1  C   UNL     1      -0.530   1.435  -4.763  0.00  0.00    +0.140 C 
ATOM      2  N   UNL     1      -0.966   1.736  -3.578  0.00  0.00    -0.188 NA
ENDROOT
BRANCH   1   8
ATOM      3  C   UNL     1      -2.393   2.714  -5.817  0.00  0.00    +0.038 A 
ATOM      4  C   UNL     1      -3.056   3.168  -6.949  0.00  0.00    +0.026 A 
ATOM      5  C   UNL     1      -2.583   2.842  -8.205  0.00  0.00    +0.034 A 
ATOM      6  C   UNL     1      -1.448   2.062  -8.347  0.00  0.00    +0.127 A 
ATOM      7  C   UNL     1      -0.773   1.607  -7.233  0.00  0.00    +0.044 A 
ATOM      8  C   UNL     1      -1.242   1.923  -5.957  0.00  0.00    +0.018 A 
BRANCH   3  10
ATOM      9  C   UNL     1      -2.890   4.497  -4.355  0.00  0.00    +0.129 C 
ATOM     10  N   UNL     1      -2.868   3.042  -4.549  0.00  0.00    -0.336 N 
ATOM     11  C   UNL     1      -4.197   2.460  -4.319  0.00  0.00    +0.129 C 
ENDBRANCH   3  10
BRANCH   6  12
ATOM     12  N   UNL     1      -0.952   1.720  -9.699  0.00  0.00    +0.056 N 
ATOM     13  O   UNL     1      -1.543   2.125 -10.684  0.00  0.00    -0.126 OA
ATOM     14  O   UNL     1       0.046   1.034  -9.826  0.00  0.00    -0.126 OA
ENDBRANCH   6  12
ENDBRANCH   1   8
BRANCH   2  15
ATOM     15  N   UNL     1      -0.288   1.272  -2.443  0.00  0.00    -0.206 N 
ATOM     16  C   UNL     1      -0.742   1.585  -1.213  0.00  0.00    +0.249 C 
ATOM     17  O   UNL     1      -1.736   2.268  -1.088  0.00  0.00    -0.272 OA
ATOM     18  H   UNL     1       0.507   0.726  -2.543  0.00  0.00    +0.177 HD
BRANCH  16  19
ATOM     19  C   UNL     1      -0.013   1.086   0.008  0.00  0.00    +0.199 C 
BRANCH  19  20
ATOM     20  N   UNL     1      -0.698   1.558   1.213  0.00  0.00    -0.335 N 
ATOM     21  H   UNL     1      -1.495   2.106   1.135  0.00  0.00    +0.147 HD
BRANCH  20  22
ATOM     22  C   UNL     1      -0.204   1.220   2.476  0.00  0.00    +0.041 A 
ATOM     23  C   UNL     1       0.933   0.432   2.590  0.00  0.00    +0.024 A 
ATOM     24  C   UNL     1       1.422   0.104   3.839  0.00  0.00    +0.002 A 
ATOM     25  C   UNL     1       0.774   0.551   4.976  0.00  0.00    +0.001 A 
ATOM     26  C   UNL     1      -0.362   1.332   4.867  0.00  0.00    +0.016 A 
ATOM     27  C   UNL     1      -0.854   1.668   3.620  0.00  0.00    +0.034 A 
ATOM     28  I   UNL     1      -2.576   2.849   3.455  0.00  0.00    -0.042 I 
ENDBRANCH  20  22
ENDBRANCH  19  20
ENDBRANCH  16  19
ENDBRANCH   2  15
TORSDOF 7
