REMARK  Name = ZINC39948575
REMARK  12 active torsions:
REMARK  status: ('A' for Active; 'I' for Inactive)
REMARK    1  A    between atoms: C_1  and  C_2
REMARK    2  A    between atoms: C_2  and  O_3
REMARK    3  A    between atoms: O_3  and  C_4
REMARK    4  A    between atoms: C_4  and  C_6
REMARK    5  A    between atoms: C_7  and  C_37
REMARK    6  A    between atoms: C_9  and  N_12
REMARK    7  A    between atoms: N_12  and  C_13
REMARK    8  A    between atoms: C_13  and  C_14
REMARK    9  A    between atoms: C_20  and  C_22
REMARK   10  A    between atoms: C_22  and  O_23
REMARK   11  A    between atoms: O_23  and  C_24
REMARK   12  A    between atoms: C_24  and  C_26
REMARK                            x       y       z     vdW  Elec       q    Type
REMARK                         _______ _______ _______ _____ _____    ______ ____
ROOT
ATOM      1  N   UNL     1       1.903  -3.144  -6.313  0.00  0.00    -0.267 N 
ATOM      2  C   UNL     1       0.715  -3.738  -6.542  0.00  0.00    +0.256 C 
ATOM      3  O   UNL     1       0.269  -4.529  -5.739  0.00  0.00    -0.272 OA
ENDROOT
BRANCH   1   7
ATOM      4  C   UNL     1       1.472  -3.054  -2.588  0.00  0.00    +0.112 C 
ATOM      5  C   UNL     1       1.507  -4.295  -3.124  0.00  0.00    +0.023 C 
ATOM      6  N   UNL     1       2.049  -4.543  -4.333  0.00  0.00    -0.320 N 
ATOM      7  C   UNL     1       2.608  -3.378  -5.050  0.00  0.00    +0.227 C 
ATOM      8  S   UNL     1       2.252  -2.042  -3.836  0.00  0.00    -0.075 S 
ATOM      9  C   UNL     1       0.921  -5.442  -2.341  0.00  0.00    +0.062 C 
ATOM     10  H   UNL     1       2.071  -5.436  -4.710  0.00  0.00    +0.148 HD
BRANCH   4  11
ATOM     11  C   UNL     1       0.939  -2.652  -1.339  0.00  0.00    +0.347 C 
ATOM     12  O   UNL     1       0.338  -3.454  -0.647  0.00  0.00    -0.244 OA
BRANCH  11  13
ATOM     13  O   UNL     1       1.097  -1.381  -0.915  0.00  0.00    -0.461 OA
BRANCH  13  15
ATOM     14  C   UNL     1       0.812   0.428   0.663  0.00  0.00    +0.048 C 
ATOM     15  C   UNL     1       0.534  -1.045   0.354  0.00  0.00    +0.229 C 
ENDBRANCH  13  15
ENDBRANCH  11  13
ENDBRANCH   4  11
ENDBRANCH   1   7
BRANCH   1  16
ATOM     16  C   UNL     1       2.489  -2.264  -7.327  0.00  0.00    +0.145 C 
BRANCH  16  17
ATOM     17  C   UNL     1       3.339  -3.078  -8.269  0.00  0.00    -0.030 A 
ATOM     18  C   UNL     1       4.641  -3.394  -7.928  0.00  0.00    +0.005 A 
ATOM     19  C   UNL     1       5.420  -4.141  -8.791  0.00  0.00    +0.000 A 
ATOM     20  C   UNL     1       4.896  -4.573  -9.996  0.00  0.00    +0.000 A 
ATOM     21  C   UNL     1       3.594  -4.258 -10.337  0.00  0.00    +0.000 A 
ATOM     22  C   UNL     1       2.814  -3.514  -9.471  0.00  0.00    +0.005 A 
ENDBRANCH  16  17
ENDBRANCH   1  16
BRANCH   2  23
ATOM     23  C   UNL     1      -0.058  -3.419  -7.795  0.00  0.00    +0.328 C 
BRANCH  23  24
ATOM     24  O   UNL     1      -1.333  -4.061  -7.745  0.00  0.00    -0.452 OA
BRANCH  24  25
ATOM     25  C   UNL     1      -2.154  -3.876  -8.798  0.00  0.00    +0.337 C 
ATOM     26  O   UNL     1      -1.796  -3.188  -9.733  0.00  0.00    -0.245 OA
BRANCH  25  27
ATOM     27  C   UNL     1      -3.487  -4.509  -8.815  0.00  0.00    +0.054 C 
ATOM     28  C   UNL     1      -3.978  -5.184  -7.717  0.00  0.00    +0.007 A 
ATOM     29  C   UNL     1      -3.192  -5.298  -6.488  0.00  0.00    +0.010 A 
ATOM     30  C   UNL     1      -3.718  -5.971  -5.435  0.00  0.00    +0.001 A 
ATOM     31  C   UNL     1      -4.989  -6.555  -5.502  0.00  0.00    +0.002 A 
ATOM     32  C   UNL     1      -5.769  -6.487  -6.608  0.00  0.00    +0.024 A 
ATOM     33  C   UNL     1      -5.318  -5.809  -7.761  0.00  0.00    +0.041 A 
ATOM     34  N   UNL     1      -6.085  -5.747  -8.839  0.00  0.00    -0.285 N 
ATOM     35  C   UNL     1      -5.724  -5.128  -9.957  0.00  0.00    +0.222 C 
ATOM     36  O   UNL     1      -6.477  -5.109 -10.912  0.00  0.00    -0.275 OA
ATOM     37  C   UNL     1      -4.381  -4.441 -10.039  0.00  0.00    +0.139 C 
ATOM     38  H   UNL     1      -6.955  -6.177  -8.810  0.00  0.00    +0.155 HD
ENDBRANCH  25  27
ENDBRANCH  24  25
ENDBRANCH  23  24
ENDBRANCH   2  23
TORSDOF 10
