REMARK  Name = ZINC35746412
REMARK  16 active torsions:
REMARK  status: ('A' for Active; 'I' for Inactive)
REMARK    1  A    between atoms: C_1  and  C_2
REMARK    2  A    between atoms: C_5  and  C_9
REMARK    3  A    between atoms: C_6  and  C_8
REMARK    4  A    between atoms: C_18  and  C_20
REMARK    5  A    between atoms: C_20  and  N_21
REMARK    6  A    between atoms: N_21  and  C_22
REMARK    7  A    between atoms: N_21  and  C_31
REMARK    8  A    between atoms: C_22  and  C_23
REMARK    9  A    between atoms: C_23  and  C_25
REMARK   10  A    between atoms: C_23  and  O_30
REMARK   11  A    between atoms: C_25  and  O_26
REMARK   12  A    between atoms: O_26  and  C_27
REMARK   13  A    between atoms: C_27  and  C_28
REMARK   14  A    between atoms: C_27  and  C_29
REMARK   15  A    between atoms: C_31  and  C_32
REMARK   16  A    between atoms: C_31  and  C_33
REMARK                            x       y       z     vdW  Elec       q    Type
REMARK                         _______ _______ _______ _____ _____    ______ ____
ROOT
ATOM      1  C   UNL     1       0.243  -4.473   3.787  0.00  0.00    +0.004 A 
ATOM      2  C   UNL     1       1.450  -5.044   3.559  0.00  0.00    +0.056 A 
ATOM      3  S   UNL     1       1.031  -6.647   2.901  0.00  0.00    -0.076 S 
ATOM      4  C   UNL     1      -0.738  -6.514   2.947  0.00  0.00    +0.116 A 
ATOM      5  C   UNL     1      -0.962  -5.233   3.476  0.00  0.00    +0.080 A 
ATOM      6  C   UNL     1      -2.335  -4.856   3.630  0.00  0.00    +0.260 A 
ATOM      7  O   UNL     1      -2.630  -3.762   4.077  0.00  0.00    -0.267 OA
ATOM      8  N   UNL     1      -3.294  -5.730   3.272  0.00  0.00    -0.312 N 
ATOM      9  H   UNL     1      -4.226  -5.481   3.374  0.00  0.00    +0.170 HD
ATOM     10  C   UNL     1      -2.983  -6.953   2.772  0.00  0.00    +0.094 A 
ATOM     11  N   UNL     1      -1.741  -7.321   2.611  0.00  0.00    -0.229 NA
ENDROOT
BRANCH   1  16
ATOM     12  C   UNL     1      -0.123   0.847   5.961  0.00  0.00    +0.044 C 
ATOM     13  C   UNL     1      -0.028  -0.546   5.392  0.00  0.00    -0.050 A 
ATOM     14  C   UNL     1       0.523  -0.741   4.137  0.00  0.00    +0.004 A 
ATOM     15  C   UNL     1       0.613  -2.013   3.611  0.00  0.00    +0.009 A 
ATOM     16  C   UNL     1       0.149  -3.103   4.347  0.00  0.00    -0.014 A 
ATOM     17  C   UNL     1      -0.405  -2.900   5.610  0.00  0.00    -0.042 A 
ATOM     18  C   UNL     1      -0.485  -1.624   6.128  0.00  0.00    +0.007 A 
ATOM     19  C   UNL     1      -0.908  -4.073   6.411  0.00  0.00    +0.044 C 
ENDBRANCH   1  16
BRANCH  10  20
ATOM     20  C   UNL     1      -4.092  -7.898   2.384  0.00  0.00    -0.003 C 
BRANCH  20  21
ATOM     21  N   UNL     1      -3.522  -9.066   1.698  0.00  0.00    +0.388 N 
ATOM     22  H   UNL     1      -2.632  -9.298   2.112  0.00  0.00    -0.081 HD
BRANCH  21  23
ATOM     23  C   UNL     1      -3.333  -8.753   0.275  0.00  0.00    -0.074 C 
ATOM     24  C   UNL     1      -4.681  -8.384  -0.349  0.00  0.00    -0.014 C 
ATOM     25  C   UNL     1      -2.367  -7.575   0.136  0.00  0.00    -0.014 C 
ENDBRANCH  21  23
BRANCH  21  26
ATOM     26  C   UNL     1      -4.437 -10.207   1.832  0.00  0.00    -0.044 C 
BRANCH  26  27
ATOM     27  C   UNL     1      -3.781 -11.459   1.246  0.00  0.00    +0.124 C 
BRANCH  27  28
ATOM     28  O   UNL     1      -2.588 -11.756   1.974  0.00  0.00    -0.391 OA
ATOM     29  H   UNL     1      -2.733 -11.924   2.916  0.00  0.00    +0.210 HD
ENDBRANCH  27  28
BRANCH  27  30
ATOM     30  C   UNL     1      -4.749 -12.639   1.350  0.00  0.00    +0.189 C 
BRANCH  30  31
ATOM     31  O   UNL     1      -4.183 -13.778   0.700  0.00  0.00    -0.375 OA
BRANCH  31  32
ATOM     32  C   UNL     1      -5.012 -14.941   0.739  0.00  0.00    +0.112 C 
ATOM     33  C   UNL     1      -5.928 -14.957  -0.486  0.00  0.00    +0.037 C 
ATOM     34  C   UNL     1      -4.133 -16.194   0.735  0.00  0.00    +0.037 C 
ENDBRANCH  31  32
ENDBRANCH  30  31
ENDBRANCH  27  30
ENDBRANCH  26  27
ENDBRANCH  21  26
ENDBRANCH  20  21
ENDBRANCH  10  20
TORSDOF 10
