REMARK  Name = ZINC36123680
REMARK  9 active torsions:
REMARK  status: ('A' for Active; 'I' for Inactive)
REMARK    1  A    between atoms: C_1  and  C_2
REMARK    2  A    between atoms: C_2  and  N_3
REMARK    3  A    between atoms: N_6  and  C_7
REMARK    4  A    between atoms: N_6  and  C_14
REMARK    5  A    between atoms: C_7  and  C_8
REMARK    6  A    between atoms: C_14  and  C_15
REMARK    7  A    between atoms: C_25  and  C_27
REMARK    8  A    between atoms: C_27  and  O_28
REMARK    9  A    between atoms: O_28  and  C_29
REMARK                            x       y       z     vdW  Elec       q    Type
REMARK                         _______ _______ _______ _____ _____    ______ ____
ROOT
ATOM      1  C   UNL     1      -3.185  -4.253   1.431  0.00  0.00    +0.234 C 
ATOM      2  O   UNL     1      -3.042  -3.481   2.355  0.00  0.00    -0.274 OA
ATOM      3  N   UNL     1      -3.407  -5.560   1.672  0.00  0.00    -0.289 N 
ATOM      4  C   UNL     1      -3.575  -6.505   0.558  0.00  0.00    +0.114 C 
ATOM      5  C   UNL     1      -5.008  -7.058   0.607  0.00  0.00    +0.061 C 
ATOM      6  C   UNL     1      -5.350  -7.377   2.026  0.00  0.00    -0.004 A 
ATOM      7  C   UNL     1      -4.715  -6.959   3.154  0.00  0.00    -0.014 A 
ATOM      8  C   UNL     1      -5.243  -7.395   4.368  0.00  0.00    +0.013 A 
ATOM      9  C   UNL     1      -6.330  -8.200   4.382  0.00  0.00    +0.046 A 
ATOM     10  S   UNL     1      -6.674  -8.386   2.639  0.00  0.00    -0.101 S 
ATOM     11  C   UNL     1      -3.478  -6.061   3.051  0.00  0.00    +0.144 C 
ENDROOT
BRANCH   1  12
ATOM     12  C   UNL     1      -3.113  -3.750   0.012  0.00  0.00    +0.205 C 
BRANCH  12  16
ATOM     13  N   UNL     1      -1.372  -0.511   0.012  0.00  0.00    -0.299 N 
ATOM     14  C   UNL     1      -1.601  -1.839   0.007  0.00  0.00    +0.303 C 
ATOM     15  O   UNL     1      -0.666  -2.617  -0.006  0.00  0.00    -0.253 OA
ATOM     16  N   UNL     1      -2.865  -2.306   0.017  0.00  0.00    -0.274 N 
ATOM     17  H   UNL     1      -2.118   0.109   0.023  0.00  0.00    +0.150 HD
BRANCH  13  19
ATOM     18  C   UNL     1      -0.019   1.526   0.010  0.00  0.00    +0.024 C 
ATOM     19  C   UNL     1       0.002  -0.004   0.002  0.00  0.00    +0.102 C 
ENDBRANCH  13  19
BRANCH  16  20
ATOM     20  C   UNL     1      -3.991  -1.369   0.033  0.00  0.00    +0.141 C 
BRANCH  20  21
ATOM     21  C   UNL     1      -4.397  -1.035  -1.404  0.00  0.00    +0.136 C 
ATOM     22  C   UNL     1      -5.502   0.043  -1.399  0.00  0.00    +0.035 C 
ATOM     23  C   UNL     1      -6.435  -0.436  -2.545  0.00  0.00    +0.031 C 
ATOM     24  C   UNL     1      -6.302  -1.974  -2.409  0.00  0.00    +0.160 C 
ATOM     25  O   UNL     1      -4.930  -2.202  -2.042  0.00  0.00    -0.375 OA
ENDBRANCH  20  21
ENDBRANCH  16  20
ENDBRANCH  12  16
ENDBRANCH   1  12
BRANCH  11  26
ATOM     26  C   UNL     1      -2.219  -6.867   3.376  0.00  0.00    +0.256 C 
BRANCH  26  27
ATOM     27  O   UNL     1      -2.177  -8.036   2.554  0.00  0.00    -0.490 OA
BRANCH  27  28
ATOM     28  C   UNL     1      -1.114  -8.867   2.718  0.00  0.00    +0.121 A 
ATOM     29  C   UNL     1      -0.136  -8.567   3.654  0.00  0.00    +0.048 A 
ATOM     30  C   UNL     1       0.944  -9.412   3.820  0.00  0.00    +0.042 A 
ATOM     31  C   UNL     1       1.050 -10.559   3.051  0.00  0.00    +0.124 A 
ATOM     32  C   UNL     1       0.074 -10.860   2.116  0.00  0.00    +0.042 A 
ATOM     33  C   UNL     1      -1.010 -10.020   1.953  0.00  0.00    +0.048 A 
ATOM     34  F   UNL     1       2.107 -11.386   3.214  0.00  0.00    -0.205 F 
ENDBRANCH  27  28
ENDBRANCH  26  27
ENDBRANCH  11  26
TORSDOF 8
