REMARK  Name = ZINC36684870
REMARK  10 active torsions:
REMARK  status: ('A' for Active; 'I' for Inactive)
REMARK    1  A    between atoms: C_1  and  C_2
REMARK    2  A    between atoms: C_2  and  C_3
REMARK    3  A    between atoms: C_3  and  C_4
REMARK    4  A    between atoms: C_4  and  C_5
REMARK    5  A    between atoms: C_5  and  N_6
REMARK    6  A    between atoms: C_15  and  C_17
REMARK    7  A    between atoms: N_19  and  C_20
REMARK    8  A    between atoms: C_20  and  C_21
REMARK    9  A    between atoms: C_21  and  C_23
REMARK   10  A    between atoms: C_21  and  N_28
REMARK                            x       y       z     vdW  Elec       q    Type
REMARK                         _______ _______ _______ _____ _____    ______ ____
ROOT
ATOM      1  C   UNL     1       3.816  -6.420  -1.374  0.00  0.00    +0.265 C 
ATOM      2  O   UNL     1       3.997  -7.618  -1.478  0.00  0.00    -0.268 OA
ATOM      3  N   UNL     1       4.729  -5.653  -0.744  0.00  0.00    -0.311 N 
ATOM      4  H   UNL     1       4.584  -4.698  -0.661  0.00  0.00    +0.149 HD
ENDROOT
BRANCH   1  14
ATOM      5  N   UNL     1       1.366  -3.907  -2.285  0.00  0.00    -0.228 N 
ATOM      6  C   UNL     1       0.363  -4.528  -2.939  0.00  0.00    +0.275 A 
ATOM      7  O   UNL     1      -0.593  -3.899  -3.355  0.00  0.00    -0.266 OA
ATOM      8  C   UNL     1       0.451  -5.981  -3.138  0.00  0.00    +0.050 A 
ATOM      9  C   UNL     1      -0.529  -6.715  -3.799  0.00  0.00    +0.014 A 
ATOM     10  C   UNL     1      -0.372  -8.077  -3.944  0.00  0.00    +0.001 A 
ATOM     11  C   UNL     1       0.751  -8.719  -3.439  0.00  0.00    +0.001 A 
ATOM     12  C   UNL     1       1.734  -8.010  -2.781  0.00  0.00    +0.011 A 
ATOM     13  C   UNL     1       1.595  -6.635  -2.624  0.00  0.00    +0.020 A 
ATOM     14  C   UNL     1       2.597  -5.806  -1.936  0.00  0.00    +0.154 A 
ATOM     15  N   UNL     1       2.396  -4.515  -1.831  0.00  0.00    -0.163 NA
BRANCH   5  16
ATOM     16  C   UNL     1       1.274  -2.458  -2.090  0.00  0.00    +0.147 C 
BRANCH  16  17
ATOM     17  C   UNL     1       0.563  -2.166  -0.767  0.00  0.00    +0.023 C 
BRANCH  17  18
ATOM     18  C   UNL     1       0.467  -0.653  -0.563  0.00  0.00    +0.002 C 
BRANCH  18  20
ATOM     19  C   UNL     1      -0.341   1.152   0.965  0.00  0.00    +0.004 C 
ATOM     20  C   UNL     1      -0.244  -0.361   0.760  0.00  0.00    -0.003 C 
ENDBRANCH  18  20
ENDBRANCH  17  18
ENDBRANCH  16  17
ENDBRANCH   5  16
ENDBRANCH   1  14
BRANCH   3  21
ATOM     21  C   UNL     1       5.939  -6.263  -0.187  0.00  0.00    +0.094 C 
BRANCH  21  22
ATOM     22  C   UNL     1       6.849  -5.169   0.373  0.00  0.00    -0.013 C 
BRANCH  22  23
ATOM     23  N   UNL     1       8.118  -5.765   0.813  0.00  0.00    +0.386 N 
ATOM     24  C   UNL     1       8.828  -6.369  -0.344  0.00  0.00    -0.078 C 
ATOM     25  C   UNL     1      10.300  -6.424   0.134  0.00  0.00    -0.020 C 
ATOM     26  C   UNL     1      10.453  -5.112   0.937  0.00  0.00    -0.020 C 
ATOM     27  C   UNL     1       9.020  -4.716   1.336  0.00  0.00    -0.078 C 
ATOM     28  H   UNL     1       7.948  -6.463   1.521  0.00  0.00    -0.081 HD
ENDBRANCH  22  23
BRANCH  22  29
ATOM     29  C   UNL     1       6.174  -4.504   1.546  0.00  0.00    -0.022 A 
ATOM     30  C   UNL     1       5.497  -3.331   1.588  0.00  0.00    +0.009 A 
ATOM     31  C   UNL     1       4.953  -2.913   2.788  0.00  0.00    +0.008 A 
ATOM     32  C   UNL     1       5.114  -3.690   3.888  0.00  0.00    +0.045 A 
ATOM     33  S   UNL     1       6.051  -5.062   3.237  0.00  0.00    -0.103 S 
ENDBRANCH  22  29
ENDBRANCH  21  22
ENDBRANCH   3  21
TORSDOF 9
