REMARK  Name = ZINC38787963
REMARK  9 active torsions:
REMARK  status: ('A' for Active; 'I' for Inactive)
REMARK    1  A    between atoms: C_1  and  C_2
REMARK    2  A    between atoms: C_2  and  N_3
REMARK    3  A    between atoms: N_3  and  C_4
REMARK    4  A    between atoms: N_3  and  C_19
REMARK    5  A    between atoms: C_4  and  C_5
REMARK    6  A    between atoms: C_10  and  C_18
REMARK    7  A    between atoms: C_11  and  C_17
REMARK    8  A    between atoms: C_22  and  N_25
REMARK    9  A    between atoms: C_29  and  O_32
REMARK                            x       y       z     vdW  Elec       q    Type
REMARK                         _______ _______ _______ _____ _____    ______ ____
ROOT
ATOM      1  N   UNL     1      -3.264  -1.346   0.655  0.00  0.00    -0.329 N 
ENDROOT
BRANCH   1   2
ATOM      2  C   UNL     1      -4.155  -1.864   1.603  0.00  0.00    +0.030 A 
ATOM      3  C   UNL     1      -5.346  -2.445   1.190  0.00  0.00    +0.025 A 
ATOM      4  C   UNL     1      -6.225  -2.956   2.125  0.00  0.00    +0.025 A 
ATOM      5  C   UNL     1      -5.917  -2.888   3.478  0.00  0.00    +0.030 A 
ATOM      6  C   UNL     1      -4.725  -2.307   3.890  0.00  0.00    +0.025 A 
ATOM      7  C   UNL     1      -3.844  -1.801   2.954  0.00  0.00    +0.025 A 
BRANCH   5   8
ATOM      8  N   UNL     1      -6.808  -3.405   4.426  0.00  0.00    -0.327 N 
ATOM      9  C   UNL     1      -6.561  -3.223   5.862  0.00  0.00    +0.105 C 
ATOM     10  C   UNL     1      -7.805  -2.595   6.500  0.00  0.00    +0.021 C 
ATOM     11  C   UNL     1      -9.028  -3.456   6.177  0.00  0.00    +0.034 C 
ATOM     12  C   UNL     1      -9.235  -3.503   4.661  0.00  0.00    +0.132 C 
ATOM     13  C   UNL     1      -8.011  -4.135   4.002  0.00  0.00    +0.136 C 
BRANCH  12  14
ATOM     14  O   UNL     1     -10.396  -4.280   4.362  0.00  0.00    -0.390 OA
ATOM     15  H   UNL     1     -11.211  -3.935   4.750  0.00  0.00    +0.210 HD
ENDBRANCH  12  14
ENDBRANCH   5   8
ENDBRANCH   1   2
BRANCH   1  17
ATOM     16  C   UNL     1      -2.216   0.758   1.331  0.00  0.00    +0.024 C 
ATOM     17  C   UNL     1      -2.004  -0.738   1.089  0.00  0.00    +0.102 C 
ENDBRANCH   1  17
BRANCH   1  18
ATOM     18  C   UNL     1      -3.592  -1.412  -0.772  0.00  0.00    +0.122 C 
BRANCH  18  19
ATOM     19  C   UNL     1      -3.055  -2.719  -1.358  0.00  0.00    +0.116 C 
ATOM     20  C   UNL     1      -3.216  -2.654  -2.864  0.00  0.00    -0.003 C 
ATOM     21  C   UNL     1      -3.958  -3.632  -3.457  0.00  0.00    -0.007 A 
ATOM     22  C   UNL     1      -4.165  -3.644  -4.905  0.00  0.00    +0.013 A 
ATOM     23  C   UNL     1      -4.912  -4.638  -5.452  0.00  0.00    -0.047 A 
ATOM     24  C   UNL     1      -5.480  -5.638  -4.662  0.00  0.00    -0.046 A 
ATOM     25  C   UNL     1      -5.326  -5.683  -3.313  0.00  0.00    +0.027 A 
ATOM     26  C   UNL     1      -4.570  -4.700  -2.647  0.00  0.00    +0.041 A 
ATOM     27  N   UNL     1      -4.425  -4.754  -1.323  0.00  0.00    -0.284 N 
ATOM     28  C   UNL     1      -3.731  -3.863  -0.637  0.00  0.00    +0.226 C 
ATOM     29  O   UNL     1      -3.635  -3.965   0.572  0.00  0.00    -0.275 OA
ATOM     30  C   UNL     1      -6.297  -6.712  -5.332  0.00  0.00    +0.044 C 
ATOM     31  C   UNL     1      -5.132  -4.662  -6.942  0.00  0.00    +0.044 C 
ATOM     32  H   UNL     1      -4.850  -5.481  -0.841  0.00  0.00    +0.155 HD
ENDBRANCH  18  19
ENDBRANCH   1  18
TORSDOF 6
