REMARK  Name = ZINC16952033
REMARK  4 active torsions:
REMARK  status: ('A' for Active; 'I' for Inactive)
REMARK    1  A    between atoms: N_7  and  C1*_8
REMARK    2  A    between atoms: C3*_11  and  O3*_18
REMARK    3  A    between atoms: C4*_13  and  C5*_16
REMARK    4  A    between atoms: C5*_16  and  O5*_17
REMARK                            x       y       z     vdW  Elec       q    Type
REMARK                         _______ _______ _______ _____ _____    ______ ____
ROOT
ATOM      1  C   UNL     1      -3.594   1.606   0.028  0.00  0.00    +0.111 A 
ATOM      2  C   UNL     1      -2.426   0.920   0.019  0.00  0.00    +0.069 A 
ATOM      3  C   UNL     1      -1.212   1.637   0.017  0.00  0.00    +0.136 A 
ATOM      4  N   UNL     1      -1.234   2.964   0.030  0.00  0.00    -0.177 NA
ATOM      5  C   UNL     1      -2.390   3.624   0.034  0.00  0.00    +0.352 A 
ATOM      6  O   UNL     1      -2.384   4.844   0.041  0.00  0.00    -0.244 OA
ATOM      7  N   UNL     1      -3.566   2.969   0.036  0.00  0.00    -0.272 N 
ATOM      8  N   UNL     1      -0.011   0.966   0.007  0.00  0.00    -0.342 N 
ATOM      9  I   UNL     1      -2.423  -1.175   0.007  0.00  0.00    -0.039 I 
ATOM     10  H   UNL     1       0.934   1.529   0.006  0.00  0.00    +0.144 HD
ATOM     11  H   UNL     1       0.004  -0.134   0.001  0.00  0.00    +0.144 HD
ENDROOT
BRANCH   7  12
ATOM     12  C1* UNL     1      -4.821   3.723   0.047  0.00  0.00    +0.226 C 
ATOM     13  C2* UNL     1      -4.901   4.616   1.311  0.00  0.00    +0.088 C 
ATOM     14  C3* UNL     1      -6.438   4.778   1.461  0.00  0.00    +0.150 C 
ATOM     15  C4* UNL     1      -6.961   3.412   0.965  0.00  0.00    +0.175 C 
ATOM     16  O4* UNL     1      -5.940   2.828   0.149  0.00  0.00    -0.348 OA
BRANCH  14  17
ATOM     17  O3* UNL     1      -6.796   4.994   2.828  0.00  0.00    -0.389 OA
ATOM     18  H3* UNL     1      -7.852   5.128   3.105  0.00  0.00    +0.210 HD
ENDBRANCH  14  17
BRANCH  15  19
ATOM     19  C5* UNL     1      -8.236   3.612   0.142  0.00  0.00    +0.190 C 
BRANCH  19  20
ATOM     20  O5* UNL     1      -8.777   2.339  -0.215  0.00  0.00    -0.392 OA
ATOM     21  H5* UNL     1      -9.699   2.281  -0.811  0.00  0.00    +0.210 HD
ENDBRANCH  19  20
ENDBRANCH  15  19
ENDBRANCH   7  12
TORSDOF 4
