REMARK  Name = ZINC00711768
REMARK  8 active torsions:
REMARK  status: ('A' for Active; 'I' for Inactive)
REMARK    1  A    between atoms: C_1  and  C_2
REMARK    2  A    between atoms: C_2  and  C_3
REMARK    3  A    between atoms: C_2  and  N_4
REMARK    4  A    between atoms: C_5  and  N_13
REMARK    5  A    between atoms: C_7  and  C_11
REMARK    6  A    between atoms: C_7  and  C_12
REMARK    7  A    between atoms: N_13  and  O_25
REMARK    8  A    between atoms: N_16  and  C_17
REMARK                            x       y       z     vdW  Elec       q    Type
REMARK                         _______ _______ _______ _____ _____    ______ ____
ROOT
ATOM      1  N   UNL     1       4.704   1.509  -0.481  0.00  0.00    -0.145 N 
ATOM      2  C   UNL     1       3.794   1.484   0.512  0.00  0.00    +0.331 C 
ATOM      3  O   UNL     1       3.911   2.232   1.464  0.00  0.00    -0.250 OA
ATOM      4  N   UNL     1       2.752   0.630   0.451  0.00  0.00    -0.266 N 
ATOM      5  H   UNL     1       2.693  -0.010  -0.276  0.00  0.00    +0.156 HD
ENDROOT
BRANCH   1   7
ATOM      6  N   UNL     1       5.469   3.722  -0.148  0.00  0.00    -0.295 N 
ATOM      7  C   UNL     1       5.893   2.358  -0.364  0.00  0.00    +0.210 C 
ATOM      8  C   UNL     1       6.784   1.810   0.769  0.00  0.00    +0.054 C 
ATOM      9  S   UNL     1       6.855   3.262   1.885  0.00  0.00    -0.093 S 
ATOM     10  C   UNL     1       5.846   4.393   0.950  0.00  0.00    +0.111 C 
ATOM     11  S   UNL     1       5.440   6.003   1.366  0.00  0.00    -0.028 S 
ATOM     12  C   UNL     1       6.124   0.615   1.461  0.00  0.00    +0.026 C 
ATOM     13  C   UNL     1       8.175   1.444   0.250  0.00  0.00    +0.026 C 
BRANCH   6  15
ATOM     14  C   UNL     1       3.300   4.799  -0.486  0.00  0.00    +0.028 C 
ATOM     15  C   UNL     1       4.617   4.380  -1.141  0.00  0.00    +0.070 C 
ATOM     16  C   UNL     1       5.332   5.619  -1.686  0.00  0.00    +0.028 C 
ENDBRANCH   6  15
ENDBRANCH   1   7
BRANCH   4  17
ATOM     17  C   UNL     1       1.757   0.668   1.435  0.00  0.00    +0.053 A 
ATOM     18  C   UNL     1       2.063   1.102   2.718  0.00  0.00    +0.026 A 
ATOM     19  C   UNL     1       1.080   1.138   3.687  0.00  0.00    +0.022 A 
ATOM     20  C   UNL     1      -0.211   0.743   3.380  0.00  0.00    +0.042 A 
ATOM     21  C   UNL     1      -0.521   0.315   2.101  0.00  0.00    +0.041 A 
ATOM     22  C   UNL     1       0.461   0.271   1.129  0.00  0.00    +0.064 A 
ATOM     23 CL   UNL     1       0.073  -0.272  -0.473  0.00  0.00    -0.082 Cl
ATOM     24 CL   UNL     1      -1.444   0.791   4.601  0.00  0.00    -0.083 Cl
ENDBRANCH   4  17
BRANCH   1  25
ATOM     25  O   UNL     1       4.513   0.715  -1.638  0.00  0.00    -0.290 OA
ATOM     26  H   UNL     1       5.253   0.740  -2.259  0.00  0.00    +0.242 HD
ENDBRANCH   1  25
TORSDOF 4
