REMARK  Name = ZINC25511904
REMARK  11 active torsions:
REMARK  status: ('A' for Active; 'I' for Inactive)
REMARK    1  A    between atoms: C_1  and  C_2
REMARK    2  A    between atoms: C_2  and  C_4
REMARK    3  A    between atoms: C_2  and  N_28
REMARK    4  A    between atoms: N_6  and  C_7
REMARK    5  A    between atoms: C_10  and  N_13
REMARK    6  A    between atoms: N_13  and  S_14
REMARK    7  A    between atoms: S_14  and  C_17
REMARK    8  A    between atoms: C_29  and  C_31
REMARK    9  A    between atoms: C_31  and  C_32
REMARK   10  A    between atoms: C_31  and  C_33
REMARK   11  A    between atoms: C_31  and  C_34
REMARK                            x       y       z     vdW  Elec       q    Type
REMARK                         _______ _______ _______ _____ _____    ______ ____
ROOT
ATOM      1  C   UNL     1       0.132   1.253  -0.200  0.00  0.00    +0.034 A 
ATOM      2  C   UNL     1       1.361   1.772   0.185  0.00  0.00    +0.025 A 
ATOM      3  C   UNL     1       2.455   0.939   0.303  0.00  0.00    +0.026 A 
ATOM      4  C   UNL     1       2.327  -0.418   0.038  0.00  0.00    +0.048 A 
ATOM      5  C   UNL     1       1.098  -0.938  -0.347  0.00  0.00    +0.026 A 
ATOM      6  C   UNL     1       0.003  -0.104  -0.466  0.00  0.00    +0.025 A 
ENDROOT
BRANCH   1   9
ATOM      7  C   UNL     1      -2.212   1.641  -0.033  0.00  0.00    +0.237 C 
ATOM      8  O   UNL     1      -2.352   0.529   0.429  0.00  0.00    -0.273 OA
ATOM      9  N   UNL     1      -0.978   2.099  -0.326  0.00  0.00    -0.284 N 
ATOM     10  H   UNL     1      -0.843   3.137  -0.663  0.00  0.00    +0.155 HD
BRANCH   7  12
ATOM     11  C   UNL     1      -3.295   3.797   0.541  0.00  0.00    +0.038 C 
ATOM     12  C   UNL     1      -3.417   2.512  -0.280  0.00  0.00    +0.156 C 
BRANCH  12  13
ATOM     13  N   UNL     1      -4.629   1.791   0.117  0.00  0.00    -0.304 N 
ATOM     14  C   UNL     1      -5.814   2.108  -0.441  0.00  0.00    +0.219 C 
ATOM     15  O   UNL     1      -5.877   2.989  -1.273  0.00  0.00    -0.275 OA
ATOM     16  H   UNL     1      -4.572   0.992   0.871  0.00  0.00    +0.149 HD
BRANCH  14  17
ATOM     17  C   UNL     1      -7.061   1.367  -0.033  0.00  0.00    +0.039 C 
ATOM     18  C   UNL     1      -8.259   1.916  -0.810  0.00  0.00    +0.020 C 
ATOM     19  C   UNL     1      -6.893  -0.123  -0.341  0.00  0.00    +0.020 C 
ATOM     20  C   UNL     1      -7.298   1.554   1.467  0.00  0.00    +0.020 C 
ENDBRANCH  14  17
ENDBRANCH  12  13
ENDBRANCH   7  12
ENDBRANCH   1   9
BRANCH   4  21
ATOM     21  N   UNL     1       3.436  -1.262   0.158  0.00  0.00    -0.216 N 
ATOM     22  H   UNL     1       3.342  -2.223   0.685  0.00  0.00    +0.174 HD
BRANCH  21  23
ATOM     23  S   UNL     1       4.892  -0.815  -0.494  0.00  0.00    +0.072 S 
ATOM     24  O   UNL     1       5.171   0.490  -0.005  0.00  0.00    -0.150 OA
ATOM     25  O   UNL     1       5.778  -1.908  -0.297  0.00  0.00    -0.150 OA
BRANCH  23  26
ATOM     26  C   UNL     1       4.658  -0.662  -2.234  0.00  0.00    +0.112 A 
ATOM     27  C   UNL     1       4.947  -1.730  -3.064  0.00  0.00    +0.032 A 
ATOM     28  C   UNL     1       4.761  -1.619  -4.430  0.00  0.00    +0.051 A 
ATOM     29  C   UNL     1       4.295  -0.430  -4.965  0.00  0.00    +0.162 A 
ATOM     30  C   UNL     1       4.011   0.643  -4.133  0.00  0.00    +0.164 A 
ATOM     31  C   UNL     1       4.193   0.527  -2.765  0.00  0.00    +0.078 A 
ATOM     32  O   UNL     1       3.551   1.810  -4.670  0.00  0.00    -0.488 OA
ATOM     33  C   UNL     1       4.485   2.542  -5.468  0.00  0.00    +0.232 C 
ATOM     34  C   UNL     1       4.499   2.019  -6.896  0.00  0.00    +0.082 C 
ATOM     35  C   UNL     1       5.003   0.588  -6.984  0.00  0.00    +0.232 C 
ATOM     36  O   UNL     1       4.112  -0.305  -6.312  0.00  0.00    -0.488 OA
ENDBRANCH  23  26
ENDBRANCH  21  23
ENDBRANCH   4  21
TORSDOF 7
