REMARK  Name = ZINC06624270
REMARK  4 active torsions:
REMARK  status: ('A' for Active; 'I' for Inactive)
REMARK    1  A    between atoms: C_1  and  C_2
REMARK    2  A    between atoms: C_2  and  C_3
REMARK    3  A    between atoms: C_3  and  C_4
REMARK    4  A    between atoms: N_26  and  C_29
REMARK                            x       y       z     vdW  Elec       q    Type
REMARK                         _______ _______ _______ _____ _____    ______ ____
ROOT
ATOM      1  C   UNL     1      -1.547   1.189  -2.236  0.00  0.00    +0.217 C 
ATOM      2  O   UNL     1      -0.396   0.807  -2.217  0.00  0.00    -0.276 OA
ATOM      3  N   UNL     1      -2.059   1.838  -1.171  0.00  0.00    -0.278 N 
ATOM      4  C   UNL     1      -3.453   2.309  -1.175  0.00  0.00    +0.114 C 
ATOM      5  C   UNL     1      -4.227   1.588  -0.065  0.00  0.00    +0.056 C 
ATOM      6  C   UNL     1      -3.406   1.597   1.198  0.00  0.00    -0.015 A 
ATOM      7  C   UNL     1      -3.846   1.378   2.561  0.00  0.00    +0.003 A 
ATOM      8  C   UNL     1      -5.098   1.101   3.119  0.00  0.00    +0.010 A 
ATOM      9  C   UNL     1      -5.149   0.951   4.483  0.00  0.00    +0.001 A 
ATOM     10  C   UNL     1      -4.021   1.066   5.279  0.00  0.00    +0.002 A 
ATOM     11  C   UNL     1      -2.770   1.338   4.753  0.00  0.00    +0.026 A 
ATOM     12  C   UNL     1      -2.687   1.494   3.371  0.00  0.00    +0.047 A 
ATOM     13  N   UNL     1      -1.636   1.760   2.542  0.00  0.00    -0.355 N 
ATOM     14  H   UNL     1      -0.718   1.887   2.828  0.00  0.00    +0.166 HD
ATOM     15  C   UNL     1      -2.072   1.820   1.245  0.00  0.00    +0.058 A 
ATOM     16  C   UNL     1      -1.241   2.092   0.018  0.00  0.00    +0.181 C 
ATOM     17  C   UNL     1      -0.702   3.485   0.026  0.00  0.00    +0.012 A 
ATOM     18  C   UNL     1      -1.330   4.712   0.039  0.00  0.00    +0.008 A 
ATOM     19  C   UNL     1      -0.515   5.839   0.039  0.00  0.00    +0.000 A 
ATOM     20  C   UNL     1       0.861   5.731   0.027  0.00  0.00    +0.002 A 
ATOM     21  C   UNL     1       1.500   4.501   0.014  0.00  0.00    +0.024 A 
ATOM     22  C   UNL     1       0.694   3.362   0.014  0.00  0.00    +0.042 A 
ATOM     23  N   UNL     1       1.059   2.027   0.003  0.00  0.00    -0.272 N 
ATOM     24  C   UNL     1      -0.014   1.209   0.009  0.00  0.00    +0.254 C 
ATOM     25  O   UNL     1       0.002  -0.004   0.002  0.00  0.00    -0.272 OA
ATOM     26  C   UNL     1       2.447   1.558  -0.012  0.00  0.00    +0.138 C 
ENDROOT
BRANCH   1  27
ATOM     27  C   UNL     1      -2.404   0.938  -3.449  0.00  0.00    +0.096 C 
BRANCH  27  29
ATOM     28  C   UNL     1      -2.458  -0.066  -5.737  0.00  0.00    +0.004 C 
ATOM     29  C   UNL     1      -1.588   0.189  -4.505  0.00  0.00    +0.006 C 
ENDBRANCH  27  29
ENDBRANCH   1  27
TORSDOF 2
