REMARK  Name = ZINC23635789
REMARK  9 active torsions:
REMARK  status: ('A' for Active; 'I' for Inactive)
REMARK    1  A    between atoms: C_1  and  C_2
REMARK    2  A    between atoms: C_2  and  C_3
REMARK    3  A    between atoms: C_3  and  N_4
REMARK    4  A    between atoms: C_5  and  C_26
REMARK    5  A    between atoms: C_8  and  S_9
REMARK    6  A    between atoms: S_9  and  C_10
REMARK    7  A    between atoms: C_10  and  C_11
REMARK    8  A    between atoms: N_16  and  C_17
REMARK    9  A    between atoms: C_23  and  C_25
REMARK                            x       y       z     vdW  Elec       q    Type
REMARK                         _______ _______ _______ _____ _____    ______ ____
ROOT
ATOM      1  C   UNL     1      -5.985   1.145   3.760  0.00  0.00    +0.173 C 
ENDROOT
BRANCH   1   2
ATOM      2  C   UNL     1      -5.194   0.665   2.570  0.00  0.00    +0.231 C 
ATOM      3  O   UNL     1      -5.769   0.335   1.554  0.00  0.00    -0.274 OA
ATOM      4  N   UNL     1      -3.850   0.605   2.634  0.00  0.00    -0.239 N 
ATOM      5  C   UNL     1      -3.143   0.176   1.569  0.00  0.00    +0.306 C 
ATOM      6  O   UNL     1      -3.718  -0.156   0.551  0.00  0.00    -0.252 OA
ATOM      7  N   UNL     1      -1.798   0.115   1.633  0.00  0.00    -0.296 N 
ATOM      8  H   UNL     1      -3.329   0.905   3.555  0.00  0.00    +0.159 HD
ATOM      9  H   UNL     1      -1.277   0.416   2.554  0.00  0.00    +0.151 HD
BRANCH   7  10
ATOM     10  C   UNL     1      -1.030  -0.350   0.476  0.00  0.00    +0.077 C 
ATOM     11  C   UNL     1      -0.953  -1.878   0.496  0.00  0.00    +0.022 C 
ATOM     12  C   UNL     1      -0.266  -2.338   1.784  0.00  0.00    +0.002 C 
ATOM     13  C   UNL     1       1.148  -1.755   1.842  0.00  0.00    +0.000 C 
ATOM     14  C   UNL     1       1.072  -0.228   1.822  0.00  0.00    +0.005 C 
ATOM     15  C   UNL     1       0.384   0.232   0.534  0.00  0.00    +0.006 C 
ATOM     16  C   UNL     1       0.307   1.760   0.514  0.00  0.00    +0.009 C 
ENDBRANCH   7  10
ENDBRANCH   1   2
BRANCH   1  17
ATOM     17  S   UNL     1      -7.751   1.112   3.365  0.00  0.00    -0.077 S 
BRANCH  17  22
ATOM     18  N   UNL     1      -9.737   1.889   5.173  0.00  0.00    -0.302 N 
ATOM     19  C   UNL     1      -9.773   2.359   6.467  0.00  0.00    +0.165 A 
ATOM     20  N   UNL     1      -8.530   2.432   6.885  0.00  0.00    -0.128 NA
ATOM     21  N   UNL     1      -7.732   2.041   5.957  0.00  0.00    -0.122 NA
ATOM     22  C   UNL     1      -8.416   1.703   4.886  0.00  0.00    +0.192 A 
BRANCH  19  23
ATOM     23  C   UNL     1     -10.982   2.713   7.239  0.00  0.00    +0.022 A 
ATOM     24  C   UNL     1     -10.897   3.526   8.376  0.00  0.00    +0.031 A 
ATOM     25  C   UNL     1     -12.052   3.835   9.064  0.00  0.00    +0.111 A 
ATOM     26  N   UNL     1     -13.221   3.368   8.670  0.00  0.00    -0.263 NA
ATOM     27  C   UNL     1     -13.345   2.595   7.607  0.00  0.00    +0.111 A 
ATOM     28  C   UNL     1     -12.244   2.240   6.857  0.00  0.00    +0.031 A 
ENDBRANCH  19  23
BRANCH  18  29
ATOM     29  C   UNL     1     -10.879   1.641   4.290  0.00  0.00    +0.125 C 
BRANCH  29  31
ATOM     30  C   UNL     1     -12.480  -0.090   3.464  0.00  0.00    +0.005 C 
ATOM     31  C   UNL     1     -11.288   0.170   4.387  0.00  0.00    +0.018 C 
ENDBRANCH  29  31
ENDBRANCH  18  29
ENDBRANCH  17  22
ENDBRANCH   1  17
TORSDOF 7
