REMARK  Name = ZINC19879539
REMARK  8 active torsions:
REMARK  status: ('A' for Active; 'I' for Inactive)
REMARK    1  A    between atoms: C_1  and  C_2
REMARK    2  A    between atoms: C_3  and  C_28
REMARK    3  A    between atoms: N_8  and  C_18
REMARK    4  A    between atoms: C_11  and  C_13
REMARK    5  A    between atoms: C_20  and  C_26
REMARK    6  A    between atoms: C_20  and  C_27
REMARK    7  A    between atoms: C_22  and  C_24
REMARK    8  A    between atoms: C_22  and  C_25
REMARK                            x       y       z     vdW  Elec       q    Type
REMARK                         _______ _______ _______ _____ _____    ______ ____
ROOT
ATOM      1  C   UNL     1      -1.489   1.996   0.568  0.00  0.00    +0.045 C 
ATOM      2  C   UNL     1      -1.259   0.514   0.427  0.00  0.00    -0.034 A 
ATOM      3  C   UNL     1      -1.131  -0.037  -0.803  0.00  0.00    -0.008 A 
ATOM      4  S   UNL     1      -0.882  -1.764  -0.415  0.00  0.00    -0.078 S 
ATOM      5  C   UNL     1      -0.965  -1.627   1.344  0.00  0.00    +0.081 A 
ATOM      6  C   UNL     1      -1.173  -0.288   1.560  0.00  0.00    -0.001 A 
ATOM      7  C   UNL     1      -1.301   0.214   2.995  0.00  0.00    +0.124 C 
ATOM      8  N   UNL     1      -1.644  -0.920   3.862  0.00  0.00    -0.279 NA
ATOM      9  C   UNL     1      -0.709  -2.046   3.716  0.00  0.00    +0.202 C 
ATOM     10  N   UNL     1      -0.852  -2.581   2.341  0.00  0.00    -0.245 N 
ATOM     11  C   UNL     1      -0.857  -3.903   2.078  0.00  0.00    +0.288 C 
ATOM     12  O   UNL     1      -1.068  -4.298   0.946  0.00  0.00    -0.266 OA
ATOM     13  C   UNL     1      -1.184   0.633  -2.152  0.00  0.00    +0.052 C 
ENDROOT
BRANCH   8  14
ATOM     14  C   UNL     1      -1.745  -0.497   5.269  0.00  0.00    +0.056 C 
ATOM     15  C   UNL     1      -0.361  -0.078   5.768  0.00  0.00    +0.006 C 
ATOM     16  C   UNL     1      -0.447   0.352   7.232  0.00  0.00    -0.072 C 
ATOM     17  N   UNL     1      -1.056  -0.670   8.069  0.00  0.00    +0.386 N 
ATOM     18  C   UNL     1      -2.280  -1.293   7.592  0.00  0.00    -0.072 C 
ATOM     19  C   UNL     1      -2.224  -1.675   6.116  0.00  0.00    +0.006 C 
ATOM     20  C   UNL     1      -3.505  -0.414   7.858  0.00  0.00    -0.010 C 
ATOM     21  C   UNL     1      -2.480  -2.600   8.396  0.00  0.00    -0.010 C 
ATOM     22  C   UNL     1      -1.167   1.695   7.347  0.00  0.00    -0.010 C 
ATOM     23  C   UNL     1       1.001   0.565   7.733  0.00  0.00    -0.010 C 
ATOM     24  H   UNL     1      -0.363  -1.405   8.233  0.00  0.00    -0.084 HD
ATOM     25  H   UNL     1      -1.239  -0.264   8.990  0.00  0.00    -0.084 HD
ENDBRANCH   8  14
BRANCH  11  26
ATOM     26  C   UNL     1      -0.608  -4.866   3.155  0.00  0.00    +0.190 A 
ATOM     27  C   UNL     1      -0.703  -6.225   3.055  0.00  0.00    +0.054 A 
ATOM     28  C   UNL     1      -0.380  -6.746   4.317  0.00  0.00    +0.042 A 
ATOM     29  C   UNL     1      -0.106  -5.697   5.123  0.00  0.00    +0.196 A 
ATOM     30  O   UNL     1      -0.238  -4.566   4.417  0.00  0.00    -0.458 OA
ENDBRANCH  11  26
TORSDOF 2
