REMARK  Name = ZINC39758328
REMARK  10 active torsions:
REMARK  status: ('A' for Active; 'I' for Inactive)
REMARK    1  A    between atoms: C_4  and  N_7
REMARK    2  A    between atoms: C_8  and  CA_23
REMARK    3  A    between atoms: C_11  and  S_12
REMARK    4  A    between atoms: S_12  and  C_13
REMARK    5  A    between atoms: C_13  and  C_14
REMARK    6  A    between atoms: C_17  and  N_20
REMARK    7  A    between atoms: CA_23  and  C_25
REMARK    8  A    between atoms: CA_23  and  N_27
REMARK    9  A    between atoms: C_25  and  O_26
REMARK   10  A    between atoms: C_28  and  C_30
REMARK                            x       y       z     vdW  Elec       q    Type
REMARK                         _______ _______ _______ _____ _____    ______ ____
ROOT
ATOM      1  N   UNL     1       3.624  -0.653  -0.036  0.00  0.00    -0.273 N 
ATOM      2  C   UNL     1       4.115  -1.449  -1.037  0.00  0.00    +0.161 A 
ATOM      3  N   UNL     1       5.279  -1.886  -0.648  0.00  0.00    -0.131 NA
ATOM      4  N   UNL     1       5.558  -1.426   0.519  0.00  0.00    -0.122 NA
ATOM      5  C   UNL     1       4.580  -0.658   0.942  0.00  0.00    +0.196 A 
ENDROOT
BRANCH   1   9
ATOM      6  C   UNL     1      -0.017   1.379   0.010  0.00  0.00    +0.000 A 
ATOM      7  C   UNL     1       1.170   2.089   0.002  0.00  0.00    +0.002 A 
ATOM      8  C   UNL     1       2.377   1.419  -0.013  0.00  0.00    +0.026 A 
ATOM      9  C   UNL     1       2.399   0.031  -0.021  0.00  0.00    +0.050 A 
ATOM     10  C   UNL     1       1.207  -0.680  -0.013  0.00  0.00    +0.026 A 
ATOM     11  C   UNL     1       0.002  -0.004   0.002  0.00  0.00    +0.002 A 
ENDBRANCH   1   9
BRANCH   5  12
ATOM     12  S   UNL     1       4.512   0.200   2.479  0.00  0.00    -0.081 S 
BRANCH  12  13
ATOM     13  C   UNL     1       6.076  -0.229   3.291  0.00  0.00    +0.112 C 
BRANCH  13  14
ATOM     14  C   UNL     1       6.147   0.449   4.635  0.00  0.00    -0.037 A 
ATOM     15  C   UNL     1       6.698   1.712   4.744  0.00  0.00    +0.007 A 
ATOM     16  C   UNL     1       6.763   2.334   5.977  0.00  0.00    +0.033 A 
ATOM     17  C   UNL     1       6.276   1.693   7.101  0.00  0.00    +0.126 A 
ATOM     18  C   UNL     1       5.724   0.430   6.992  0.00  0.00    +0.033 A 
ATOM     19  C   UNL     1       5.656  -0.190   5.758  0.00  0.00    +0.007 A 
BRANCH  17  20
ATOM     20  N   UNL     1       6.347   2.359   8.421  0.00  0.00    +0.056 N 
ATOM     21  O   UNL     1       6.830   3.463   8.516  0.00  0.00    -0.126 OA
ATOM     22  O   UNL     1       5.921   1.798   9.404  0.00  0.00    -0.126 OA
ENDBRANCH  17  20
ENDBRANCH  13  14
ENDBRANCH  12  13
ENDBRANCH   5  12
BRANCH   2  23
ATOM     23  CA  UNL     1       3.434  -1.762  -2.345  0.00  0.00    +0.167 C 
BRANCH  23  24
ATOM     24  N   UNL     1       3.545  -3.196  -2.622  0.00  0.00    -0.299 N 
ATOM     25  C   UNL     1       2.637  -3.802  -3.412  0.00  0.00    +0.245 C 
ATOM     26  O   UNL     1       1.726  -3.158  -3.896  0.00  0.00    -0.270 OA
ATOM     27  H   UNL     1       4.272  -3.710  -2.236  0.00  0.00    +0.150 HD
BRANCH  25  28
ATOM     28  C   UNL     1       2.749  -5.249  -3.692  0.00  0.00    +0.037 A 
ATOM     29  C   UNL     1       3.791  -5.992  -3.134  0.00  0.00    +0.014 A 
ATOM     30  C   UNL     1       3.889  -7.342  -3.398  0.00  0.00    +0.021 A 
ATOM     31  C   UNL     1       2.958  -7.960  -4.215  0.00  0.00    +0.041 A 
ATOM     32  C   UNL     1       1.922  -7.228  -4.772  0.00  0.00    +0.021 A 
ATOM     33  C   UNL     1       1.810  -5.879  -4.511  0.00  0.00    +0.014 A 
ATOM     34 CL   UNL     1       3.090  -9.660  -4.544  0.00  0.00    -0.084 Cl
ENDBRANCH  25  28
ENDBRANCH  23  24
BRANCH  23  35
ATOM     35  C   UNL     1       4.104  -0.972  -3.470  0.00  0.00    +0.186 C 
BRANCH  35  36
ATOM     36  O   UNL     1       5.506  -1.248  -3.477  0.00  0.00    -0.393 OA
ATOM     37  H   UNL     1       5.996  -0.780  -4.167  0.00  0.00    +0.209 HD
ENDBRANCH  35  36
ENDBRANCH  23  35
ENDBRANCH   2  23
TORSDOF 10
