REMARK  Name = ZINC44975395
REMARK  5 active torsions:
REMARK  status: ('A' for Active; 'I' for Inactive)
REMARK    1  A    between atoms: C_1  and  C_2
REMARK    2  A    between atoms: C_5  and  N_8
REMARK    3  A    between atoms: C_11  and  C_14
REMARK    4  A    between atoms: C_14  and  N_15
REMARK    5  A    between atoms: C_29  and  C_31
REMARK                            x       y       z     vdW  Elec       q    Type
REMARK                         _______ _______ _______ _____ _____    ______ ____
ROOT
ATOM      1  N   UNL     1      -0.003  -4.197  -0.035  0.00  0.00    -0.219 N 
ATOM      2  C   UNL     1       0.101  -4.904   1.159  0.00  0.00    +0.172 A 
ATOM      3  N   UNL     1       0.265  -6.198   1.330  0.00  0.00    -0.228 NA
ATOM      4  C   UNL     1       0.346  -6.721   2.539  0.00  0.00    +0.064 A 
ATOM      5  C   UNL     1       0.253  -5.867   3.588  0.00  0.00    +0.073 A 
ATOM      6  S   UNL     1       0.055  -4.311   2.733  0.00  0.00    -0.060 S 
ATOM      7  C   UNL     1      -0.044  -4.857  -1.209  0.00  0.00    +0.223 C 
ATOM      8  O   UNL     1      -0.071  -6.070  -1.221  0.00  0.00    -0.275 OA
ATOM      9  C   UNL     1      -0.058  -4.090  -2.506  0.00  0.00    +0.110 C 
ENDROOT
BRANCH   1  14
ATOM     10  C   UNL     1      -0.249   1.472   0.038  0.00  0.00    +0.044 C 
ATOM     11  C   UNL     1      -0.184  -0.033   0.019  0.00  0.00    -0.050 A 
ATOM     12  C   UNL     1       0.986  -0.678   0.378  0.00  0.00    +0.005 A 
ATOM     13  C   UNL     1       1.049  -2.057   0.361  0.00  0.00    +0.024 A 
ATOM     14  C   UNL     1      -0.064  -2.797  -0.016  0.00  0.00    +0.043 A 
ATOM     15  C   UNL     1      -1.237  -2.147  -0.376  0.00  0.00    +0.024 A 
ATOM     16  C   UNL     1      -1.295  -0.767  -0.352  0.00  0.00    +0.005 A 
ENDBRANCH   1  14
BRANCH   4  17
ATOM     17  C   UNL     1       0.532  -8.202   2.745  0.00  0.00    +0.140 C 
BRANCH  17  18
ATOM     18  N   UNL     1      -0.775  -8.870   2.710  0.00  0.00    -0.291 NA
ATOM     19  C   UNL     1      -0.665 -10.268   3.152  0.00  0.00    +0.090 C 
ATOM     20  C   UNL     1      -2.063 -10.812   3.476  0.00  0.00    +0.053 C 
ATOM     21  C   UNL     1      -2.972 -10.480   2.320  0.00  0.00    -0.017 A 
ATOM     22  C   UNL     1      -4.271 -11.022   1.990  0.00  0.00    +0.003 A 
ATOM     23  C   UNL     1      -5.082 -11.985   2.599  0.00  0.00    +0.010 A 
ATOM     24  C   UNL     1      -6.284 -12.257   1.995  0.00  0.00    +0.001 A 
ATOM     25  C   UNL     1      -6.687 -11.614   0.835  0.00  0.00    +0.002 A 
ATOM     26  C   UNL     1      -5.905 -10.658   0.211  0.00  0.00    +0.026 A 
ATOM     27  C   UNL     1      -4.679 -10.361   0.802  0.00  0.00    +0.047 A 
ATOM     28  N   UNL     1      -3.685  -9.489   0.459  0.00  0.00    -0.357 N 
ATOM     29  H   UNL     1      -3.698  -8.905  -0.315  0.00  0.00    +0.166 HD
ATOM     30  C   UNL     1      -2.667  -9.566   1.370  0.00  0.00    +0.034 A 
ATOM     31  C   UNL     1      -1.379  -8.777   1.371  0.00  0.00    +0.138 C 
ENDBRANCH  17  18
ENDBRANCH   4  17
TORSDOF 3
