REMARK  Name = ZINC01434783
REMARK  8 active torsions:
REMARK  status: ('A' for Active; 'I' for Inactive)
REMARK    1  A    between atoms: C_1  and  O_2
REMARK    2  A    between atoms: O_2  and  C_3
REMARK    3  A    between atoms: C_5  and  C_13
REMARK    4  A    between atoms: C_7  and  O_11
REMARK    5  A    between atoms: C_8  and  O_9
REMARK    6  A    between atoms: O_9  and  C_10
REMARK    7  A    between atoms: O_11  and  C_12
REMARK    8  A    between atoms: C_18  and  C_28
REMARK                            x       y       z     vdW  Elec       q    Type
REMARK                         _______ _______ _______ _____ _____    ______ ____
ROOT
ATOM      1  C   UNL     1      -0.081   0.290  -0.366  0.00  0.00    +0.032 C 
ATOM      2  C   UNL     1       0.583  -0.222   0.911  0.00  0.00    +0.059 C 
ATOM      3  C   UNL     1       2.039   0.211   0.945  0.00  0.00    +0.017 C 
ATOM      4  C   UNL     1       2.412   1.383   0.404  0.00  0.00    +0.037 C 
ATOM      5  C   UNL     1       3.814   1.945   0.388  0.00  0.00    +0.139 C 
ATOM      6  N   UNL     1       4.841   1.004   0.780  0.00  0.00    -0.331 N 
ATOM      7  C   UNL     1       4.885   0.483   2.072  0.00  0.00    +0.049 A 
ATOM      8  C   UNL     1       5.937   0.761   2.930  0.00  0.00    +0.025 A 
ATOM      9  C   UNL     1       5.915   0.259   4.219  0.00  0.00    +0.002 A 
ATOM     10  C   UNL     1       4.851  -0.513   4.652  0.00  0.00    +0.002 A 
ATOM     11  C   UNL     1       3.807  -0.806   3.792  0.00  0.00    +0.025 A 
ATOM     12  C   UNL     1       3.838  -0.322   2.496  0.00  0.00    +0.052 A 
ATOM     13  N   UNL     1       2.878  -0.667   1.552  0.00  0.00    -0.316 N 
ATOM     14  C   UNL     1       1.458   2.209  -0.234  0.00  0.00    +0.163 C 
ATOM     15  O   UNL     1       1.820   3.273  -0.697  0.00  0.00    -0.292 OA
ATOM     16  C   UNL     1       0.015   1.821  -0.360  0.00  0.00    +0.088 C 
ATOM     17  H   UNL     1       5.511   0.730   0.133  0.00  0.00    +0.147 HD
ATOM     18  H   UNL     1       2.801  -1.603   1.309  0.00  0.00    +0.152 HD
ENDROOT
BRANCH   5  19
ATOM     19  C   UNL     1       3.866   3.126   1.322  0.00  0.00    +0.015 A 
ATOM     20  C   UNL     1       2.873   3.305   2.266  0.00  0.00    +0.047 A 
ATOM     21  C   UNL     1       2.924   4.388   3.127  0.00  0.00    +0.124 A 
ATOM     22  C   UNL     1       3.963   5.298   3.035  0.00  0.00    +0.041 A 
ATOM     23  C   UNL     1       4.954   5.122   2.087  0.00  0.00    +0.041 A 
ATOM     24  C   UNL     1       4.906   4.036   1.230  0.00  0.00    +0.129 A 
ATOM     25  F   UNL     1       5.874   3.864   0.304  0.00  0.00    -0.205 F 
ATOM     26  F   UNL     1       1.956   4.560   4.053  0.00  0.00    -0.205 F 
ENDBRANCH   5  19
BRANCH   1  29
ATOM     27  C   UNL     1      -3.335  -1.284  -1.470  0.00  0.00    +0.165 A 
ATOM     28  C   UNL     1      -2.004  -0.895  -1.442  0.00  0.00    +0.053 A 
ATOM     29  C   UNL     1      -1.528  -0.130  -0.393  0.00  0.00    -0.036 A 
ATOM     30  C   UNL     1      -2.375   0.246   0.633  0.00  0.00    +0.053 A 
ATOM     31  C   UNL     1      -3.708  -0.134   0.609  0.00  0.00    +0.165 A 
ATOM     32  C   UNL     1      -4.190  -0.904  -0.443  0.00  0.00    +0.204 A 
BRANCH  27  34
ATOM     33  C   UNL     1      -2.866  -2.390  -3.523  0.00  0.00    +0.277 C 
ATOM     34  O   UNL     1      -3.802  -2.037  -2.502  0.00  0.00    -0.491 OA
ENDBRANCH  27  34
BRANCH  32  35
ATOM     35  O   UNL     1      -5.497  -1.283  -0.468  0.00  0.00    -0.488 OA
ATOM     36  C   UNL     1      -5.824  -2.525   0.160  0.00  0.00    +0.277 C 
ENDBRANCH  32  35
BRANCH  31  37
ATOM     37  O   UNL     1      -4.541   0.240   1.616  0.00  0.00    -0.491 OA
ATOM     38  C   UNL     1      -3.977   1.031   2.665  0.00  0.00    +0.277 C 
ENDBRANCH  31  37
ENDBRANCH   1  29
TORSDOF 5
