REMARK  Name = ZINC45830135
REMARK  9 active torsions:
REMARK  status: ('A' for Active; 'I' for Inactive)
REMARK    1  A    between atoms: C_1  and  C_2
REMARK    2  A    between atoms: C_2  and  C_4
REMARK    3  A    between atoms: C_2  and  S_17
REMARK    4  A    between atoms: N_6  and  C_7
REMARK    5  A    between atoms: C_12  and  N_13
REMARK    6  A    between atoms: S_17  and  C_18
REMARK    7  A    between atoms: C_21  and  C_29
REMARK    8  A    between atoms: N_22  and  C_23
REMARK    9  A    between atoms: C_29  and  N_30
REMARK                            x       y       z     vdW  Elec       q    Type
REMARK                         _______ _______ _______ _____ _____    ______ ____
ROOT
ATOM      1  C   UNL     1      -1.940   0.016   1.685  0.00  0.00    +0.197 A 
ATOM      2  N   UNL     1      -1.397   0.812   2.576  0.00  0.00    -0.122 NA
ATOM      3  N   UNL     1      -2.228   1.031   3.532  0.00  0.00    -0.135 NA
ATOM      4  C   UNL     1      -3.343   0.393   3.312  0.00  0.00    +0.122 A 
ATOM      5  N   UNL     1      -3.203  -0.273   2.123  0.00  0.00    -0.276 N 
ENDROOT
BRANCH   5   6
ATOM      6  C   UNL     1      -4.156  -1.085   1.490  0.00  0.00    +0.050 A 
ATOM      7  C   UNL     1      -5.306  -0.520   0.957  0.00  0.00    +0.026 A 
ATOM      8  C   UNL     1      -6.242  -1.322   0.333  0.00  0.00    +0.002 A 
ATOM      9  C   UNL     1      -6.034  -2.685   0.239  0.00  0.00    +0.000 A 
ATOM     10  C   UNL     1      -4.889  -3.251   0.769  0.00  0.00    +0.002 A 
ATOM     11  C   UNL     1      -3.947  -2.453   1.389  0.00  0.00    +0.026 A 
ENDBRANCH   5   6
BRANCH   1  12
ATOM     12  S   UNL     1      -1.188  -0.564   0.201  0.00  0.00    -0.073 S 
BRANCH  12  14
ATOM     13  C   UNL     1       0.338   1.704   0.122  0.00  0.00    +0.029 C 
ATOM     14  C   UNL     1       0.465   0.183   0.226  0.00  0.00    +0.137 C 
BRANCH  14  15
ATOM     15  C   UNL     1       1.268  -0.334  -0.940  0.00  0.00    +0.230 C 
ATOM     16  O   UNL     1       0.702  -0.739  -1.934  0.00  0.00    -0.274 OA
ATOM     17  N   UNL     1       2.614  -0.347  -0.878  0.00  0.00    -0.283 N 
ATOM     18  H   UNL     1       3.068   0.043  -0.115  0.00  0.00    +0.155 HD
BRANCH  17  19
ATOM     19  C   UNL     1       3.357  -0.925  -1.915  0.00  0.00    +0.064 A 
ATOM     20  C   UNL     1       2.921  -0.812  -3.229  0.00  0.00    +0.027 A 
ATOM     21  C   UNL     1       3.656  -1.382  -4.250  0.00  0.00    +0.022 A 
ATOM     22  C   UNL     1       4.825  -2.065  -3.964  0.00  0.00    +0.043 A 
ATOM     23  C   UNL     1       5.261  -2.179  -2.656  0.00  0.00    +0.054 A 
ATOM     24  C   UNL     1       4.533  -1.605  -1.632  0.00  0.00    +0.149 A 
ATOM     25 CL   UNL     1       5.746  -2.781  -5.250  0.00  0.00    -0.083 Cl
BRANCH  24  26
ATOM     26  N   UNL     1       5.004  -1.722  -0.233  0.00  0.00    +0.058 N 
ATOM     27  O   UNL     1       6.079  -2.221   0.003  0.00  0.00    -0.126 OA
ATOM     28  O   UNL     1       4.312  -1.318   0.673  0.00  0.00    -0.126 OA
ENDBRANCH  24  26
ENDBRANCH  17  19
ENDBRANCH  14  15
ENDBRANCH  12  14
ENDBRANCH   1  12
BRANCH   4  29
ATOM     29  C   UNL     1      -4.561   0.393   4.199  0.00  0.00    -0.001 C 
BRANCH  29  30
ATOM     30  N   UNL     1      -4.521  -0.777   5.086  0.00  0.00    +0.384 N 
ATOM     31  C   UNL     1      -3.428  -0.629   6.080  0.00  0.00    -0.078 C 
ATOM     32  C   UNL     1      -3.857  -1.580   7.225  0.00  0.00    -0.020 C 
ATOM     33  C   UNL     1      -5.393  -1.402   7.265  0.00  0.00    -0.020 C 
ATOM     34  C   UNL     1      -5.771  -0.865   5.872  0.00  0.00    -0.078 C 
ATOM     35  H   UNL     1      -4.390  -1.620   4.546  0.00  0.00    -0.081 HD
ENDBRANCH  29  30
ENDBRANCH   4  29
TORSDOF 8
