REMARK  Name = ZINC10002315
REMARK  14 active torsions:
REMARK  status: ('A' for Active; 'I' for Inactive)
REMARK    1  A    between atoms: C_1  and  C_2
REMARK    2  A    between atoms: C_2  and  O_3
REMARK    3  A    between atoms: O_3  and  C_4
REMARK    4  A    between atoms: C_6  and  C_14
REMARK    5  A    between atoms: C_9  and  O_10
REMARK    6  A    between atoms: O_10  and  C_11
REMARK    7  A    between atoms: C_11  and  C_12
REMARK    8  A    between atoms: N_15  and  N_16
REMARK    9  A    between atoms: C_17  and  C_19
REMARK   10  A    between atoms: C_19  and  C_21
REMARK   11  A    between atoms: C_19  and  N_24
REMARK   12  A    between atoms: C_21  and  C_22
REMARK   13  A    between atoms: C_21  and  C_23
REMARK   14  A    between atoms: C_25  and  C_27
REMARK                            x       y       z     vdW  Elec       q    Type
REMARK                         _______ _______ _______ _____ _____    ______ ____
ROOT
ATOM      1  N   UNL     1       3.555  -6.307  -0.769  0.00  0.00    -0.205 N 
ATOM      2  C   UNL     1       3.359  -4.974  -0.778  0.00  0.00    +0.253 C 
ATOM      3  O   UNL     1       4.087  -4.258  -1.434  0.00  0.00    -0.272 OA
ATOM      4  H   UNL     1       2.931  -6.886  -0.304  0.00  0.00    +0.177 HD
ENDROOT
BRANCH   1   6
ATOM      5  C   UNL     1       4.849  -8.141  -1.423  0.00  0.00    +0.138 C 
ATOM      6  N   UNL     1       4.660  -6.857  -1.432  0.00  0.00    -0.188 NA
BRANCH   5   9
ATOM      7  C   UNL     1       7.308 -10.640  -2.768  0.00  0.00    +0.164 A 
ATOM      8  C   UNL     1       6.220 -10.101  -2.107  0.00  0.00    +0.059 A 
ATOM      9  C   UNL     1       6.012  -8.720  -2.121  0.00  0.00    -0.001 A 
ATOM     10  C   UNL     1       6.912  -7.888  -2.791  0.00  0.00    +0.028 A 
ATOM     11  C   UNL     1       7.999  -8.431  -3.443  0.00  0.00    +0.064 A 
ATOM     12  C   UNL     1       8.202  -9.805  -3.435  0.00  0.00    +0.176 A 
ATOM     13 BR   UNL     1       9.216  -7.304  -4.351  0.00  0.00    -0.046 Br
BRANCH   7  14
ATOM     14  O   UNL     1       7.510 -11.985  -2.763  0.00  0.00    -0.489 OA
BRANCH  14  16
ATOM     15  C   UNL     1       6.944 -14.257  -2.164  0.00  0.00    +0.048 C 
ATOM     16  C   UNL     1       6.554 -12.781  -2.060  0.00  0.00    +0.226 C 
ENDBRANCH  14  16
ENDBRANCH   7  14
BRANCH  12  17
ATOM     17  O   UNL     1       9.275 -10.336  -4.079  0.00  0.00    -0.487 OA
BRANCH  17  18
ATOM     18  C   UNL     1      10.479 -10.481  -3.324  0.00  0.00    +0.226 C 
ATOM     19  C   UNL     1      11.567 -11.091  -4.210  0.00  0.00    +0.048 C 
ENDBRANCH  17  18
ENDBRANCH  12  17
ENDBRANCH   5   9
ENDBRANCH   1   6
BRANCH   2  20
ATOM     20  C   UNL     1       2.236  -4.372   0.026  0.00  0.00    +0.163 C 
BRANCH  20  21
ATOM     21  N   UNL     1       1.814  -3.112  -0.591  0.00  0.00    -0.300 N 
ATOM     22  C   UNL     1       0.563  -2.651  -0.393  0.00  0.00    +0.245 C 
ATOM     23  O   UNL     1      -0.215  -3.280   0.297  0.00  0.00    -0.270 OA
ATOM     24  H   UNL     1       2.435  -2.610  -1.142  0.00  0.00    +0.150 HD
BRANCH  22  25
ATOM     25  C   UNL     1       0.138  -1.380  -1.015  0.00  0.00    +0.037 A 
ATOM     26  C   UNL     1      -1.158  -0.900  -0.812  0.00  0.00    +0.016 A 
ATOM     27  C   UNL     1      -1.550   0.286  -1.395  0.00  0.00    +0.039 A 
ATOM     28  C   UNL     1      -0.661   1.001  -2.183  0.00  0.00    +0.123 A 
ATOM     29  C   UNL     1       0.626   0.529  -2.388  0.00  0.00    +0.039 A 
ATOM     30  C   UNL     1       1.029  -0.655  -1.809  0.00  0.00    +0.016 A 
ATOM     31  F   UNL     1      -1.050   2.163  -2.752  0.00  0.00    -0.205 F 
ENDBRANCH  22  25
ENDBRANCH  20  21
BRANCH  20  32
ATOM     32  C   UNL     1       2.718  -4.104   1.454  0.00  0.00    +0.012 C 
ATOM     33  C   UNL     1       1.563  -3.539   2.284  0.00  0.00    +0.009 C 
ATOM     34  C   UNL     1       3.205  -5.412   2.081  0.00  0.00    +0.009 C 
ENDBRANCH  20  32
ENDBRANCH   2  20
TORSDOF 10
