REMARK  Name = ZINC09685856
REMARK  6 active torsions:
REMARK  status: ('A' for Active; 'I' for Inactive)
REMARK    1  A    between atoms: C_1  and  C_2
REMARK    2  A    between atoms: C_2  and  C_3
REMARK    3  A    between atoms: C_8  and  S_9
REMARK    4  A    between atoms: S_9  and  N_12
REMARK    5  A    between atoms: N_12  and  C_13
REMARK    6  A    between atoms: C_18  and  C_19
REMARK                            x       y       z     vdW  Elec       q    Type
REMARK                         _______ _______ _______ _____ _____    ______ ____
ROOT
ATOM      1  C   UNL     1      -1.533   1.472  -1.721  0.00  0.00    -0.020 A 
ATOM      2  C   UNL     1      -1.975   2.262  -2.760  0.00  0.00    +0.016 A 
ATOM      3  C   UNL     1      -1.255   3.397  -3.123  0.00  0.00    +0.011 A 
ATOM      4  C   UNL     1      -0.079   3.733  -2.427  0.00  0.00    +0.049 A 
ATOM      5  C   UNL     1       0.347   2.926  -1.379  0.00  0.00    +0.055 A 
ATOM      6  C   UNL     1      -0.374   1.803  -1.035  0.00  0.00    +0.114 A 
ATOM      7  N   UNL     1       0.428   4.892  -2.987  0.00  0.00    -0.357 N 
ATOM      8  H   UNL     1       1.236   5.340  -2.692  0.00  0.00    +0.166 HD
ATOM      9  C   UNL     1      -0.349   5.309  -3.995  0.00  0.00    +0.028 A 
ATOM     10  C   UNL     1      -1.418   4.437  -4.141  0.00  0.00    +0.046 A 
ATOM     11  C   UNL     1      -2.421   4.615  -5.125  0.00  0.00    +0.165 C 
ATOM     12  O   UNL     1      -3.324   3.815  -5.254  0.00  0.00    -0.292 OA
ATOM     13  C   UNL     1      -2.326   5.840  -6.008  0.00  0.00    +0.080 C 
ATOM     14  C   UNL     1      -0.861   6.217  -6.228  0.00  0.00    +0.014 C 
ATOM     15  C   UNL     1      -0.176   6.516  -4.888  0.00  0.00    +0.054 C 
ENDROOT
BRANCH   6  16
ATOM     16  S   UNL     1       0.178   0.782   0.290  0.00  0.00    +0.073 S 
ATOM     17  O   UNL     1       1.376   1.367   0.782  0.00  0.00    -0.150 OA
ATOM     18  O   UNL     1      -0.951   0.548   1.120  0.00  0.00    -0.150 OA
BRANCH  16  19
ATOM     19  N   UNL     1       0.599  -0.682  -0.361  0.00  0.00    -0.216 N 
ATOM     20  H   UNL     1       0.142  -1.489  -0.075  0.00  0.00    +0.174 HD
BRANCH  19  21
ATOM     21  C   UNL     1       1.611  -0.754  -1.321  0.00  0.00    +0.051 A 
ATOM     22  C   UNL     1       2.711   0.090  -1.238  0.00  0.00    +0.026 A 
ATOM     23  C   UNL     1       3.710   0.017  -2.189  0.00  0.00    +0.022 A 
ATOM     24  C   UNL     1       3.615  -0.897  -3.224  0.00  0.00    +0.041 A 
ATOM     25  C   UNL     1       2.521  -1.739  -3.309  0.00  0.00    +0.025 A 
ATOM     26  C   UNL     1       1.522  -1.674  -2.358  0.00  0.00    -0.027 A 
ATOM     27  C   UNL     1       0.333  -2.596  -2.448  0.00  0.00    +0.046 C 
ATOM     28 CL   UNL     1       4.873  -0.987  -4.417  0.00  0.00    -0.084 Cl
ENDBRANCH  19  21
ENDBRANCH  16  19
ENDBRANCH   6  16
BRANCH   1  30
ATOM     29  C   UNL     1      -3.397   0.629  -0.319  0.00  0.00    +0.009 C 
ATOM     30  C   UNL     1      -2.313   0.244  -1.328  0.00  0.00    +0.034 C 
ENDBRANCH   1  30
TORSDOF 4
