REMARK  Name = ZINC39330639
REMARK  4 active torsions:
REMARK  status: ('A' for Active; 'I' for Inactive)
REMARK    1  A    between atoms: C_4  and  C_7
REMARK    2  A    between atoms: C_17  and  N_19
REMARK    3  A    between atoms: C_23  and  C_26
REMARK    4  A    between atoms: C_31  and  C_34
REMARK                            x       y       z     vdW  Elec       q    Type
REMARK                         _______ _______ _______ _____ _____    ______ ____
ROOT
ATOM      1  N   UNL     1       3.029  -2.890   1.157  0.00  0.00    +0.391 N 
ATOM      2  C   UNL     1       3.284  -4.334   1.223  0.00  0.00    -0.077 C 
ATOM      3  C   UNL     1       2.691  -4.902   2.514  0.00  0.00    -0.018 C 
ATOM      4  C   UNL     1       1.181  -4.648   2.531  0.00  0.00    +0.009 C 
ATOM      5  C   UNL     1       0.924  -3.145   2.387  0.00  0.00    +0.059 C 
ATOM      6  C   UNL     1       1.583  -2.642   1.100  0.00  0.00    -0.065 C 
ATOM      7  H   UNL     1       3.413  -2.444   1.977  0.00  0.00    -0.080 HD
ENDROOT
BRANCH   1  18
ATOM      8  C   UNL     1       5.169  -2.450   0.131  0.00  0.00    -0.036 C 
ATOM      9  C   UNL     1       5.867  -3.180  -0.835  0.00  0.00    +0.000 A 
ATOM     10  C   UNL     1       7.265  -3.342  -0.745  0.00  0.00    +0.030 A 
ATOM     11  C   UNL     1       7.920  -4.058  -1.699  0.00  0.00    +0.042 A 
ATOM     12  C   UNL     1       7.236  -4.637  -2.767  0.00  0.00    +0.022 A 
ATOM     13  C   UNL     1       5.887  -4.515  -2.907  0.00  0.00    +0.025 A 
ATOM     14  C   UNL     1       5.146  -3.789  -1.958  0.00  0.00    +0.041 A 
ATOM     15  N   UNL     1       3.821  -3.671  -2.097  0.00  0.00    -0.286 N 
ATOM     16  C   UNL     1       3.056  -3.007  -1.253  0.00  0.00    +0.208 C 
ATOM     17  O   UNL     1       1.855  -2.941  -1.443  0.00  0.00    -0.277 OA
ATOM     18  C   UNL     1       3.667  -2.335  -0.044  0.00  0.00    +0.052 C 
ATOM     19 CL   UNL     1       9.641  -4.254  -1.585  0.00  0.00    -0.084 Cl
ATOM     20  H   UNL     1       3.400  -4.096  -2.861  0.00  0.00    +0.155 HD
BRANCH   8  24
ATOM     21  C   UNL     1       7.135  -0.673   3.377  0.00  0.00    +0.000 A 
ATOM     22  C   UNL     1       6.455   0.119   2.466  0.00  0.00    +0.001 A 
ATOM     23  C   UNL     1       5.806  -0.455   1.396  0.00  0.00    +0.008 A 
ATOM     24  C   UNL     1       5.834  -1.849   1.229  0.00  0.00    -0.022 A 
ATOM     25  C   UNL     1       6.527  -2.643   2.158  0.00  0.00    +0.008 A 
ATOM     26  C   UNL     1       7.169  -2.050   3.221  0.00  0.00    +0.001 A 
ENDBRANCH   8  24
ENDBRANCH   1  18
BRANCH   5  27
ATOM     27  C   UNL     1      -0.560  -2.892   2.325  0.00  0.00    +0.217 C 
ATOM     28  O   UNL     1      -1.140  -2.940   1.261  0.00  0.00    -0.275 OA
ATOM     29  N   UNL     1      -1.243  -2.612   3.453  0.00  0.00    -0.301 N 
ATOM     30  C   UNL     1      -0.577  -2.656   4.762  0.00  0.00    +0.108 C 
ATOM     31  C   UNL     1      -1.377  -3.574   5.691  0.00  0.00    +0.032 C 
ATOM     32  C   UNL     1      -2.831  -3.100   5.742  0.00  0.00    +0.078 C 
ATOM     33  C   UNL     1      -3.444  -3.178   4.342  0.00  0.00    +0.032 C 
ATOM     34  C   UNL     1      -2.666  -2.250   3.396  0.00  0.00    +0.108 C 
BRANCH  32  35
ATOM     35  C   UNL     1      -3.614  -3.981   6.682  0.00  0.00    +0.214 C 
ATOM     36  O   UNL     1      -3.062  -4.897   7.255  0.00  0.00    -0.276 OA
ATOM     37  N   UNL     1      -4.926  -3.750   6.886  0.00  0.00    -0.329 N 
ATOM     38  H   UNL     1      -5.366  -3.018   6.428  0.00  0.00    +0.145 HD
ATOM     39  H   UNL     1      -5.429  -4.317   7.491  0.00  0.00    +0.145 HD
ENDBRANCH  32  35
ENDBRANCH   5  27
TORSDOF 4
