REMARK  Name = ZINC07912670
REMARK  7 active torsions:
REMARK  status: ('A' for Active; 'I' for Inactive)
REMARK    1  A    between atoms: C_1  and  C_2
REMARK    2  A    between atoms: C_5  and  S_8
REMARK    3  A    between atoms: S_8  and  N_11
REMARK    4  A    between atoms: C_16  and  C_18
REMARK    5  A    between atoms: C_16  and  C_24
REMARK    6  A    between atoms: C_16  and  N_56
REMARK    7  A    between atoms: N_26  and  C_27
REMARK                            x       y       z     vdW  Elec       q    Type
REMARK                         _______ _______ _______ _____ _____    ______ ____
ROOT
ATOM      1  N   UNL     1       0.524  -1.025  -1.732  0.00  0.00    -0.180 NA
ATOM      2  C   UNL     1      -0.669  -1.248  -2.562  0.00  0.00    +0.091 C 
ATOM      3  C   UNL     1      -0.255  -1.147  -4.039  0.00  0.00    -0.060 C 
ATOM      4  C   UNL     1       2.047  -1.700  -3.513  0.00  0.00    -0.060 C 
ATOM      5  C   UNL     1       1.729  -1.819  -2.018  0.00  0.00    +0.091 C 
ATOM      6  N   UNL     1       0.851  -2.098  -4.286  0.00  0.00    +0.392 N 
ATOM      7  H   UNL     1       0.557  -3.034  -3.986  0.00  0.00    -0.080 HD
ENDROOT
BRANCH   1   8
ATOM      8  S   UNL     1       0.510   0.085  -0.503  0.00  0.00    +0.061 S 
ATOM      9  O   UNL     1       1.515  -0.316   0.418  0.00  0.00    -0.153 OA
ATOM     10  O   UNL     1      -0.849   0.252  -0.123  0.00  0.00    -0.153 OA
BRANCH   8  15
ATOM     11  C   UNL     1       2.308   5.352  -2.833  0.00  0.00    +0.044 C 
ATOM     12  C   UNL     1       1.859   4.037  -2.251  0.00  0.00    -0.050 A 
ATOM     13  C   UNL     1       0.517   3.706  -2.245  0.00  0.00    +0.005 A 
ATOM     14  C   UNL     1       0.105   2.499  -1.711  0.00  0.00    +0.029 A 
ATOM     15  C   UNL     1       1.035   1.623  -1.184  0.00  0.00    +0.105 A 
ATOM     16  C   UNL     1       2.377   1.953  -1.191  0.00  0.00    +0.029 A 
ATOM     17  C   UNL     1       2.789   3.160  -1.726  0.00  0.00    +0.005 A 
ENDBRANCH   8  15
ENDBRANCH   1   8
BRANCH   6  18
ATOM     18  C   UNL     1       1.172  -2.134  -5.728  0.00  0.00    +0.050 C 
BRANCH  18  19
ATOM     19  C   UNL     1       2.301  -3.106  -5.952  0.00  0.00    -0.052 A 
ATOM     20  C   UNL     1       2.294  -4.333  -5.316  0.00  0.00    +0.002 A 
ATOM     21  C   UNL     1       3.328  -5.227  -5.526  0.00  0.00    +0.000 A 
ATOM     22  C   UNL     1       4.374  -4.889  -6.364  0.00  0.00    +0.000 A 
ATOM     23  C   UNL     1       4.383  -3.660  -6.997  0.00  0.00    +0.000 A 
ATOM     24  C   UNL     1       3.347  -2.769  -6.790  0.00  0.00    +0.002 A 
ENDBRANCH  18  19
BRANCH  18  25
ATOM     25  C   UNL     1      -0.046  -2.595  -6.487  0.00  0.00    +0.204 C 
ATOM     26  O   UNL     1      -0.867  -3.304  -5.944  0.00  0.00    -0.277 OA
ATOM     27  N   UNL     1      -0.223  -2.219  -7.769  0.00  0.00    -0.314 N 
ATOM     28  H   UNL     1       0.434  -1.653  -8.203  0.00  0.00    +0.149 HD
BRANCH  27  29
ATOM     29  C   UNL     1      -1.407  -2.667  -8.507  0.00  0.00    +0.073 C 
ATOM     30  C   UNL     1      -1.201  -3.156  -9.942  0.00  0.00    +0.024 C 
ATOM     31  C   UNL     1      -1.874  -1.806  -9.682  0.00  0.00    +0.024 C 
ENDBRANCH  27  29
ENDBRANCH  18  25
ENDBRANCH   6  18
TORSDOF 6
