REMARK  Name = ZINC18113945
REMARK  7 active torsions:
REMARK  status: ('A' for Active; 'I' for Inactive)
REMARK    1  A    between atoms: C_1  and  C_2
REMARK    2  A    between atoms: C_4  and  C_24
REMARK    3  A    between atoms: C_5  and  N_9
REMARK    4  A    between atoms: C_6  and  C_8
REMARK    5  A    between atoms: N_9  and  S_10
REMARK    6  A    between atoms: C_12  and  C_20
REMARK    7  A    between atoms: C_14  and  C_16
REMARK                            x       y       z     vdW  Elec       q    Type
REMARK                         _______ _______ _______ _____ _____    ______ ____
ROOT
ATOM      1  S   UNL     1       1.387  -4.883   1.145  0.00  0.00    +0.118 S 
ATOM      2  N   UNL     1       2.734  -4.039   1.159  0.00  0.00    -0.168 NA
ATOM      3  C   UNL     1       3.819  -4.682   0.802  0.00  0.00    +0.193 C 
ATOM      4  N   UNL     1       3.814  -5.955   0.449  0.00  0.00    -0.207 NA
ATOM      5  C   UNL     1       2.779  -6.773   0.392  0.00  0.00    +0.193 C 
ATOM      6  N   UNL     1       1.559  -6.399   0.696  0.00  0.00    -0.168 NA
ENDROOT
BRANCH   5   7
ATOM      7  C   UNL     1       3.009  -8.197  -0.041  0.00  0.00    +0.250 C 
ATOM      8 CL   UNL     1       1.441  -9.089  -0.032  0.00  0.00    -0.075 Cl
ATOM      9 CL   UNL     1       3.700  -8.215  -1.706  0.00  0.00    -0.075 Cl
ATOM     10 CL   UNL     1       4.160  -8.993   1.096  0.00  0.00    -0.075 Cl
ENDBRANCH   5   7
BRANCH   3  11
ATOM     11  C   UNL     1       5.129  -3.937   0.793  0.00  0.00    +0.250 C 
ATOM     12 CL   UNL     1       6.449  -5.048   0.269  0.00  0.00    -0.075 Cl
ATOM     13 CL   UNL     1       5.023  -2.548  -0.350  0.00  0.00    -0.075 Cl
ATOM     14 CL   UNL     1       5.483  -3.325   2.452  0.00  0.00    -0.075 Cl
ENDBRANCH   3  11
BRANCH   1  15
ATOM     15  N   UNL     1       0.500  -4.202  -0.076  0.00  0.00    -0.262 N 
ATOM     16  H   UNL     1       0.285  -4.720  -0.867  0.00  0.00    +0.163 HD
BRANCH  15  21
ATOM     17  C   UNL     1      -1.287   1.161   0.370  0.00  0.00    +0.044 C 
ATOM     18  C   UNL     1      -0.812  -0.264   0.251  0.00  0.00    -0.050 A 
ATOM     19  C   UNL     1      -0.329  -0.732  -0.957  0.00  0.00    +0.008 A 
ATOM     20  C   UNL     1       0.107  -2.038  -1.069  0.00  0.00    -0.028 A 
ATOM     21  C   UNL     1       0.060  -2.881   0.034  0.00  0.00    +0.045 A 
ATOM     22  C   UNL     1      -0.426  -2.407   1.246  0.00  0.00    -0.028 A 
ATOM     23  C   UNL     1      -0.855  -1.099   1.353  0.00  0.00    +0.008 A 
ATOM     24  C   UNL     1      -0.480  -3.319   2.445  0.00  0.00    +0.046 C 
ATOM     25  C   UNL     1       0.633  -2.547  -2.386  0.00  0.00    +0.046 C 
ENDBRANCH  15  21
ENDBRANCH   1  15
TORSDOF 4
