REMARK  Name = ZINC36991729
REMARK  6 active torsions:
REMARK  status: ('A' for Active; 'I' for Inactive)
REMARK    1  A    between atoms: C_1  and  C_2
REMARK    2  A    between atoms: C_2  and  C_3
REMARK    3  A    between atoms: C_3  and  C_5
REMARK    4  A    between atoms: C_3  and  N_12
REMARK    5  A    between atoms: N_12  and  C_13
REMARK    6  A    between atoms: C_21  and  O_23
REMARK                            x       y       z     vdW  Elec       q    Type
REMARK                         _______ _______ _______ _____ _____    ______ ____
ROOT
ATOM      1  N   UNL     1      -0.153  -0.227  -2.541  0.00  0.00    +0.390 N 
ATOM      2  H   UNL     1       0.194  -0.750  -3.331  0.00  0.00    -0.084 HD
ATOM      3  H   UNL     1      -1.108  -0.495  -2.354  0.00  0.00    -0.084 HD
ENDROOT
BRANCH   1   4
ATOM      4  C   UNL     1      -0.099   1.210  -2.842  0.00  0.00    +0.002 C 
ATOM      5  C   UNL     1      -0.917   2.022  -1.811  0.00  0.00    +0.218 C 
ATOM      6  O   UNL     1      -2.208   2.122  -2.436  0.00  0.00    -0.493 OA
ATOM      7  C   UNL     1      -2.059   2.063  -3.788  0.00  0.00    +0.126 A 
ATOM      8  C   UNL     1      -0.826   1.520  -4.136  0.00  0.00    -0.016 A 
ATOM      9  C   UNL     1      -0.472   1.358  -5.457  0.00  0.00    +0.009 A 
ATOM     10  C   UNL     1      -1.343   1.743  -6.460  0.00  0.00    +0.046 A 
ATOM     11  C   UNL     1      -2.574   2.292  -6.129  0.00  0.00    +0.120 A 
ATOM     12  C   UNL     1      -2.932   2.453  -4.799  0.00  0.00    +0.091 A 
BRANCH  11  13
ATOM     13  O   UNL     1      -3.431   2.675  -7.111  0.00  0.00    -0.507 OA
ATOM     14  H   UNL     1      -4.040   1.979  -7.395  0.00  0.00    +0.292 HD
ENDBRANCH  11  13
ENDBRANCH   1   4
BRANCH   1  15
ATOM     15  C   UNL     1       0.675  -0.513  -1.363  0.00  0.00    -0.040 C 
BRANCH  15  16
ATOM     16  C   UNL     1       2.122  -0.242  -1.688  0.00  0.00    -0.061 A 
ATOM     17  C   UNL     1       2.629  -0.593  -2.925  0.00  0.00    +0.003 A 
ATOM     18  C   UNL     1       3.956  -0.344  -3.224  0.00  0.00    +0.015 A 
ATOM     19  C   UNL     1       4.775   0.257  -2.285  0.00  0.00    +0.018 A 
ATOM     20  C   UNL     1       4.267   0.608  -1.048  0.00  0.00    +0.015 A 
ATOM     21  C   UNL     1       2.939   0.363  -0.751  0.00  0.00    +0.003 A 
ATOM     22 BR   UNL     1       6.590   0.597  -2.693  0.00  0.00    -0.050 Br
ENDBRANCH  15  16
BRANCH  15  24
ATOM     23  C   UNL     1      -0.928  -2.222  -0.496  0.00  0.00    +0.002 C 
ATOM     24  C   UNL     1       0.509  -1.981  -0.965  0.00  0.00    -0.015 C 
ENDBRANCH  15  24
ENDBRANCH   1  15
TORSDOF 5
