REMARK  Name = ZINC04339132
REMARK  5 active torsions:
REMARK  status: ('A' for Active; 'I' for Inactive)
REMARK    1  A    between atoms: C_1  and  C_2
REMARK    2  A    between atoms: C_2  and  C_20
REMARK    3  A    between atoms: C_3  and  C_15
REMARK    4  A    between atoms: C_5  and  C_9
REMARK    5  A    between atoms: N_7  and  O_8
REMARK                            x       y       z     vdW  Elec       q    Type
REMARK                         _______ _______ _______ _____ _____    ______ ____
ROOT
ATOM      1  C   UNL     1       6.030  -0.439  -2.781  0.00  0.00    +0.037 C 
ATOM      2  C   UNL     1       5.551  -0.941  -1.417  0.00  0.00    +0.086 C 
ATOM      3  C   UNL     1       4.606  -2.110  -1.587  0.00  0.00    +0.074 C 
ATOM      4  N   UNL     1       3.585  -1.952  -0.804  0.00  0.00    -0.259 NA
ATOM      5  C   UNL     1       3.711  -0.707  -0.038  0.00  0.00    +0.231 C 
ATOM      6  N   UNL     1       4.739   0.099  -0.739  0.00  0.00    -0.151 NA
ATOM      7  C   UNL     1       6.745  -1.338  -0.546  0.00  0.00    +0.037 C 
ENDROOT
BRANCH   5   8
ATOM      8  C   UNL     1       2.396   0.029  -0.021  0.00  0.00    -0.007 A 
ATOM      9  C   UNL     1       1.208  -0.679  -0.014  0.00  0.00    +0.007 A 
ATOM     10  C   UNL     1       0.002  -0.004   0.002  0.00  0.00    +0.000 A 
ATOM     11  C   UNL     1      -0.017   1.378   0.010  0.00  0.00    +0.000 A 
ATOM     12  C   UNL     1       1.171   2.086   0.002  0.00  0.00    +0.000 A 
ATOM     13  C   UNL     1       2.377   1.411  -0.014  0.00  0.00    +0.007 A 
ENDBRANCH   5   8
BRANCH   3  14
ATOM     14  C   UNL     1       4.813  -3.242  -2.493  0.00  0.00    +0.035 A 
ATOM     15  C   UNL     1       4.005  -4.347  -2.709  0.00  0.00    +0.017 A 
ATOM     16  C   UNL     1       4.441  -5.271  -3.627  0.00  0.00    +0.008 A 
ATOM     17  C   UNL     1       5.621  -5.064  -4.267  0.00  0.00    +0.046 A 
ATOM     18  S   UNL     1       6.167  -3.554  -3.612  0.00  0.00    -0.095 S 
ENDBRANCH   3  14
BRANCH   6  19
ATOM     19  O   UNL     1       5.548   0.859   0.213  0.00  0.00    -0.309 OA
ATOM     20  H   UNL     1       5.040   1.477   0.756  0.00  0.00    +0.237 HD
ENDBRANCH   6  19
TORSDOF 3
