REMARK  Name = ZINC45948926
REMARK  15 active torsions:
REMARK  status: ('A' for Active; 'I' for Inactive)
REMARK    1  A    between atoms: C_1  and  C_2
REMARK    2  A    between atoms: C_2  and  O_3
REMARK    3  A    between atoms: O_3  and  C_4
REMARK    4  A    between atoms: C_6  and  C_16
REMARK    5  A    between atoms: C_8  and  O_13
REMARK    6  A    between atoms: C_9  and  O_10
REMARK    7  A    between atoms: O_10  and  C_11
REMARK    8  A    between atoms: C_11  and  C_12
REMARK    9  A    between atoms: O_13  and  C_14
REMARK   10  A    between atoms: C_14  and  C_15
REMARK   11  A    between atoms: N_18  and  N_19
REMARK   12  A    between atoms: C_20  and  C_22
REMARK   13  A    between atoms: C_23  and  C_33
REMARK   14  A    between atoms: C_25  and  C_32
REMARK   15  A    between atoms: C_27  and  C_31
REMARK                            x       y       z     vdW  Elec       q    Type
REMARK                         _______ _______ _______ _____ _____    ______ ____
ROOT
ATOM      1  C   UNL     1       0.622  -4.913   0.167  0.00  0.00    +0.260 C 
ATOM      2  O   UNL     1       1.742  -4.438   0.173  0.00  0.00    -0.269 OA
ATOM      3  N   UNL     1       0.457  -6.247   0.061  0.00  0.00    -0.230 N 
ATOM      4  H   UNL     1      -0.436  -6.626   0.056  0.00  0.00    +0.173 HD
ENDROOT
BRANCH   1   7
ATOM      5  C   UNL     1      -1.489  -1.822   0.482  0.00  0.00    +0.166 A 
ATOM      6  C   UNL     1      -0.385  -2.647   0.383  0.00  0.00    +0.062 A 
ATOM      7  C   UNL     1      -0.555  -4.030   0.274  0.00  0.00    +0.045 A 
ATOM      8  C   UNL     1      -1.842  -4.574   0.265  0.00  0.00    +0.062 A 
ATOM      9  C   UNL     1      -2.943  -3.744   0.365  0.00  0.00    +0.166 A 
ATOM     10  C   UNL     1      -2.770  -2.367   0.479  0.00  0.00    +0.204 A 
BRANCH   5  11
ATOM     11  O   UNL     1      -1.324  -0.476   0.589  0.00  0.00    -0.488 OA
BRANCH  11  13
ATOM     12  C   UNL     1       0.003   1.540   0.712  0.00  0.00    +0.048 C 
ATOM     13  C   UNL     1       0.018   0.015   0.585  0.00  0.00    +0.226 C 
ENDBRANCH  11  13
ENDBRANCH   5  11
BRANCH  10  14
ATOM     14  O   UNL     1      -3.854  -1.554   0.584  0.00  0.00    -0.485 OA
BRANCH  14  15
ATOM     15  C   UNL     1      -4.414  -1.060  -0.635  0.00  0.00    +0.226 C 
ATOM     16  C   UNL     1      -5.617  -0.169  -0.319  0.00  0.00    +0.048 C 
ENDBRANCH  14  15
ENDBRANCH  10  14
BRANCH   9  17
ATOM     17  O   UNL     1      -4.196  -4.274   0.357  0.00  0.00    -0.488 OA
BRANCH  17  18
ATOM     18  C   UNL     1      -4.299  -5.694   0.242  0.00  0.00    +0.226 C 
ATOM     19  C   UNL     1      -5.774  -6.101   0.250  0.00  0.00    +0.048 C 
ENDBRANCH  17  18
ENDBRANCH   9  17
ENDBRANCH   1   7
BRANCH   3  20
ATOM     20  N   UNL     1       1.574  -7.085  -0.040  0.00  0.00    -0.230 N 
ATOM     21  C   UNL     1       1.409  -8.419  -0.145  0.00  0.00    +0.267 C 
ATOM     22  O   UNL     1       0.289  -8.894  -0.152  0.00  0.00    -0.268 OA
ATOM     23  H   UNL     1       2.467  -6.707  -0.035  0.00  0.00    +0.173 HD
BRANCH  21  24
ATOM     24  C   UNL     1       2.581  -9.299  -0.252  0.00  0.00    +0.081 A 
ATOM     25  C   UNL     1       2.615 -10.653  -0.370  0.00  0.00    -0.020 A 
ATOM     26  C   UNL     1       3.850 -11.316  -0.459  0.00  0.00    +0.032 A 
ATOM     27  C   UNL     1       4.119 -12.701  -0.586  0.00  0.00    +0.050 A 
ATOM     28  N   UNL     1       5.366 -13.113  -0.653  0.00  0.00    -0.237 NA
ATOM     29  C   UNL     1       6.391 -12.279  -0.607  0.00  0.00    +0.128 A 
ATOM     30  N   UNL     1       6.212 -10.977  -0.490  0.00  0.00    -0.225 NA
ATOM     31  C   UNL     1       4.997 -10.480  -0.416  0.00  0.00    +0.113 A 
ATOM     32  S   UNL     1       4.309  -8.851  -0.266  0.00  0.00    -0.064 S 
ATOM     33  C   UNL     1       7.792 -12.827  -0.690  0.00  0.00    +0.088 C 
ATOM     34  C   UNL     1       2.986 -13.694  -0.642  0.00  0.00    +0.066 C 
ATOM     35  C   UNL     1       1.331 -11.441  -0.405  0.00  0.00    +0.046 C 
ENDBRANCH  21  24
ENDBRANCH   3  20
TORSDOF 9
