REMARK  Name = ZINC45638169
REMARK  10 active torsions:
REMARK  status: ('A' for Active; 'I' for Inactive)
REMARK    1  A    between atoms: C_1  and  C_2
REMARK    2  A    between atoms: C_11  and  N_31
REMARK    3  A    between atoms: C_13  and  S_15
REMARK    4  A    between atoms: S_15  and  C_16
REMARK    5  A    between atoms: C_16  and  C_17
REMARK    6  A    between atoms: N_19  and  C_20
REMARK    7  A    between atoms: C_23  and  O_28
REMARK    8  A    between atoms: C_25  and  O_26
REMARK    9  A    between atoms: O_26  and  C_27
REMARK   10  A    between atoms: O_28  and  C_29
REMARK                            x       y       z     vdW  Elec       q    Type
REMARK                         _______ _______ _______ _____ _____    ______ ____
ROOT
ATOM      1  C   UNL     1      -2.873  -0.088  -0.217  0.00  0.00    +0.008 C 
ATOM      2  C   UNL     1      -2.326  -1.510  -0.362  0.00  0.00    -0.009 C 
ATOM      3  C   UNL     1      -1.108  -1.499  -1.290  0.00  0.00    +0.008 C 
ATOM      4  C   UNL     1      -0.709  -2.934  -1.637  0.00  0.00    +0.037 C 
ATOM      5  C   UNL     1      -0.539  -3.726  -0.343  0.00  0.00    -0.025 A 
ATOM      6  C   UNL     1      -1.086  -3.283   0.810  0.00  0.00    -0.004 A 
ATOM      7  S   UNL     1      -0.646  -4.494   2.032  0.00  0.00    -0.073 S 
ATOM      8  C   UNL     1       0.270  -5.591   0.998  0.00  0.00    +0.115 A 
ATOM      9  C   UNL     1       0.204  -4.975  -0.277  0.00  0.00    +0.051 A 
ATOM     10  C   UNL     1       0.866  -5.639  -1.350  0.00  0.00    +0.129 A 
ATOM     11  N   UNL     1       1.483  -6.776  -1.040  0.00  0.00    -0.207 NA
ATOM     12  C   UNL     1       1.504  -7.297   0.178  0.00  0.00    +0.191 A 
ATOM     13  N   UNL     1       0.903  -6.725   1.225  0.00  0.00    -0.214 NA
ATOM     14  C   UNL     1      -1.895  -2.038   1.013  0.00  0.00    +0.046 C 
ENDROOT
BRANCH  10  15
ATOM     15  N   UNL     1       0.868  -5.131  -2.636  0.00  0.00    -0.343 N 
ATOM     16  H   UNL     1       1.497  -5.472  -3.291  0.00  0.00    +0.144 HD
ATOM     17  H   UNL     1       0.240  -4.434  -2.883  0.00  0.00    +0.144 HD
ENDBRANCH  10  15
BRANCH  12  18
ATOM     18  S   UNL     1       2.365  -8.814   0.429  0.00  0.00    -0.077 S 
BRANCH  18  19
ATOM     19  C   UNL     1       3.013  -9.227  -1.214  0.00  0.00    +0.173 C 
BRANCH  19  20
ATOM     20  C   UNL     1       3.781 -10.522  -1.140  0.00  0.00    +0.228 C 
ATOM     21  O   UNL     1       3.881 -11.108  -0.082  0.00  0.00    -0.275 OA
ATOM     22  N   UNL     1       4.356 -11.028  -2.248  0.00  0.00    -0.282 N 
ATOM     23  H   UNL     1       4.348 -10.520  -3.074  0.00  0.00    +0.155 HD
BRANCH  22  24
ATOM     24  C   UNL     1       4.967 -12.291  -2.207  0.00  0.00    +0.077 A 
ATOM     25  C   UNL     1       4.648 -13.184  -1.194  0.00  0.00    +0.050 A 
ATOM     26  C   UNL     1       5.250 -14.428  -1.154  0.00  0.00    +0.084 A 
ATOM     27  C   UNL     1       6.173 -14.786  -2.126  0.00  0.00    +0.142 A 
ATOM     28  C   UNL     1       6.495 -13.896  -3.140  0.00  0.00    +0.094 A 
ATOM     29  C   UNL     1       5.889 -12.651  -3.186  0.00  0.00    +0.145 A 
ATOM     30 CL   UNL     1       4.850 -15.543   0.115  0.00  0.00    -0.080 Cl
BRANCH  29  31
ATOM     31  O   UNL     1       6.199 -11.780  -4.183  0.00  0.00    -0.493 OA
ATOM     32  C   UNL     1       7.154 -12.217  -5.153  0.00  0.00    +0.277 C 
ENDBRANCH  29  31
BRANCH  27  33
ATOM     33  O   UNL     1       6.764 -16.010  -2.083  0.00  0.00    -0.494 OA
ATOM     34  C   UNL     1       7.705 -16.312  -3.115  0.00  0.00    +0.277 C 
ENDBRANCH  27  33
ENDBRANCH  22  24
ENDBRANCH  19  20
ENDBRANCH  18  19
ENDBRANCH  12  18
TORSDOF 7
