REMARK  Name = ZINC67189505
REMARK  3 active torsions:
REMARK  status: ('A' for Active; 'I' for Inactive)
REMARK    1  A    between atoms: N_13  and  C_17
REMARK    2  A    between atoms: C_17  and  N_18
REMARK    3  A    between atoms: C_22  and  C_24
REMARK                            x       y       z     vdW  Elec       q    Type
REMARK                         _______ _______ _______ _____ _____    ______ ____
ROOT
ATOM      1  C   UNL     1      -0.017   1.375   0.010  0.00  0.00    +0.000 A 
ATOM      2  C   UNL     1       1.174   2.078   0.002  0.00  0.00    +0.000 A 
ATOM      3  C   UNL     1       2.372   1.395  -0.016  0.00  0.00    +0.004 A 
ATOM      4  C   UNL     1       2.393   0.006  -0.026  0.00  0.00    -0.042 A 
ATOM      5  C   UNL     1       1.208  -0.695  -0.013  0.00  0.00    -0.044 A 
ATOM      6  C   UNL     1       0.002  -0.004   0.002  0.00  0.00    +0.004 A 
ATOM      7  C   UNL     1       1.151  -2.200  -0.006  0.00  0.00    +0.038 C 
ATOM      8  C   UNL     1       2.482  -2.790  -0.470  0.00  0.00    +0.040 C 
ATOM      9  C   UNL     1       3.607  -2.140   0.333  0.00  0.00    +0.117 C 
ATOM     10  C   UNL     1       3.737  -0.675  -0.056  0.00  0.00    +0.070 C 
ATOM     11  C   UNL     1       4.908  -2.873   0.108  0.00  0.00    +0.248 C 
ATOM     12  O   UNL     1       5.500  -3.014  -0.941  0.00  0.00    -0.273 OA
ATOM     13  N   UNL     1       5.272  -3.338   1.321  0.00  0.00    -0.210 N 
ATOM     14  C   UNL     1       4.386  -2.998   2.266  0.00  0.00    +0.310 C 
ATOM     15  O   UNL     1       4.497  -3.304   3.437  0.00  0.00    -0.252 OA
ATOM     16  N   UNL     1       3.359  -2.281   1.772  0.00  0.00    -0.285 N 
ATOM     17  H   UNL     1       2.605  -1.927   2.269  0.00  0.00    +0.151 HD
ENDROOT
BRANCH  13  18
ATOM     18  C   UNL     1       6.487  -4.118   1.573  0.00  0.00    +0.205 C 
BRANCH  18  19
ATOM     19  N   UNL     1       7.595  -3.209   1.895  0.00  0.00    -0.279 NA
ATOM     20  C   UNL     1       7.583  -2.846   3.328  0.00  0.00    +0.086 C 
ATOM     21  C   UNL     1       8.620  -3.792   3.984  0.00  0.00    +0.017 C 
ATOM     22  C   UNL     1       9.713  -3.869   2.885  0.00  0.00    +0.025 C 
ATOM     23  C   UNL     1       8.895  -3.828   1.578  0.00  0.00    +0.095 C 
BRANCH  23  24
ATOM     24  C   UNL     1       9.618  -3.001   0.546  0.00  0.00    +0.007 A 
ATOM     25  C   UNL     1      10.348  -3.413  -0.519  0.00  0.00    +0.013 A 
ATOM     26  C   UNL     1      10.927  -2.464  -1.342  0.00  0.00    +0.008 A 
ATOM     27  C   UNL     1      10.749  -1.151  -1.058  0.00  0.00    +0.045 A 
ATOM     28  S   UNL     1       9.730  -1.224   0.406  0.00  0.00    -0.100 S 
ENDBRANCH  23  24
ENDBRANCH  18  19
ENDBRANCH  13  18
TORSDOF 3
