REMARK  Name = ZINC35702878
REMARK  12 active torsions:
REMARK  status: ('A' for Active; 'I' for Inactive)
REMARK    1  A    between atoms: C_1  and  C_2
REMARK    2  A    between atoms: C_5  and  N_8
REMARK    3  A    between atoms: C_9  and  N_19
REMARK    4  A    between atoms: C_11  and  C_13
REMARK    5  A    between atoms: C_20  and  C_22
REMARK    6  A    between atoms: C_22  and  N_23
REMARK    7  A    between atoms: N_23  and  C_24
REMARK    8  A    between atoms: C_24  and  C_25
REMARK    9  A    between atoms: C_25  and  C_26
REMARK   10  A    between atoms: C_25  and  C_27
REMARK   11  A    between atoms: C_28  and  C_30
REMARK   12  A    between atoms: C_34  and  N_36
REMARK                            x       y       z     vdW  Elec       q    Type
REMARK                         _______ _______ _______ _____ _____    ______ ____
ROOT
ATOM      1  N   UNL     1       2.678  -3.346   2.377  0.00  0.00    -0.269 N 
ATOM      2  C   UNL     1       2.950  -4.526   2.970  0.00  0.00    +0.236 C 
ATOM      3  O   UNL     1       2.889  -5.554   2.330  0.00  0.00    -0.274 OA
ATOM      4  H   UNL     1       2.727  -2.524   2.889  0.00  0.00    +0.156 HD
ENDROOT
BRANCH   1   6
ATOM      5  N   UNL     1       2.026  -2.193   0.307  0.00  0.00    -0.218 N 
ATOM      6  C   UNL     1       2.325  -3.308   1.029  0.00  0.00    +0.129 A 
ATOM      7  C   UNL     1       2.219  -4.378   0.198  0.00  0.00    +0.074 A 
ATOM      8  C   UNL     1       1.843  -3.901  -1.072  0.00  0.00    +0.095 A 
ATOM      9  N   UNL     1       1.722  -2.592  -1.000  0.00  0.00    -0.165 NA
BRANCH   5  14
ATOM     10  C   UNL     1       1.990   3.134   2.263  0.00  0.00    +0.044 C 
ATOM     11  C   UNL     1       2.000   1.720   1.744  0.00  0.00    -0.050 A 
ATOM     12  C   UNL     1       2.399   1.464   0.445  0.00  0.00    +0.005 A 
ATOM     13  C   UNL     1       2.409   0.169  -0.034  0.00  0.00    +0.028 A 
ATOM     14  C   UNL     1       2.017  -0.878   0.790  0.00  0.00    +0.067 A 
ATOM     15  C   UNL     1       1.617  -0.618   2.094  0.00  0.00    +0.028 A 
ATOM     16  C   UNL     1       1.615   0.679   2.569  0.00  0.00    +0.005 A 
ENDBRANCH   5  14
BRANCH   8  17
ATOM     17  C   UNL     1       1.615  -4.731  -2.281  0.00  0.00    +0.002 A 
ATOM     18  C   UNL     1       1.765  -6.114  -2.218  0.00  0.00    +0.010 A 
ATOM     19  C   UNL     1       1.552  -6.881  -3.346  0.00  0.00    +0.001 A 
ATOM     20  C   UNL     1       1.189  -6.279  -4.537  0.00  0.00    +0.000 A 
ATOM     21  C   UNL     1       1.039  -4.905  -4.605  0.00  0.00    +0.001 A 
ATOM     22  C   UNL     1       1.244  -4.129  -3.482  0.00  0.00    +0.010 A 
ENDBRANCH   8  17
ENDBRANCH   1   6
BRANCH   2  23
ATOM     23  C   UNL     1       3.332  -4.567   4.427  0.00  0.00    +0.204 C 
BRANCH  23  24
ATOM     24  N   UNL     1       3.576  -5.954   4.829  0.00  0.00    -0.288 N 
ATOM     25  C   UNL     1       2.622  -6.643   5.487  0.00  0.00    +0.247 C 
ATOM     26  O   UNL     1       2.837  -7.784   5.849  0.00  0.00    -0.270 OA
BRANCH  25  27
ATOM     27  C   UNL     1       1.316  -6.011   5.769  0.00  0.00    +0.039 A 
ATOM     28  C   UNL     1       0.875  -4.936   4.995  0.00  0.00    +0.013 A 
ATOM     29  C   UNL     1      -0.345  -4.351   5.263  0.00  0.00    +0.003 A 
ATOM     30  C   UNL     1      -1.132  -4.828   6.297  0.00  0.00    +0.033 A 
ATOM     31  C   UNL     1      -0.701  -5.893   7.068  0.00  0.00    +0.127 A 
ATOM     32  C   UNL     1       0.515  -6.490   6.807  0.00  0.00    +0.045 A 
BRANCH  31  33
ATOM     33  N   UNL     1      -1.549  -6.396   8.172  0.00  0.00    +0.056 N 
ATOM     34  O   UNL     1      -2.617  -5.876   8.399  0.00  0.00    -0.126 OA
ATOM     35  O   UNL     1      -1.174  -7.326   8.847  0.00  0.00    -0.126 OA
ENDBRANCH  31  33
ENDBRANCH  25  27
BRANCH  24  36
ATOM     36  C   UNL     1       4.856  -6.593   4.516  0.00  0.00    +0.111 C 
BRANCH  36  37
ATOM     37  C   UNL     1       5.883  -6.231   5.591  0.00  0.00    +0.000 C 
ATOM     38  C   UNL     1       5.448  -6.823   6.933  0.00  0.00    +0.009 C 
ATOM     39  C   UNL     1       7.250  -6.798   5.202  0.00  0.00    +0.009 C 
ENDBRANCH  36  37
ENDBRANCH  24  36
ENDBRANCH  23  24
ENDBRANCH   2  23
TORSDOF 9
