REMARK  Name = ZINC09488335
REMARK  12 active torsions:
REMARK  status: ('A' for Active; 'I' for Inactive)
REMARK    1  A    between atoms: C_1  and  C_2
REMARK    2  A    between atoms: C_5  and  N_9
REMARK    3  A    between atoms: C_6  and  C_8
REMARK    4  A    between atoms: C_10  and  C_12
REMARK    5  A    between atoms: C_12  and  C_14
REMARK    6  A    between atoms: C_12  and  N_15
REMARK    7  A    between atoms: C_16  and  C_18
REMARK    8  A    between atoms: C_29  and  O_31
REMARK    9  A    between atoms: O_31  and  C_32
REMARK   10  A    between atoms: C_32  and  C_33
REMARK   11  A    between atoms: C_32  and  C_34
REMARK   12  A    between atoms: C_32  and  C_35
REMARK                            x       y       z     vdW  Elec       q    Type
REMARK                         _______ _______ _______ _____ _____    ______ ____
ROOT
ATOM      1  N   UNL     1       0.353   5.322  -0.096  0.00  0.00    -0.303 N 
ATOM      2  C   UNL     1       0.168   4.002   0.100  0.00  0.00    +0.235 C 
ATOM      3  O   UNL     1       1.121   3.280   0.307  0.00  0.00    -0.274 OA
ATOM      4  H   UNL     1      -0.409   5.899  -0.262  0.00  0.00    +0.149 HD
ENDROOT
BRANCH   2   5
ATOM      5  C   UNL     1      -1.222   3.421   0.060  0.00  0.00    +0.170 C 
ATOM      6  C   UNL     1      -1.557   2.804   1.411  0.00  0.00    +0.067 C 
ATOM      7  C   UNL     1      -2.791   1.946   1.319  0.00  0.00    -0.040 A 
ATOM      8  C   UNL     1      -3.461   1.652   2.501  0.00  0.00    +0.004 A 
ATOM      9  C   UNL     1      -4.584   0.851   2.490  0.00  0.00    +0.000 A 
ATOM     10  C   UNL     1      -5.050   0.336   1.294  0.00  0.00    +0.000 A 
ATOM     11  C   UNL     1      -4.391   0.632   0.119  0.00  0.00    +0.005 A 
ATOM     12  C   UNL     1      -3.263   1.442   0.128  0.00  0.00    -0.027 A 
ATOM     13  C   UNL     1      -2.596   1.735  -1.193  0.00  0.00    +0.147 C 
ATOM     14  N   UNL     1      -1.291   2.361  -0.959  0.00  0.00    -0.251 N 
ATOM     15  C   UNL     1      -0.197   1.977  -1.646  0.00  0.00    +0.404 C 
ATOM     16  O   UNL     1       0.853   2.571  -1.498  0.00  0.00    -0.226 OA
BRANCH  15  17
ATOM     17  O   UNL     1      -0.268   0.939  -2.500  0.00  0.00    -0.445 OA
BRANCH  17  18
ATOM     18  C   UNL     1       0.948   0.585  -3.210  0.00  0.00    +0.107 C 
ATOM     19  C   UNL     1       2.038   0.214  -2.203  0.00  0.00    +0.055 C 
ATOM     20  C   UNL     1       0.674  -0.608  -4.128  0.00  0.00    +0.055 C 
ATOM     21  C   UNL     1       1.414   1.777  -4.049  0.00  0.00    +0.055 C 
ENDBRANCH  17  18
ENDBRANCH  15  17
ENDBRANCH   2   5
BRANCH   1  22
ATOM     22  C   UNL     1       1.704   5.886  -0.058  0.00  0.00    +0.156 C 
ATOM     23  C   UNL     1       2.087   6.197   1.390  0.00  0.00    +0.038 C 
BRANCH  22  25
ATOM     24  N   UNL     1       2.890   7.852  -0.979  0.00  0.00    -0.284 N 
ATOM     25  C   UNL     1       1.742   7.155  -0.871  0.00  0.00    +0.237 C 
ATOM     26  O   UNL     1       0.739   7.549  -1.427  0.00  0.00    -0.273 OA
ATOM     27  H   UNL     1       3.709   7.500  -0.597  0.00  0.00    +0.155 HD
BRANCH  24  32
ATOM     28  C   UNL     1       2.936  12.844  -3.674  0.00  0.00    +0.044 C 
ATOM     29  C   UNL     1       2.924  11.518  -2.958  0.00  0.00    -0.050 A 
ATOM     30  C   UNL     1       2.075  10.512  -3.383  0.00  0.00    +0.005 A 
ATOM     31  C   UNL     1       2.061   9.296  -2.729  0.00  0.00    +0.024 A 
ATOM     32  C   UNL     1       2.901   9.083  -1.644  0.00  0.00    +0.036 A 
ATOM     33  C   UNL     1       3.748  10.097  -1.216  0.00  0.00    -0.029 A 
ATOM     34  C   UNL     1       3.761  11.310  -1.877  0.00  0.00    +0.008 A 
ATOM     35  C   UNL     1       4.657   9.873  -0.035  0.00  0.00    +0.045 C 
ENDBRANCH  24  32
ENDBRANCH  22  25
ENDBRANCH   1  22
TORSDOF 6
