REMARK  Name = ZINC04874014
REMARK  12 active torsions:
REMARK  status: ('A' for Active; 'I' for Inactive)
REMARK    1  A    between atoms: C_1  and  C_2
REMARK    2  A    between atoms: C_2  and  C_3
REMARK    3  A    between atoms: C_3  and  C_4
REMARK    4  A    between atoms: N_6  and  C_7
REMARK    5  A    between atoms: C_10  and  C_13
REMARK    6  A    between atoms: C_15  and  C_23
REMARK    7  A    between atoms: C_16  and  C_22
REMARK    8  A    between atoms: N_17  and  C_21
REMARK    9  A    between atoms: C_23  and  O_25
REMARK   10  A    between atoms: O_25  and  C_26
REMARK   11  A    between atoms: C_26  and  C_27
REMARK   12  A    between atoms: C_26  and  C_28
REMARK                            x       y       z     vdW  Elec       q    Type
REMARK                         _______ _______ _______ _____ _____    ______ ____
ROOT
ATOM      1  C   UNL     1      -1.994   2.443   3.492  0.00  0.00    +0.143 C 
ATOM      2  C   UNL     1      -1.286   3.284   2.449  0.00  0.00    +0.078 C 
ATOM      3  C   UNL     1      -0.706   2.642   1.412  0.00  0.00    +0.024 C 
ATOM      4  N   UNL     1      -0.766   1.282   1.303  0.00  0.00    -0.262 N 
ATOM      5  C   UNL     1      -1.377   0.492   2.194  0.00  0.00    +0.307 C 
ATOM      6  O   UNL     1      -1.374  -0.711   2.014  0.00  0.00    -0.252 OA
ATOM      7  N   UNL     1      -1.997   0.985   3.284  0.00  0.00    -0.288 N 
ATOM      8  C   UNL     1      -0.119   0.652   0.149  0.00  0.00    +0.139 C 
ATOM      9  C   UNL     1       0.013   3.439   0.355  0.00  0.00    +0.061 C 
ATOM     10  H   UNL     1      -2.434   0.395   3.917  0.00  0.00    +0.151 HD
ENDROOT
BRANCH   1  14
ATOM     11  C   UNL     1      -0.176   3.231   7.279  0.00  0.00    +0.033 A 
ATOM     12  C   UNL     1      -1.289   3.959   6.876  0.00  0.00    +0.023 A 
ATOM     13  C   UNL     1      -1.873   3.702   5.651  0.00  0.00    +0.007 A 
ATOM     14  C   UNL     1      -1.353   2.721   4.827  0.00  0.00    -0.022 A 
ATOM     15  C   UNL     1      -0.249   1.992   5.227  0.00  0.00    +0.007 A 
ATOM     16  C   UNL     1       0.344   2.248   6.448  0.00  0.00    +0.023 A 
BRANCH  11  19
ATOM     17  C   UNL     1      -0.340   3.874   9.563  0.00  0.00    +0.217 C 
ATOM     18  O   UNL     1      -1.548   3.905   9.457  0.00  0.00    -0.275 OA
ATOM     19  N   UNL     1       0.419   3.489   8.518  0.00  0.00    -0.285 N 
ATOM     20  H   UNL     1       1.378   3.391   8.626  0.00  0.00    +0.155 HD
BRANCH  17  21
ATOM     21  C   UNL     1       0.311   4.266  10.864  0.00  0.00    +0.096 C 
BRANCH  21  23
ATOM     22  C   UNL     1      -0.105   5.056  13.198  0.00  0.00    +0.004 C 
ATOM     23  C   UNL     1      -0.767   4.658  11.877  0.00  0.00    +0.006 C 
ENDBRANCH  21  23
ENDBRANCH  17  21
ENDBRANCH  11  19
ENDBRANCH   1  14
BRANCH   2  24
ATOM     24  C   UNL     1      -1.229   4.693   2.561  0.00  0.00    +0.339 C 
ATOM     25  O   UNL     1      -0.654   5.348   1.711  0.00  0.00    -0.245 OA
BRANCH  24  26
ATOM     26  O   UNL     1      -1.812   5.311   3.609  0.00  0.00    -0.459 OA
BRANCH  26  27
ATOM     27  C   UNL     1      -1.715   6.736   3.659  0.00  0.00    +0.171 C 
ATOM     28  C   UNL     1      -2.944   7.306   4.370  0.00  0.00    +0.052 C 
ATOM     29  C   UNL     1      -0.452   7.135   4.423  0.00  0.00    +0.052 C 
ENDBRANCH  26  27
ENDBRANCH  24  26
ENDBRANCH   2  24
TORSDOF 7
