REMARK  Name = ZINC64808592
REMARK  8 active torsions:
REMARK  status: ('A' for Active; 'I' for Inactive)
REMARK    1  A    between atoms: C_1  and  C_2
REMARK    2  A    between atoms: C_2  and  C_3
REMARK    3  A    between atoms: C_2  and  N_9
REMARK    4  A    between atoms: N_9  and  C_10
REMARK    5  A    between atoms: C_11  and  C_13
REMARK    6  A    between atoms: C_13  and  N_14
REMARK    7  A    between atoms: N_14  and  C_15
REMARK    8  A    between atoms: N_14  and  C_20
REMARK                            x       y       z     vdW  Elec       q    Type
REMARK                         _______ _______ _______ _____ _____    ______ ____
ROOT
ATOM      1  N   UNL     1       0.877  -0.664   1.252  0.00  0.00    -0.299 N 
ATOM      2  C   UNL     1       2.141  -0.047   1.664  0.00  0.00    +0.132 C 
ATOM      3  C   UNL     1       0.255  -1.537   2.070  0.00  0.00    +0.199 C 
ATOM      4  O   UNL     1      -0.791  -2.047   1.729  0.00  0.00    -0.278 OA
ENDROOT
BRANCH   1   6
ATOM      5  C   UNL     1       0.124   1.186  -0.159  0.00  0.00    +0.033 C 
ATOM      6  C   UNL     1       0.289  -0.331  -0.047  0.00  0.00    +0.103 C 
BRANCH   6   7
ATOM      7  C   UNL     1       1.194  -0.820  -1.149  0.00  0.00    -0.027 A 
ATOM      8  C   UNL     1       1.972  -1.946  -0.955  0.00  0.00    +0.005 A 
ATOM      9  C   UNL     1       2.802  -2.395  -1.965  0.00  0.00    +0.000 A 
ATOM     10  C   UNL     1       2.855  -1.717  -3.168  0.00  0.00    +0.000 A 
ATOM     11  C   UNL     1       2.077  -0.591  -3.362  0.00  0.00    +0.000 A 
ATOM     12  C   UNL     1       1.243  -0.145  -2.354  0.00  0.00    +0.005 A 
ENDBRANCH   6   7
ENDBRANCH   1   6
BRANCH   3  13
ATOM     13  C   UNL     1       0.860  -1.879   3.407  0.00  0.00    +0.020 C 
BRANCH  13  14
ATOM     14  N   UNL     1      -0.062  -2.744   4.154  0.00  0.00    +0.389 N 
ATOM     15  H   UNL     1       0.352  -2.990   5.041  0.00  0.00    -0.080 HD
BRANCH  14  16
ATOM     16  C   UNL     1      -1.325  -2.030   4.385  0.00  0.00    -0.068 C 
ATOM     17  C   UNL     1      -1.057  -0.717   5.149  0.00  0.00    -0.015 C 
ATOM     18  C   UNL     1      -2.267  -0.582   6.108  0.00  0.00    -0.002 C 
ATOM     19  C   UNL     1      -2.518  -2.046   6.548  0.00  0.00    -0.002 C 
ATOM     20  C   UNL     1      -2.254  -2.875   5.274  0.00  0.00    -0.015 C 
ENDBRANCH  14  16
BRANCH  14  21
ATOM     21  C   UNL     1      -0.324  -3.965   3.381  0.00  0.00    -0.068 C 
ATOM     22  C   UNL     1      -0.231  -5.302   4.118  0.00  0.00    -0.017 C 
ATOM     23  C   UNL     1       0.856  -4.902   3.118  0.00  0.00    -0.017 C 
ENDBRANCH  14  21
ENDBRANCH  13  14
ENDBRANCH   3  13
TORSDOF 6
