REMARK  Name = ZINC12402353
REMARK  7 active torsions:
REMARK  status: ('A' for Active; 'I' for Inactive)
REMARK    1  A    between atoms: C_1  and  C_2
REMARK    2  A    between atoms: C_2  and  C_32
REMARK    3  A    between atoms: C_6  and  C_21
REMARK    4  A    between atoms: C_8  and  C_19
REMARK    5  A    between atoms: C_9  and  N_18
REMARK    6  A    between atoms: N_10  and  C_11
REMARK    7  A    between atoms: C_24  and  N_26
REMARK                            x       y       z     vdW  Elec       q    Type
REMARK                         _______ _______ _______ _____ _____    ______ ____
ROOT
ATOM      1  C   UNL     1      -4.242  -2.293   2.774  0.00  0.00    +0.011 C 
ATOM      2  C   UNL     1      -3.763  -0.991   3.419  0.00  0.00    -0.023 C 
ATOM      3  C   UNL     1      -3.963   0.171   2.443  0.00  0.00    +0.058 C 
ATOM      4  C   UNL     1      -3.145  -0.066   1.198  0.00  0.00    +0.025 C 
ATOM      5  C   UNL     1      -1.979  -0.745   1.251  0.00  0.00    +0.026 C 
ATOM      6  C   UNL     1      -1.155  -0.969   0.008  0.00  0.00    +0.104 C 
ATOM      7  C   UNL     1      -1.976  -0.760  -1.231  0.00  0.00    +0.077 C 
ATOM      8  C   UNL     1      -3.152  -0.082  -1.187  0.00  0.00    +0.107 C 
ATOM      9  N   UNL     1      -3.614   0.423   0.007  0.00  0.00    -0.259 N 
ATOM     10  C   UNL     1      -1.499  -1.266   2.465  0.00  0.00    +0.162 C 
ATOM     11  O   UNL     1      -0.441  -1.864   2.480  0.00  0.00    -0.292 OA
ATOM     12  C   UNL     1      -2.269  -1.097   3.746  0.00  0.00    +0.086 C 
ATOM     13  C   UNL     1      -4.553  -0.731   4.703  0.00  0.00    +0.011 C 
ENDROOT
BRANCH   9  14
ATOM     14  C   UNL     1      -4.572   1.444   0.005  0.00  0.00    +0.058 A 
ATOM     15  C   UNL     1      -4.171   2.774  -0.004  0.00  0.00    +0.025 A 
ATOM     16  C   UNL     1      -5.118   3.779  -0.005  0.00  0.00    +0.002 A 
ATOM     17  C   UNL     1      -6.465   3.464   0.002  0.00  0.00    +0.002 A 
ATOM     18  C   UNL     1      -6.868   2.141   0.010  0.00  0.00    +0.022 A 
ATOM     19  C   UNL     1      -5.926   1.130   0.007  0.00  0.00    +0.063 A 
ATOM     20 CL   UNL     1      -6.432  -0.530   0.011  0.00  0.00    -0.082 Cl
ENDBRANCH   9  14
BRANCH   6  21
ATOM     21  C   UNL     1       0.002  -0.004   0.002  0.00  0.00    +0.005 A 
ATOM     22  C   UNL     1       1.332  -0.266  -0.012  0.00  0.00    +0.014 A 
ATOM     23  C   UNL     1       2.223   0.790  -0.015  0.00  0.00    +0.041 A 
ATOM     24  C   UNL     1       1.742   2.057  -0.004  0.00  0.00    +0.164 A 
ATOM     25  S   UNL     1      -0.022   1.781   0.012  0.00  0.00    -0.068 S 
BRANCH  24  26
ATOM     26  N   UNL     1       2.485   3.337  -0.005  0.00  0.00    +0.063 N 
ATOM     27  O   UNL     1       3.703   3.334  -0.017  0.00  0.00    -0.126 OA
ATOM     28  O   UNL     1       1.879   4.393   0.006  0.00  0.00    -0.126 OA
ENDBRANCH  24  26
ENDBRANCH   6  21
BRANCH   8  29
ATOM     29  N   UNL     1      -3.881   0.102  -2.337  0.00  0.00    -0.345 N 
ATOM     30  H   UNL     1      -4.721   0.587  -2.307  0.00  0.00    +0.144 HD
ATOM     31  H   UNL     1      -3.556  -0.253  -3.180  0.00  0.00    +0.144 HD
ENDBRANCH   8  29
BRANCH   7  32
ATOM     32  C   UNL     1      -1.512  -1.286  -2.479  0.00  0.00    +0.099 C 
ATOM     33  N   UNL     1      -1.145  -1.702  -3.470  0.00  0.00    -0.191 NA
ENDBRANCH   7  32
TORSDOF 5
