REMARK  Name = ZINC21877471
REMARK  9 active torsions:
REMARK  status: ('A' for Active; 'I' for Inactive)
REMARK    1  A    between atoms: C_1  and  C_2
REMARK    2  A    between atoms: C_2  and  N_3
REMARK    3  A    between atoms: C_8  and  C_22
REMARK    4  A    between atoms: C_12  and  C_13
REMARK    5  A    between atoms: C_12  and  C_14
REMARK    6  A    between atoms: N_16  and  C_17
REMARK    7  A    between atoms: N_24  and  C_25
REMARK    8  A    between atoms: C_27  and  C_32
REMARK    9  A    between atoms: C_29  and  C_31
REMARK                            x       y       z     vdW  Elec       q    Type
REMARK                         _______ _______ _______ _____ _____    ______ ____
ROOT
ATOM      1  N   UNL     1       1.812  -0.098  -0.340  0.00  0.00    -0.281 N 
ATOM      2  C   UNL     1       2.039   1.237  -0.365  0.00  0.00    +0.265 C 
ATOM      3  O   UNL     1       3.153   1.702  -0.212  0.00  0.00    -0.268 OA
ATOM      4  C   UNL     1       0.864   2.096  -0.586  0.00  0.00    +0.124 A 
ATOM      5  C   UNL     1       0.763   3.420  -0.849  0.00  0.00    +0.067 A 
ATOM      6  C   UNL     1      -0.622   3.665  -0.986  0.00  0.00    +0.148 A 
ATOM      7  N   UNL     1      -1.251   2.515  -0.800  0.00  0.00    -0.166 NA
ATOM      8  N   UNL     1      -0.416   1.582  -0.556  0.00  0.00    -0.256 N 
ATOM      9  C   UNL     1      -0.658   0.163  -0.268  0.00  0.00    +0.179 C 
ATOM     10  C   UNL     1       0.532  -0.662  -0.754  0.00  0.00    +0.130 C 
ATOM     11  C   UNL     1       0.495  -0.731  -2.282  0.00  0.00    +0.044 C 
ENDROOT
BRANCH  10  12
ATOM     12  C   UNL     1       0.414  -2.059  -0.202  0.00  0.00    +0.238 C 
ATOM     13  O   UNL     1       0.095  -2.975  -0.931  0.00  0.00    -0.273 OA
ATOM     14  N   UNL     1       0.664  -2.292   1.102  0.00  0.00    -0.311 N 
ATOM     15  H   UNL     1       0.873  -1.451   1.780  0.00  0.00    +0.149 HD
BRANCH  14  16
ATOM     16  C   UNL     1       0.656  -3.663   1.616  0.00  0.00    +0.073 C 
ATOM     17  C   UNL     1      -0.773  -4.060   2.043  0.00  0.00    +0.022 C 
ATOM     18  C   UNL     1      -0.564  -4.927   3.309  0.00  0.00    +0.002 C 
ATOM     19  C   UNL     1       0.608  -4.210   4.025  0.00  0.00    +0.002 C 
ATOM     20  C   UNL     1       1.534  -3.759   2.877  0.00  0.00    +0.022 C 
ENDBRANCH  14  16
ENDBRANCH  10  12
BRANCH   6  21
ATOM     21  C   UNL     1      -1.253   4.967  -1.282  0.00  0.00    +0.268 C 
ATOM     22  O   UNL     1      -0.563   5.957  -1.432  0.00  0.00    -0.268 OA
ATOM     23  N   UNL     1      -2.594   5.058  -1.386  0.00  0.00    -0.280 N 
ATOM     24  H   UNL     1      -3.211   4.148  -1.355  0.00  0.00    +0.155 HD
BRANCH  23  25
ATOM     25  C   UNL     1      -3.201   6.310  -1.533  0.00  0.00    +0.034 A 
ATOM     26  C   UNL     1      -2.665   7.422  -0.896  0.00  0.00    +0.026 A 
ATOM     27  C   UNL     1      -3.263   8.658  -1.048  0.00  0.00    -0.048 A 
ATOM     28  C   UNL     1      -4.400   8.786  -1.824  0.00  0.00    +0.006 A 
ATOM     29  C   UNL     1      -4.939   7.680  -2.455  0.00  0.00    -0.048 A 
ATOM     30  C   UNL     1      -4.343   6.442  -2.312  0.00  0.00    +0.026 A 
ATOM     31  C   UNL     1      -6.179   7.824  -3.300  0.00  0.00    +0.044 C 
ATOM     32  C   UNL     1      -2.679   9.866  -0.362  0.00  0.00    +0.044 C 
ENDBRANCH  23  25
ENDBRANCH   6  21
BRANCH   1  34
ATOM     33  C   UNL     1       3.814  -1.307  -1.056  0.00  0.00    +0.024 C 
ATOM     34  C   UNL     1       2.877  -0.997   0.113  0.00  0.00    +0.106 C 
ENDBRANCH   1  34
TORSDOF 5
