REMARK  Name = ZINC46774820
REMARK  9 active torsions:
REMARK  status: ('A' for Active; 'I' for Inactive)
REMARK    1  A    between atoms: C_1  and  N_2
REMARK    2  A    between atoms: N_2  and  C_3
REMARK    3  A    between atoms: C_5  and  C_10
REMARK    4  A    between atoms: C_10  and  N_11
REMARK    5  A    between atoms: C_12  and  C_14
REMARK    6  A    between atoms: C_17  and  S_20
REMARK    7  A    between atoms: S_20  and  N_23
REMARK    8  A    between atoms: N_23  and  C_24
REMARK    9  A    between atoms: N_23  and  C_25
REMARK                            x       y       z     vdW  Elec       q    Type
REMARK                         _______ _______ _______ _____ _____    ______ ____
ROOT
ATOM      1  C   UNL     1      -3.327  -3.583   2.100  0.00  0.00    +0.037 A 
ATOM      2  C   UNL     1      -4.322  -2.980   1.330  0.00  0.00    +0.015 A 
ATOM      3  C   UNL     1      -5.637  -3.034   1.743  0.00  0.00    +0.029 A 
ATOM      4  C   UNL     1      -5.970  -3.682   2.920  0.00  0.00    +0.106 A 
ATOM      5  C   UNL     1      -4.988  -4.281   3.688  0.00  0.00    +0.029 A 
ATOM      6  C   UNL     1      -3.670  -4.240   3.283  0.00  0.00    +0.015 A 
ENDROOT
BRANCH   1   8
ATOM      7  N   UNL     1      -1.587  -2.894   0.520  0.00  0.00    -0.307 N 
ATOM      8  C   UNL     1      -1.915  -3.530   1.663  0.00  0.00    +0.244 C 
ATOM      9  O   UNL     1      -1.051  -4.060   2.333  0.00  0.00    -0.270 OA
ATOM     10  H   UNL     1      -2.277  -2.471  -0.015  0.00  0.00    +0.149 HD
BRANCH   7  11
ATOM     11  C   UNL     1      -0.189  -2.842   0.087  0.00  0.00    +0.143 C 
BRANCH  11  16
ATOM     12  C   UNL     1      -1.565   0.420   0.462  0.00  0.00    +0.130 C 
ATOM     13  N   UNL     1      -0.244   0.001  -0.013  0.00  0.00    -0.323 N 
ATOM     14  C   UNL     1       0.950   0.309   0.777  0.00  0.00    +0.130 C 
ATOM     15  C   UNL     1      -0.124  -0.689  -1.214  0.00  0.00    +0.103 A 
ATOM     16  C   UNL     1      -0.093  -2.080  -1.210  0.00  0.00    +0.008 A 
ATOM     17  C   UNL     1       0.027  -2.753  -2.412  0.00  0.00    +0.010 A 
ATOM     18  C   UNL     1       0.112  -2.010  -3.582  0.00  0.00    +0.018 A 
ATOM     19  C   UNL     1       0.076  -0.632  -3.513  0.00  0.00    +0.084 A 
ATOM     20  N   UNL     1      -0.045  -0.016  -2.352  0.00  0.00    -0.349 N 
ATOM     21  H   UNL     1      -0.072   0.953  -2.331  0.00  0.00    +0.167 HD
ENDBRANCH  11  16
ENDBRANCH   7  11
ENDBRANCH   1   8
BRANCH   4  22
ATOM     22  S   UNL     1      -7.652  -3.745   3.441  0.00  0.00    +0.061 S 
ATOM     23  O   UNL     1      -7.634  -3.937   4.849  0.00  0.00    -0.153 OA
ATOM     24  O   UNL     1      -8.308  -2.642   2.831  0.00  0.00    -0.153 OA
BRANCH  22  25
ATOM     25  N   UNL     1      -8.317  -5.112   2.786  0.00  0.00    -0.177 NA
ATOM     26  C   UNL     1      -8.268  -6.377   3.524  0.00  0.00    +0.132 C 
BRANCH  25  27
ATOM     27  C   UNL     1      -8.954  -5.058   1.468  0.00  0.00    +0.080 C 
ATOM     28  C   UNL     1     -10.423  -5.470   1.594  0.00  0.00    +0.020 C 
ATOM     29  C   UNL     1     -11.088  -5.413   0.218  0.00  0.00    +0.002 C 
ATOM     30  C   UNL     1     -10.371  -6.370  -0.736  0.00  0.00    +0.000 C 
ATOM     31  C   UNL     1      -8.903  -5.958  -0.862  0.00  0.00    +0.002 C 
ATOM     32  C   UNL     1      -8.237  -6.015   0.514  0.00  0.00    +0.020 C 
ENDBRANCH  25  27
ENDBRANCH  22  25
ENDBRANCH   4  22
TORSDOF 6
