REMARK  Name = ZINC39695918
REMARK  10 active torsions:
REMARK  status: ('A' for Active; 'I' for Inactive)
REMARK    1  A    between atoms: C_1  and  C_2
REMARK    2  A    between atoms: C_2  and  C_3
REMARK    3  A    between atoms: C_6  and  C_9
REMARK    4  A    between atoms: C_9  and  C_11
REMARK    5  A    between atoms: C_9  and  N_12
REMARK    6  A    between atoms: C_13  and  C_15
REMARK    7  A    between atoms: C_26  and  C_28
REMARK    8  A    between atoms: C_33  and  O_34
REMARK    9  A    between atoms: O_34  and  C_35
REMARK   10  A    between atoms: C_35  and  C_37
REMARK                            x       y       z     vdW  Elec       q    Type
REMARK                         _______ _______ _______ _____ _____    ______ ____
ROOT
ATOM      1  C   UNL     1       5.165  -5.275  -4.767  0.00  0.00    +0.100 C 
ATOM      2  C   UNL     1       6.434  -4.416  -4.564  0.00  0.00    +0.121 C 
ATOM      3  N   UNL     1       7.521  -5.199  -5.197  0.00  0.00    -0.296 N 
ATOM      4  C   UNL     1       6.903  -5.766  -6.420  0.00  0.00    +0.115 C 
ATOM      5  C   UNL     1       5.477  -6.159  -5.986  0.00  0.00    -0.004 C 
ATOM      6  C   UNL     1       4.487  -5.875  -7.111  0.00  0.00    -0.010 C 
ATOM      7  C   UNL     1       4.780  -6.806  -8.291  0.00  0.00    -0.082 C 
ATOM      8  N   UNL     1       4.668  -8.203  -7.854  0.00  0.00    +0.379 N 
ATOM      9  C   UNL     1       5.687  -8.493  -6.837  0.00  0.00    -0.082 C 
ATOM     10  C   UNL     1       5.431  -7.633  -5.596  0.00  0.00    -0.010 C 
ATOM     11  C   UNL     1       8.786  -5.360  -4.760  0.00  0.00    +0.250 C 
ATOM     12  O   UNL     1       9.594  -5.959  -5.443  0.00  0.00    -0.270 OA
ATOM     13  H   UNL     1       3.751  -8.359  -7.463  0.00  0.00    -0.086 HD
ATOM     14  H   UNL     1       4.802  -8.814  -8.646  0.00  0.00    -0.086 HD
ENDROOT
BRANCH  11  15
ATOM     15  C   UNL     1       9.190  -4.809  -3.452  0.00  0.00    +0.079 A 
ATOM     16  C   UNL     1       8.651  -3.602  -3.001  0.00  0.00    +0.017 A 
ATOM     17  C   UNL     1       9.032  -3.093  -1.778  0.00  0.00    +0.001 A 
ATOM     18  C   UNL     1       9.948  -3.774  -0.993  0.00  0.00    +0.004 A 
ATOM     19  C   UNL     1      10.489  -4.968  -1.427  0.00  0.00    +0.047 A 
ATOM     20  C   UNL     1      10.112  -5.497  -2.652  0.00  0.00    +0.144 A 
BRANCH  20  21
ATOM     21  O   UNL     1      10.639  -6.673  -3.078  0.00  0.00    -0.425 OA
BRANCH  21  22
ATOM     22  C   UNL     1       9.964  -7.802  -2.804  0.00  0.00    +0.309 C 
ATOM     23  O   UNL     1       8.878  -7.744  -2.277  0.00  0.00    -0.251 OA
ATOM     24  C   UNL     1      10.562  -9.141  -3.153  0.00  0.00    +0.136 C 
ENDBRANCH  21  22
ENDBRANCH  20  21
ENDBRANCH  11  15
BRANCH   1  26
ATOM     25  N   UNL     1       2.730  -4.843  -4.791  0.00  0.00    -0.308 N 
ATOM     26  C   UNL     1       3.975  -4.395  -5.047  0.00  0.00    +0.219 C 
ATOM     27  O   UNL     1       4.137  -3.283  -5.503  0.00  0.00    -0.275 OA
ATOM     28  H   UNL     1       2.600  -5.732  -4.426  0.00  0.00    +0.149 HD
BRANCH  25  29
ATOM     29  C   UNL     1       1.573  -3.987  -5.064  0.00  0.00    +0.100 C 
ATOM     30  C   UNL     1       1.328  -3.064  -3.868  0.00  0.00    +0.033 C 
BRANCH  29  34
ATOM     31  C   UNL     1      -1.876  -6.423  -5.714  0.00  0.00    -0.048 A 
ATOM     32  C   UNL     1      -1.666  -5.300  -6.492  0.00  0.00    +0.004 A 
ATOM     33  C   UNL     1      -0.550  -4.512  -6.282  0.00  0.00    +0.006 A 
ATOM     34  C   UNL     1       0.356  -4.846  -5.293  0.00  0.00    -0.027 A 
ATOM     35  C   UNL     1       0.145  -5.968  -4.514  0.00  0.00    +0.006 A 
ATOM     36  C   UNL     1      -0.973  -6.754  -4.721  0.00  0.00    +0.004 A 
BRANCH  31  38
ATOM     37  C   UNL     1      -4.247  -6.773  -5.079  0.00  0.00    +0.009 C 
ATOM     38  C   UNL     1      -3.092  -7.282  -5.944  0.00  0.00    +0.032 C 
ENDBRANCH  31  38
ENDBRANCH  29  34
ENDBRANCH  25  29
ENDBRANCH   1  26
TORSDOF 7
