REMARK  Name = ZINC09078294
REMARK  10 active torsions:
REMARK  status: ('A' for Active; 'I' for Inactive)
REMARK    1  A    between atoms: C_1  and  C_2
REMARK    2  A    between atoms: C_2  and  O_3
REMARK    3  A    between atoms: O_3  and  C_4
REMARK    4  A    between atoms: C_4  and  C_6
REMARK    5  A    between atoms: C_6  and  N_7
REMARK    6  A    between atoms: C_11  and  S_31
REMARK    7  A    between atoms: N_16  and  C_17
REMARK    8  A    between atoms: C_17  and  C_19
REMARK    9  A    between atoms: C_19  and  N_20
REMARK   10  A    between atoms: S_31  and  N_34
REMARK                            x       y       z     vdW  Elec       q    Type
REMARK                         _______ _______ _______ _____ _____    ______ ____
ROOT
ATOM      1  N   UNL     1       0.234  -3.388   3.087  0.00  0.00    -0.310 N 
ATOM      2  C   UNL     1       0.727  -3.378   4.378  0.00  0.00    +0.058 A 
ATOM      3  C   UNL     1       1.139  -4.468   5.162  0.00  0.00    +0.029 A 
ATOM      4  C   UNL     1       1.609  -4.277   6.439  0.00  0.00    +0.030 A 
ATOM      5  C   UNL     1       1.691  -3.010   6.992  0.00  0.00    +0.106 A 
ATOM      6  C   UNL     1       1.293  -1.918   6.242  0.00  0.00    +0.045 A 
ATOM      7  C   UNL     1       0.822  -2.108   4.964  0.00  0.00    +0.041 A 
ATOM      8  S   UNL     1       0.231  -1.026   3.687  0.00  0.00    -0.052 S 
ATOM      9  C   UNL     1      -0.117  -2.223   2.482  0.00  0.00    +0.167 A 
ATOM     10  N   UNL     1      -0.605  -2.043   1.256  0.00  0.00    -0.155 NA
ENDROOT
BRANCH   5  11
ATOM     11  S   UNL     1       2.297  -2.792   8.632  0.00  0.00    +0.056 S 
ATOM     12  O   UNL     1       1.759  -1.563   9.103  0.00  0.00    -0.153 OA
ATOM     13  O   UNL     1       2.088  -4.023   9.310  0.00  0.00    -0.153 OA
BRANCH  11  14
ATOM     14  N   UNL     1       3.936  -2.581   8.525  0.00  0.00    -0.204 NA
ATOM     15  H   UNL     1       4.371  -2.596   7.659  0.00  0.00    +0.144 HD
ATOM     16  H   UNL     1       4.460  -2.443   9.329  0.00  0.00    +0.144 HD
ENDBRANCH  11  14
ENDBRANCH   5  11
BRANCH  10  17
ATOM     17  C   UNL     1      -0.893  -0.818   0.829  0.00  0.00    +0.256 C 
ATOM     18  O   UNL     1      -0.711   0.138   1.558  0.00  0.00    -0.272 OA
BRANCH  17  19
ATOM     19  C   UNL     1      -1.445  -0.615  -0.558  0.00  0.00    +0.214 C 
BRANCH  19  20
ATOM     20  N   UNL     1      -1.678   0.814  -0.786  0.00  0.00    -0.225 N 
ATOM     21  C   UNL     1      -2.832   1.450  -0.515  0.00  0.00    +0.254 C 
ATOM     22  O   UNL     1      -3.830   0.939  -0.050  0.00  0.00    -0.270 OA
ATOM     23  C   UNL     1      -2.680   2.875  -0.877  0.00  0.00    +0.049 A 
ATOM     24  C   UNL     1      -3.512   3.982  -0.819  0.00  0.00    +0.014 A 
ATOM     25  C   UNL     1      -3.049   5.213  -1.256  0.00  0.00    +0.001 A 
ATOM     26  C   UNL     1      -1.764   5.344  -1.748  0.00  0.00    +0.001 A 
ATOM     27  C   UNL     1      -0.920   4.246  -1.810  0.00  0.00    +0.014 A 
ATOM     28  C   UNL     1      -1.370   3.009  -1.378  0.00  0.00    +0.049 A 
ATOM     29  C   UNL     1      -0.768   1.661  -1.300  0.00  0.00    +0.254 C 
ATOM     30  O   UNL     1       0.360   1.367  -1.642  0.00  0.00    -0.270 OA
ENDBRANCH  19  20
ENDBRANCH  17  19
ENDBRANCH  10  17
BRANCH   1  31
ATOM     31  C   UNL     1       0.087  -4.657   2.369  0.00  0.00    +0.244 C 
BRANCH  31  32
ATOM     32  C   UNL     1      -1.208  -4.653   1.599  0.00  0.00    +0.327 C 
ATOM     33  O   UNL     1      -2.011  -3.767   1.773  0.00  0.00    -0.249 OA
BRANCH  32  34
ATOM     34  O   UNL     1      -1.470  -5.633   0.721  0.00  0.00    -0.464 OA
BRANCH  34  36
ATOM     35  C   UNL     1      -2.857  -6.758  -0.935  0.00  0.00    +0.048 C 
ATOM     36  C   UNL     1      -2.737  -5.565   0.015  0.00  0.00    +0.229 C 
ENDBRANCH  34  36
ENDBRANCH  32  34
ENDBRANCH  31  32
ENDBRANCH   1  31
TORSDOF 9
