REMARK  Name = ZINC65370394
REMARK  5 active torsions:
REMARK  status: ('A' for Active; 'I' for Inactive)
REMARK    1  A    between atoms: C_1  and  C_2
REMARK    2  A    between atoms: C_3  and  C_28
REMARK    3  A    between atoms: C_6  and  C_8
REMARK    4  A    between atoms: C_8  and  C_9
REMARK    5  A    between atoms: C_9  and  C_10
REMARK                            x       y       z     vdW  Elec       q    Type
REMARK                         _______ _______ _______ _____ _____    ______ ____
ROOT
ATOM      1  C   UNL     1      -2.351  -1.457   4.151  0.00  0.00    +0.216 C 
ATOM      2  O   UNL     1      -3.233  -0.709   3.786  0.00  0.00    -0.276 OA
ATOM      3  N   UNL     1      -2.476  -2.130   5.312  0.00  0.00    -0.301 N 
ATOM      4  C   UNL     1      -1.386  -3.029   5.734  0.00  0.00    +0.108 C 
ATOM      5  C   UNL     1      -1.921  -4.352   6.320  0.00  0.00    +0.023 C 
ATOM      6  C   UNL     1      -3.092  -4.845   5.514  0.00  0.00    +0.054 C 
ATOM      7  C   UNL     1      -4.405  -4.325   6.109  0.00  0.00    +0.131 C 
ATOM      8  C   UNL     1      -4.747  -2.961   5.658  0.00  0.00    +0.071 C 
ATOM      9  C   UNL     1      -3.670  -1.941   6.103  0.00  0.00    +0.112 C 
ATOM     10  C   UNL     1      -5.503  -5.295   5.711  0.00  0.00    +0.021 C 
ATOM     11  C   UNL     1      -5.704  -6.405   6.412  0.00  0.00    +0.011 C 
ATOM     12  C   UNL     1      -4.832  -6.657   7.580  0.00  0.00    +0.017 A 
ATOM     13  C   UNL     1      -4.701  -7.923   8.138  0.00  0.00    +0.011 A 
ATOM     14  C   UNL     1      -3.878  -8.100   9.233  0.00  0.00    +0.001 A 
ATOM     15  C   UNL     1      -3.189  -7.026   9.770  0.00  0.00    +0.004 A 
ATOM     16  C   UNL     1      -3.312  -5.764   9.219  0.00  0.00    +0.046 A 
ATOM     17  C   UNL     1      -4.130  -5.571   8.122  0.00  0.00    +0.129 A 
ATOM     18  O   UNL     1      -4.270  -4.352   7.544  0.00  0.00    -0.481 OA
ENDROOT
BRANCH   1  19
ATOM     19  C   UNL     1      -1.117  -1.635   3.305  0.00  0.00    +0.098 C 
BRANCH  19  20
ATOM     20  C   UNL     1      -1.228  -0.765   2.051  0.00  0.00    +0.042 C 
BRANCH  20  26
ATOM     21  C   UNL     1      -0.018   1.503   0.010  0.00  0.00    +0.043 C 
ATOM     22  C   UNL     1       0.002  -0.004   0.002  0.00  0.00    -0.024 C 
ATOM     23  C   UNL     1       0.009  -0.821  -1.054  0.00  0.00    +0.061 C 
ATOM     24  N   UNL     1       0.028  -2.114  -0.661  0.00  0.00    -0.159 NA
ATOM     25  N   UNL     1       0.035  -2.277   0.562  0.00  0.00    -0.180 NA
ATOM     26  C   UNL     1       0.026  -0.946   1.193  0.00  0.00    +0.156 C 
ATOM     27  C   UNL     1      -0.003  -0.363  -2.490  0.00  0.00    +0.067 C 
ENDBRANCH  20  26
ENDBRANCH  19  20
ENDBRANCH   1  19
TORSDOF 3
