REMARK  Name = ZINC63873659
REMARK  9 active torsions:
REMARK  status: ('A' for Active; 'I' for Inactive)
REMARK    1  A    between atoms: C_1  and  C_2
REMARK    2  A    between atoms: C_5  and  C_15
REMARK    3  A    between atoms: C_6  and  C_14
REMARK    4  A    between atoms: N_7  and  C_8
REMARK    5  A    between atoms: C_8  and  C_9
REMARK    6  A    between atoms: C_15  and  C_17
REMARK    7  A    between atoms: C_17  and  N_18
REMARK    8  A    between atoms: C_21  and  C_26
REMARK    9  A    between atoms: C_26  and  C_27
REMARK                            x       y       z     vdW  Elec       q    Type
REMARK                         _______ _______ _______ _____ _____    ______ ____
ROOT
ATOM      1  N   UNL     1      -5.088  -2.420   1.371  0.00  0.00    -0.217 N 
ATOM      2  C   UNL     1      -5.403  -3.687   1.038  0.00  0.00    +0.244 C 
ATOM      3  O   UNL     1      -4.840  -4.393   0.229  0.00  0.00    -0.273 OA
ATOM      4  C   UNL     1      -6.607  -4.046   1.885  0.00  0.00    +0.165 C 
ATOM      5  N   UNL     1      -6.854  -2.825   2.671  0.00  0.00    -0.287 N 
ATOM      6  C   UNL     1      -5.914  -1.935   2.305  0.00  0.00    +0.310 C 
ATOM      7  O   UNL     1      -5.827  -0.815   2.769  0.00  0.00    -0.252 OA
ATOM      8  H   UNL     1      -7.556  -2.690   3.328  0.00  0.00    +0.151 HD
ENDROOT
BRANCH   1   9
ATOM      9  C   UNL     1      -3.974  -1.668   0.787  0.00  0.00    +0.197 C 
BRANCH   9  10
ATOM     10  C   UNL     1      -2.729  -1.898   1.604  0.00  0.00    +0.178 C 
ATOM     11  O   UNL     1      -2.768  -2.621   2.580  0.00  0.00    -0.291 OA
BRANCH  10  15
ATOM     12  C   UNL     1       0.295   1.497   0.168  0.00  0.00    +0.028 C 
ATOM     13  C   UNL     1       0.179  -0.027   0.100  0.00  0.00    +0.075 C 
ATOM     14  C   UNL     1      -1.299  -0.451  -0.008  0.00  0.00    +0.062 C 
ATOM     15  C   UNL     1      -1.526  -1.279   1.238  0.00  0.00    +0.015 C 
ATOM     16  C   UNL     1      -0.373  -1.319   1.937  0.00  0.00    +0.011 C 
ATOM     17  N   UNL     1       0.642  -0.634   1.355  0.00  0.00    -0.325 N 
ATOM     18  C   UNL     1      -0.225  -2.059   3.241  0.00  0.00    +0.061 C 
BRANCH  17  19
ATOM     19  C   UNL     1       1.999  -0.515   1.895  0.00  0.00    +0.147 C 
BRANCH  19  20
ATOM     20  C   UNL     1       2.080   0.696   2.788  0.00  0.00    +0.007 A 
ATOM     21  C   UNL     1       1.854   0.790   4.121  0.00  0.00    +0.013 A 
ATOM     22  C   UNL     1       1.990   2.019   4.739  0.00  0.00    +0.008 A 
ATOM     23  C   UNL     1       2.345   3.093   3.994  0.00  0.00    +0.045 A 
ATOM     24  S   UNL     1       2.506   2.377   2.366  0.00  0.00    -0.100 S 
ENDBRANCH  19  20
ENDBRANCH  17  19
ENDBRANCH  10  15
ENDBRANCH   9  10
ENDBRANCH   1   9
BRANCH   4  25
ATOM     25  C   UNL     1      -7.811  -4.372   0.999  0.00  0.00    +0.065 C 
BRANCH  25  26
ATOM     26  C   UNL     1      -8.955  -4.843   1.859  0.00  0.00    -0.039 C 
ATOM     27  C   UNL     1      -9.975  -4.095   2.338  0.00  0.00    -0.001 A 
ATOM     28  C   UNL     1     -10.310  -2.671   2.208  0.00  0.00    +0.010 A 
ATOM     29  C   UNL     1     -11.422  -2.201   2.817  0.00  0.00    +0.001 A 
ATOM     30  C   UNL     1     -12.260  -3.036   3.568  0.00  0.00    +0.002 A 
ATOM     31  C   UNL     1     -12.019  -4.354   3.733  0.00  0.00    +0.026 A 
ATOM     32  C   UNL     1     -10.876  -4.956   3.136  0.00  0.00    +0.043 A 
ATOM     33  N   UNL     1     -10.432  -6.189   3.150  0.00  0.00    -0.380 N 
ATOM     34  C   UNL     1      -9.199  -6.251   2.356  0.00  0.00    +0.144 C 
ATOM     35  H   UNL     1     -10.850  -6.936   3.606  0.00  0.00    +0.160 HD
ENDBRANCH  25  26
ENDBRANCH   4  25
TORSDOF 7
