REMARK  Name = ZINC12473148
REMARK  10 active torsions:
REMARK  status: ('A' for Active; 'I' for Inactive)
REMARK    1  A    between atoms: C_1  and  C_2
REMARK    2  A    between atoms: C_7  and  N_8
REMARK    3  A    between atoms: N_8  and  C_9
REMARK    4  A    between atoms: C_9  and  C_11
REMARK    5  A    between atoms: C_9  and  C_18
REMARK    6  A    between atoms: N_20  and  C_21
REMARK    7  A    between atoms: C_21  and  C_22
REMARK    8  A    between atoms: C_28  and  C_30
REMARK    9  A    between atoms: C_31  and  N_38
REMARK   10  A    between atoms: C_32  and  C_35
REMARK                            x       y       z     vdW  Elec       q    Type
REMARK                         _______ _______ _______ _____ _____    ______ ____
ROOT
ATOM      1  N   UNL     1      -0.162   0.323   2.490  0.00  0.00    -0.251 N 
ATOM      2  C   UNL     1      -0.711  -0.530   3.378  0.00  0.00    +0.262 C 
ATOM      3  O   UNL     1      -0.051  -0.940   4.315  0.00  0.00    -0.269 OA
ENDROOT
BRANCH   1  10
ATOM      4  C   UNL     1      -1.517   2.807   2.787  0.00  0.00    +0.045 C 
ATOM      5  C   UNL     1      -1.597   2.002   1.516  0.00  0.00    -0.029 A 
ATOM      6  C   UNL     1      -2.340   2.468   0.448  0.00  0.00    +0.005 A 
ATOM      7  C   UNL     1      -2.414   1.730  -0.719  0.00  0.00    +0.000 A 
ATOM      8  C   UNL     1      -1.746   0.524  -0.822  0.00  0.00    +0.002 A 
ATOM      9  C   UNL     1      -1.001   0.053   0.241  0.00  0.00    +0.024 A 
ATOM     10  C   UNL     1      -0.920   0.794   1.413  0.00  0.00    +0.041 A 
ENDBRANCH   1  10
BRANCH   2  11
ATOM     11  C   UNL     1      -2.100  -0.963   3.215  0.00  0.00    +0.116 A 
ATOM     12  C   UNL     1      -2.856  -1.824   4.011  0.00  0.00    +0.076 A 
ATOM     13  C   UNL     1      -4.157  -2.008   3.547  0.00  0.00    +0.155 A 
ATOM     14  N   UNL     1      -4.550  -1.389   2.454  0.00  0.00    -0.203 NA
ATOM     15  S   UNL     1      -3.278  -0.524   1.953  0.00  0.00    +0.019 S 
BRANCH  13  16
ATOM     16  C   UNL     1      -5.087  -2.891   4.275  0.00  0.00    +0.262 C 
ATOM     17  O   UNL     1      -4.746  -3.400   5.325  0.00  0.00    -0.269 OA
ATOM     18  N   UNL     1      -6.316  -3.133   3.777  0.00  0.00    -0.324 N 
ATOM     19  H   UNL     1      -6.588  -2.727   2.939  0.00  0.00    +0.145 HD
ATOM     20  H   UNL     1      -6.928  -3.714   4.256  0.00  0.00    +0.145 HD
ENDBRANCH  13  16
BRANCH  12  21
ATOM     21  N   UNL     1      -2.361  -2.438   5.153  0.00  0.00    -0.355 N 
ATOM     22  H   UNL     1      -1.482  -2.203   5.488  0.00  0.00    +0.142 HD
ATOM     23  H   UNL     1      -2.894  -3.104   5.616  0.00  0.00    +0.142 HD
ENDBRANCH  12  21
ENDBRANCH   2  11
BRANCH   1  24
ATOM     24  C   UNL     1       1.228   0.756   2.653  0.00  0.00    +0.197 C 
BRANCH  24  25
ATOM     25  C   UNL     1       1.551   1.806   1.621  0.00  0.00    -0.018 A 
ATOM     26  C   UNL     1       1.482   1.497   0.276  0.00  0.00    +0.009 A 
ATOM     27  C   UNL     1       1.778   2.460  -0.671  0.00  0.00    +0.038 A 
ATOM     28  C   UNL     1       2.143   3.734  -0.271  0.00  0.00    +0.123 A 
ATOM     29  C   UNL     1       2.211   4.043   1.077  0.00  0.00    +0.038 A 
ATOM     30  C   UNL     1       1.910   3.080   2.022  0.00  0.00    +0.009 A 
ATOM     31  F   UNL     1       2.432   4.676  -1.195  0.00  0.00    -0.205 F 
ENDBRANCH  24  25
BRANCH  24  32
ATOM     32  C   UNL     1       2.146  -0.425   2.471  0.00  0.00    +0.239 C 
ATOM     33  O   UNL     1       1.685  -1.521   2.230  0.00  0.00    -0.273 OA
ATOM     34  N   UNL     1       3.480  -0.264   2.578  0.00  0.00    -0.311 N 
ATOM     35  H   UNL     1       3.849   0.612   2.771  0.00  0.00    +0.149 HD
BRANCH  34  36
ATOM     36  C   UNL     1       4.373  -1.412   2.401  0.00  0.00    +0.135 C 
BRANCH  36  37
ATOM     37  C   UNL     1       5.825  -0.960   2.571  0.00  0.00    +0.135 C 
ATOM     38  C   UNL     1       6.778  -2.136   2.269  0.00  0.00    +0.035 C 
ATOM     39  C   UNL     1       7.880  -1.953   3.348  0.00  0.00    +0.031 C 
ATOM     40  C   UNL     1       7.045  -1.401   4.530  0.00  0.00    +0.160 C 
ATOM     41  O   UNL     1       6.052  -0.554   3.926  0.00  0.00    -0.375 OA
ENDBRANCH  36  37
ENDBRANCH  34  36
ENDBRANCH  24  32
ENDBRANCH   1  24
TORSDOF 9
