REMARK  Name = ZINC39684199
REMARK  11 active torsions:
REMARK  status: ('A' for Active; 'I' for Inactive)
REMARK    1  A    between atoms: C_1  and  C_2
REMARK    2  A    between atoms: C_2  and  C_3
REMARK    3  A    between atoms: C_3  and  C_4
REMARK    4  A    between atoms: C_4  and  C_5
REMARK    5  A    between atoms: C_5  and  C_7
REMARK    6  A    between atoms: C_5  and  C_8
REMARK    7  A    between atoms: C_12  and  C_21
REMARK    8  A    between atoms: N_23  and  C_24
REMARK    9  A    between atoms: C_24  and  C_25
REMARK   10  A    between atoms: C_25  and  C_26
REMARK   11  A    between atoms: C_31  and  C_35
REMARK                            x       y       z     vdW  Elec       q    Type
REMARK                         _______ _______ _______ _____ _____    ______ ____
ROOT
ATOM      1  C   UNL     1       1.870  -4.283   2.456  0.00  0.00    +0.218 C 
ATOM      2  O   UNL     1       1.576  -4.956   1.491  0.00  0.00    -0.275 OA
ATOM      3  N   UNL     1       2.323  -4.876   3.578  0.00  0.00    -0.300 N 
ATOM      4  C   UNL     1       2.624  -4.241   4.883  0.00  0.00    +0.121 C 
ATOM      5  C   UNL     1       2.122  -5.254   5.936  0.00  0.00    +0.100 C 
ATOM      6  C   UNL     1       2.131  -6.611   5.211  0.00  0.00    -0.004 C 
ATOM      7  C   UNL     1       2.626  -6.312   3.788  0.00  0.00    +0.115 C 
ATOM      8  C   UNL     1       0.721  -7.193   5.161  0.00  0.00    -0.010 C 
ATOM      9  C   UNL     1       0.765  -8.567   4.486  0.00  0.00    -0.082 C 
ATOM     10  N   UNL     1       1.657  -9.456   5.241  0.00  0.00    +0.379 N 
ATOM     11  C   UNL     1       3.029  -8.936   5.206  0.00  0.00    -0.082 C 
ATOM     12  C   UNL     1       3.081  -7.578   5.910  0.00  0.00    -0.010 C 
ATOM     13  H   UNL     1       1.344  -9.510   6.198  0.00  0.00    -0.086 HD
ATOM     14  H   UNL     1       1.637 -10.377   4.830  0.00  0.00    -0.086 HD
ENDROOT
BRANCH   5  15
ATOM     15  C   UNL     1       3.051  -5.284   7.121  0.00  0.00    +0.218 C 
ATOM     16  O   UNL     1       4.228  -5.030   6.975  0.00  0.00    -0.275 OA
ATOM     17  N   UNL     1       2.575  -5.593   8.344  0.00  0.00    -0.315 N 
ATOM     18  H   UNL     1       1.634  -5.796   8.460  0.00  0.00    +0.149 HD
BRANCH  17  19
ATOM     19  C   UNL     1       3.479  -5.622   9.496  0.00  0.00    +0.109 C 
BRANCH  19  20
ATOM     20  C   UNL     1       2.691  -5.997  10.753  0.00  0.00    +0.056 C 
BRANCH  20  21
ATOM     21  C   UNL     1       3.621  -6.027  11.938  0.00  0.00    -0.021 A 
ATOM     22  C   UNL     1       4.017  -4.883  12.764  0.00  0.00    +0.003 A 
ATOM     23  C   UNL     1       3.709  -3.522  12.748  0.00  0.00    +0.010 A 
ATOM     24  C   UNL     1       4.258  -2.691  13.684  0.00  0.00    +0.001 A 
ATOM     25  C   UNL     1       5.120  -3.190  14.650  0.00  0.00    +0.005 A 
ATOM     26  C   UNL     1       5.437  -4.530  14.685  0.00  0.00    -0.027 A 
ATOM     27  C   UNL     1       4.889  -5.394  13.743  0.00  0.00    +0.050 A 
ATOM     28  N   UNL     1       5.005  -6.748  13.517  0.00  0.00    -0.360 N 
ATOM     29  C   UNL     1       4.239  -7.107  12.442  0.00  0.00    +0.087 A 
ATOM     30  C   UNL     1       6.374  -5.059  15.740  0.00  0.00    +0.046 C 
ATOM     31  H   UNL     1       5.547  -7.356  14.043  0.00  0.00    +0.165 HD
ENDBRANCH  20  21
ENDBRANCH  19  20
ENDBRANCH  17  19
ENDBRANCH   5  15
BRANCH   1  32
ATOM     32  C   UNL     1       1.727  -2.784   2.401  0.00  0.00    +0.072 C 
ATOM     33  C   UNL     1       0.319  -2.389   2.851  0.00  0.00    +0.017 C 
BRANCH  32  34
ATOM     34  C   UNL     1       1.959  -2.302   0.967  0.00  0.00    +0.012 C 
BRANCH  34  35
ATOM     35  C   UNL     1       1.938  -0.773   0.933  0.00  0.00    +0.000 C 
BRANCH  35  37
ATOM     36  C   UNL     1       2.148   1.238  -0.534  0.00  0.00    +0.004 C 
ATOM     37  C   UNL     1       2.169  -0.291  -0.500  0.00  0.00    -0.003 C 
ENDBRANCH  35  37
ENDBRANCH  34  35
ENDBRANCH  32  34
ENDBRANCH   1  32
TORSDOF 8
