REMARK  Name = ZINC49206406
REMARK  6 active torsions:
REMARK  status: ('A' for Active; 'I' for Inactive)
REMARK    1  A    between atoms: C_1  and  C_2
REMARK    2  A    between atoms: C_2  and  O_3
REMARK    3  A    between atoms: O_3  and  C_4
REMARK    4  A    between atoms: N_6  and  N_7
REMARK    5  A    between atoms: C_8  and  N_10
REMARK    6  A    between atoms: C_17  and  C_21
REMARK                            x       y       z     vdW  Elec       q    Type
REMARK                         _______ _______ _______ _____ _____    ______ ____
ROOT
ATOM      1  N   UNL     1       2.653  -3.257  -4.632  0.00  0.00    -0.138 NA
ATOM      2  C   UNL     1       3.263  -3.751  -5.703  0.00  0.00    +0.165 A 
ATOM      3  N   UNL     1       3.847  -3.082  -6.737  0.00  0.00    -0.335 N 
ATOM      4  H   UNL     1       3.847  -2.112  -6.746  0.00  0.00    +0.168 HD
ATOM      5  C   UNL     1       4.439  -3.780  -7.774  0.00  0.00    +0.055 A 
ATOM      6  C   UNL     1       5.080  -3.251  -8.908  0.00  0.00    +0.027 A 
ATOM      7  C   UNL     1       5.625  -4.077  -9.861  0.00  0.00    +0.005 A 
ATOM      8  C   UNL     1       5.562  -5.455  -9.738  0.00  0.00    -0.049 A 
ATOM      9  C   UNL     1       4.937  -6.005  -8.633  0.00  0.00    +0.020 A 
ATOM     10  C   UNL     1       4.392  -5.179  -7.679  0.00  0.00    +0.039 A 
ATOM     11  S   UNL     1       3.534  -5.458  -6.149  0.00  0.00    -0.052 S 
ATOM     12  C   UNL     1       6.165  -6.343 -10.795  0.00  0.00    +0.044 C 
ENDROOT
BRANCH   1  14
ATOM     13  N   UNL     1       1.930  -1.432  -3.385  0.00  0.00    -0.214 N 
ATOM     14  C   UNL     1       2.549  -1.933  -4.472  0.00  0.00    +0.342 C 
ATOM     15  O   UNL     1       3.014  -1.180  -5.309  0.00  0.00    -0.249 OA
ATOM     16  H   UNL     1       1.854  -0.472  -3.269  0.00  0.00    +0.175 HD
BRANCH  13  19
ATOM     17  C   UNL     1       0.776  -1.798  -1.335  0.00  0.00    +0.417 C 
ATOM     18  O   UNL     1       0.312  -2.549  -0.500  0.00  0.00    -0.225 OA
ATOM     19  N   UNL     1       1.395  -2.298  -2.422  0.00  0.00    -0.198 N 
ATOM     20  H   UNL     1       1.471  -3.258  -2.538  0.00  0.00    +0.176 HD
BRANCH  17  21
ATOM     21  O   UNL     1       0.671  -0.465  -1.174  0.00  0.00    -0.450 OA
BRANCH  21  23
ATOM     22  C   UNL     1      -0.019   1.526   0.010  0.00  0.00    +0.048 C 
ATOM     23  C   UNL     1       0.002  -0.004   0.002  0.00  0.00    +0.230 C 
ENDBRANCH  21  23
ENDBRANCH  17  21
ENDBRANCH  13  19
ENDBRANCH   1  14
TORSDOF 4
