REMARK  Name = ZINC17177809
REMARK  5 active torsions:
REMARK  status: ('A' for Active; 'I' for Inactive)
REMARK    1  A    between atoms: C_5  and  C_7
REMARK    2  A    between atoms: C_7  and  S_8
REMARK    3  A    between atoms: S_8  and  C_9
REMARK    4  A    between atoms: C_14  and  C_24
REMARK    5  A    between atoms: C_27  and  O_30
REMARK                            x       y       z     vdW  Elec       q    Type
REMARK                         _______ _______ _______ _____ _____    ______ ____
ROOT
ATOM      1  C   UNL     1       1.275  -4.553   1.506  0.00  0.00    +0.211 A 
ATOM      2  N   UNL     1       1.278  -5.218   0.341  0.00  0.00    -0.187 NA
ATOM      3  C   UNL     1       1.298  -6.502   0.572  0.00  0.00    +0.219 A 
ATOM      4  N   UNL     1       1.303  -6.689   1.915  0.00  0.00    -0.220 N 
ATOM      5  N   UNL     1       1.296  -5.422   2.495  0.00  0.00    -0.141 NA
ATOM      6  C   UNL     1       1.315  -8.006   2.541  0.00  0.00    +0.175 C 
ATOM      7  C   UNL     1       1.663  -9.063   1.516  0.00  0.00    +0.041 C 
ATOM      8  C   UNL     1       1.640  -8.812   0.190  0.00  0.00    +0.020 C 
ATOM      9  N   UNL     1       1.316  -7.572  -0.307  0.00  0.00    -0.287 N 
ATOM     10  C   UNL     1       1.969  -9.895  -0.810  0.00  0.00    +0.052 C 
ATOM     11  C   UNL     1       2.993 -10.858  -0.206  0.00  0.00    +0.014 C 
ATOM     12  C   UNL     1       2.398 -11.453   1.075  0.00  0.00    +0.080 C 
ATOM     13  C   UNL     1       2.020 -10.333   2.004  0.00  0.00    +0.163 C 
ATOM     14  O   UNL     1       2.021 -10.530   3.203  0.00  0.00    -0.292 OA
ATOM     15  H   UNL     1       1.105  -7.450  -1.246  0.00  0.00    +0.155 HD
ENDROOT
BRANCH   6  16
ATOM     16  C   UNL     1      -0.047  -8.299   3.115  0.00  0.00    -0.018 A 
ATOM     17  C   UNL     1      -1.153  -8.336   2.285  0.00  0.00    +0.009 A 
ATOM     18  C   UNL     1      -2.402  -8.604   2.809  0.00  0.00    +0.046 A 
ATOM     19  C   UNL     1      -2.548  -8.836   4.169  0.00  0.00    +0.117 A 
ATOM     20  C   UNL     1      -1.437  -8.798   5.000  0.00  0.00    +0.046 A 
ATOM     21  C   UNL     1      -0.189  -8.535   4.470  0.00  0.00    +0.009 A 
BRANCH  19  22
ATOM     22  O   UNL     1      -3.776  -9.099   4.687  0.00  0.00    -0.507 OA
ATOM     23  H   UNL     1      -4.003 -10.039   4.704  0.00  0.00    +0.292 HD
ENDBRANCH  19  22
ENDBRANCH   6  16
BRANCH   1  24
ATOM     24  S   UNL     1       1.253  -2.800   1.685  0.00  0.00    -0.080 S 
BRANCH  24  25
ATOM     25  C   UNL     1       1.228  -2.186  -0.022  0.00  0.00    +0.115 C 
BRANCH  25  30
ATOM     26  C   UNL     1      -0.017   1.378   0.010  0.00  0.00    +0.000 A 
ATOM     27  C   UNL     1       1.171   2.087   0.002  0.00  0.00    +0.003 A 
ATOM     28  C   UNL     1       2.377   1.414  -0.013  0.00  0.00    +0.038 A 
ATOM     29  C   UNL     1       2.397   0.029  -0.021  0.00  0.00    +0.127 A 
ATOM     30  C   UNL     1       1.208  -0.679  -0.013  0.00  0.00    -0.002 A 
ATOM     31  C   UNL     1       0.002  -0.004   0.002  0.00  0.00    +0.007 A 
ATOM     32  F   UNL     1       3.577  -0.630  -0.036  0.00  0.00    -0.205 F 
ENDBRANCH  25  30
ENDBRANCH  24  25
ENDBRANCH   1  24
TORSDOF 5
