REMARK  Name = ZINC54726715
REMARK  10 active torsions:
REMARK  status: ('A' for Active; 'I' for Inactive)
REMARK    1  A    between atoms: C_1  and  C_2
REMARK    2  A    between atoms: C_4  and  C_27
REMARK    3  A    between atoms: N_6  and  C_8
REMARK    4  A    between atoms: C_8  and  C_9
REMARK    5  A    between atoms: C_8  and  C_10
REMARK    6  A    between atoms: C_8  and  C_11
REMARK    7  A    between atoms: C_11  and  N_12
REMARK    8  A    between atoms: N_15  and  N_16
REMARK    9  A    between atoms: C_17  and  C_19
REMARK   10  A    between atoms: C_19  and  C_20
REMARK                            x       y       z     vdW  Elec       q    Type
REMARK                         _______ _______ _______ _____ _____    ______ ____
ROOT
ATOM      1  N   UNL     1      -0.750  -2.466   3.616  0.00  0.00    -0.300 N 
ATOM      2  C   UNL     1      -1.628  -2.151   4.588  0.00  0.00    +0.316 C 
ATOM      3  O   UNL     1      -1.281  -1.449   5.518  0.00  0.00    -0.251 OA
ATOM      4  N   UNL     1      -2.893  -2.615   4.529  0.00  0.00    -0.218 N 
ATOM      5  H   UNL     1      -1.027  -3.026   2.874  0.00  0.00    +0.150 HD
ATOM      6  H   UNL     1      -3.525  -2.388   5.229  0.00  0.00    +0.174 HD
ENDROOT
BRANCH   4   7
ATOM      7  N   UNL     1      -3.293  -3.424   3.458  0.00  0.00    -0.233 N 
ATOM      8  C   UNL     1      -4.558  -3.887   3.400  0.00  0.00    +0.233 C 
ATOM      9  O   UNL     1      -5.349  -3.603   4.274  0.00  0.00    -0.274 OA
ATOM     10  H   UNL     1      -2.661  -3.650   2.759  0.00  0.00    +0.173 HD
BRANCH   8  11
ATOM     11  C   UNL     1      -4.989  -4.757   2.247  0.00  0.00    +0.132 C 
BRANCH  11  12
ATOM     12  C   UNL     1      -6.437  -5.137   2.419  0.00  0.00    -0.038 A 
ATOM     13  C   UNL     1      -6.772  -6.283   3.116  0.00  0.00    +0.007 A 
ATOM     14  C   UNL     1      -8.100  -6.633   3.275  0.00  0.00    +0.038 A 
ATOM     15  C   UNL     1      -9.094  -5.834   2.736  0.00  0.00    +0.123 A 
ATOM     16  C   UNL     1      -8.758  -4.687   2.038  0.00  0.00    +0.038 A 
ATOM     17  C   UNL     1      -7.429  -4.337   1.885  0.00  0.00    +0.007 A 
ATOM     18  F   UNL     1     -10.393  -6.175   2.890  0.00  0.00    -0.205 F 
ENDBRANCH  11  12
ENDBRANCH   8  11
ENDBRANCH   4   7
BRANCH   1  19
ATOM     19  C   UNL     1       0.625  -1.963   3.679  0.00  0.00    +0.093 C 
BRANCH  19  20
ATOM     20  C   UNL     1       1.408  -2.463   2.464  0.00  0.00    -0.055 C 
ATOM     21  C   UNL     1       1.425  -3.993   2.463  0.00  0.00    -0.008 C 
ATOM     22  C   UNL     1       2.843  -1.937   2.530  0.00  0.00    -0.008 C 
BRANCH  20  28
ATOM     23  C   UNL     1      -0.019   1.526   0.010  0.00  0.00    +0.005 C 
ATOM     24  C   UNL     1       0.002  -0.004   0.002  0.00  0.00    -0.031 C 
ATOM     25  C   UNL     1       0.724  -0.499  -1.255  0.00  0.00    +0.003 C 
ATOM     26  C   UNL     1       0.808  -2.027  -1.215  0.00  0.00    -0.031 C 
ATOM     27  C   UNL     1       1.518  -2.460   0.070  0.00  0.00    -0.075 C 
ATOM     28  N   UNL     1       0.765  -1.980   1.235  0.00  0.00    +0.384 N 
ATOM     29  C   UNL     1       0.742  -0.512   1.241  0.00  0.00    -0.075 C 
ATOM     30  C   UNL     1       1.595  -2.527  -2.428  0.00  0.00    +0.005 C 
ATOM     31  H   UNL     1      -0.180  -2.330   1.191  0.00  0.00    -0.081 HD
ENDBRANCH  20  28
ENDBRANCH  19  20
ENDBRANCH   1  19
TORSDOF 6
