REMARK  Name = ZINC65182332
REMARK  12 active torsions:
REMARK  status: ('A' for Active; 'I' for Inactive)
REMARK    1  A    between atoms: C_1  and  C_2
REMARK    2  A    between atoms: C_2  and  C_3
REMARK    3  A    between atoms: C_6  and  C_34
REMARK    4  A    between atoms: C_11  and  C_13
REMARK    5  A    between atoms: C_16  and  C_19
REMARK    6  A    between atoms: C_19  and  C_20
REMARK    7  A    between atoms: C_20  and  N_21
REMARK    8  A    between atoms: N_21  and  C_22
REMARK    9  A    between atoms: C_23  and  C_25
REMARK   10  A    between atoms: C_28  and  N_31
REMARK   11  A    between atoms: N_31  and  C_32
REMARK   12  A    between atoms: N_31  and  C_33
REMARK                            x       y       z     vdW  Elec       q    Type
REMARK                         _______ _______ _______ _____ _____    ______ ____
ROOT
ATOM      1  C   UNL     1       1.834  -2.536  -0.752  0.00  0.00    +0.318 C 
ATOM      2  N   UNL     1       2.098  -3.939  -1.108  0.00  0.00    -0.291 N 
ATOM      3  C   UNL     1       3.462  -4.074  -1.213  0.00  0.00    +0.139 C 
ATOM      4  N   UNL     1       4.064  -2.965  -0.975  0.00  0.00    -0.072 NA
ATOM      5  O   UNL     1       3.137  -1.936  -0.673  0.00  0.00    -0.367 OA
ATOM      6  H   UNL     1       1.436  -4.636  -1.243  0.00  0.00    +0.151 HD
ENDROOT
BRANCH   1  15
ATOM      7  C   UNL     1       0.767  -0.404  -1.487  0.00  0.00    -0.033 C 
ATOM      8  C   UNL     1       1.331   0.316  -2.483  0.00  0.00    -0.000 A 
ATOM      9  C   UNL     1       1.449   1.760  -2.724  0.00  0.00    +0.013 A 
ATOM     10  C   UNL     1       2.084   2.190  -3.837  0.00  0.00    -0.050 A 
ATOM     11  C   UNL     1       2.632   1.294  -4.766  0.00  0.00    +0.005 A 
ATOM     12  C   UNL     1       2.564  -0.046  -4.614  0.00  0.00    +0.026 A 
ATOM     13  C   UNL     1       1.918  -0.609  -3.479  0.00  0.00    +0.043 A 
ATOM     14  N   UNL     1       1.725  -1.853  -3.113  0.00  0.00    -0.373 N 
ATOM     15  C   UNL     1       0.997  -1.857  -1.839  0.00  0.00    +0.169 C 
ATOM     16  C   UNL     1       2.206   3.671  -4.087  0.00  0.00    +0.044 C 
ATOM     17  H   UNL     1       2.017  -2.638  -3.600  0.00  0.00    +0.160 HD
BRANCH   7  19
ATOM     18  C   UNL     1       0.054   1.662  -0.316  0.00  0.00    +0.008 C 
ATOM     19  C   UNL     1       0.058   0.133  -0.271  0.00  0.00    +0.030 C 
ENDBRANCH   7  19
ENDBRANCH   1  15
BRANCH   3  20
ATOM     20  C   UNL     1       4.163  -5.361  -1.563  0.00  0.00    +0.094 C 
BRANCH  20  21
ATOM     21  C   UNL     1       5.675  -5.128  -1.587  0.00  0.00    +0.115 C 
BRANCH  21  22
ATOM     22  N   UNL     1       6.357  -6.380  -1.927  0.00  0.00    -0.300 N 
ATOM     23  C   UNL     1       6.632  -6.706  -3.328  0.00  0.00    +0.132 C 
ATOM     24  C   UNL     1       6.730  -7.231  -0.951  0.00  0.00    +0.246 C 
ATOM     25  O   UNL     1       6.408  -7.013   0.201  0.00  0.00    -0.270 OA
BRANCH  24  26
ATOM     26  C   UNL     1       7.529  -8.427  -1.281  0.00  0.00    +0.037 A 
ATOM     27  C   UNL     1       8.487  -8.370  -2.297  0.00  0.00    +0.015 A 
ATOM     28  C   UNL     1       9.231  -9.487  -2.602  0.00  0.00    +0.024 A 
ATOM     29  C   UNL     1       9.029 -10.672  -1.900  0.00  0.00    +0.029 A 
ATOM     30  C   UNL     1       8.075 -10.732  -0.887  0.00  0.00    +0.024 A 
ATOM     31  C   UNL     1       7.333  -9.617  -0.574  0.00  0.00    +0.015 A 
BRANCH  29  32
ATOM     32  N   UNL     1       9.782 -11.799  -2.210  0.00  0.00    -0.336 N 
ATOM     33  C   UNL     1      10.786 -11.739  -3.276  0.00  0.00    +0.129 C 
ATOM     34  C   UNL     1       9.572 -13.047  -1.472  0.00  0.00    +0.129 C 
ENDBRANCH  29  32
ENDBRANCH  24  26
ENDBRANCH  21  22
ENDBRANCH  20  21
ENDBRANCH   3  20
TORSDOF 7
