REMARK  Name = ZINC25139160
REMARK  8 active torsions:
REMARK  status: ('A' for Active; 'I' for Inactive)
REMARK    1  A    between atoms: C_1  and  C_2
REMARK    2  A    between atoms: C_2  and  C_25
REMARK    3  A    between atoms: C_4  and  N_10
REMARK    4  A    between atoms: C_6  and  C_8
REMARK    5  A    between atoms: C_6  and  C_9
REMARK    6  A    between atoms: C_11  and  C_13
REMARK    7  A    between atoms: C_13  and  N_14
REMARK    8  A    between atoms: C_15  and  C_20
REMARK                            x       y       z     vdW  Elec       q    Type
REMARK                         _______ _______ _______ _____ _____    ______ ____
ROOT
ATOM      1  N   UNL     1       0.389   5.051  -1.207  0.00  0.00    -0.311 N 
ATOM      2  C   UNL     1       0.113   5.703  -2.353  0.00  0.00    +0.233 C 
ATOM      3  O   UNL     1      -0.129   5.078  -3.364  0.00  0.00    -0.274 OA
ATOM      4  H   UNL     1       0.608   5.617  -0.290  0.00  0.00    +0.149 HD
ENDROOT
BRANCH   1   8
ATOM      5  C   UNL     1      -0.944   0.975  -2.269  0.00  0.00    -0.010 C 
ATOM      6  C   UNL     1      -1.042   1.551  -0.852  0.00  0.00    -0.072 C 
ATOM      7  C   UNL     1      -1.022   3.076  -0.918  0.00  0.00    +0.009 C 
ATOM      8  C   UNL     1       0.396   3.583  -1.181  0.00  0.00    +0.070 C 
ATOM      9  C   UNL     1       1.298   3.104  -0.042  0.00  0.00    +0.009 C 
ATOM     10  C   UNL     1       1.320   1.577  -0.002  0.00  0.00    -0.072 C 
ATOM     11  N   UNL     1      -0.012   1.005   0.008  0.00  0.00    +0.386 N 
ATOM     12  C   UNL     1       2.035   1.156   1.301  0.00  0.00    -0.010 C 
ATOM     13  C   UNL     1       2.151   1.041  -1.172  0.00  0.00    -0.010 C 
ATOM     14  C   UNL     1      -2.415   1.129  -0.282  0.00  0.00    -0.010 C 
ATOM     15  H   UNL     1      -0.328   1.088   1.058  0.00  0.00    -0.084 HD
ATOM     16  H   UNL     1       0.152  -0.053  -0.244  0.00  0.00    -0.084 HD
ENDBRANCH   1   8
BRANCH   2  17
ATOM     17  C   UNL     1       0.105   7.210  -2.379  0.00  0.00    +0.221 C 
BRANCH  17  18
ATOM     18  N   UNL     1      -0.220   7.674  -3.730  0.00  0.00    -0.292 N 
ATOM     19  C   UNL     1       0.691   7.936  -4.737  0.00  0.00    +0.172 A 
ATOM     20  N   UNL     1       0.034   8.325  -5.797  0.00  0.00    -0.128 NA
ATOM     21  N   UNL     1      -1.332   8.329  -5.484  0.00  0.00    -0.121 NA
ATOM     22  C   UNL     1      -1.457   7.923  -4.204  0.00  0.00    +0.203 A 
ATOM     23  S   UNL     1      -2.923   7.755  -3.336  0.00  0.00    -0.009 SA
BRANCH  19  24
ATOM     24  C   UNL     1       2.153   7.797  -4.633  0.00  0.00    +0.056 A 
ATOM     25  C   UNL     1       3.091   7.765  -5.633  0.00  0.00    +0.019 A 
ATOM     26  C   UNL     1       4.417   7.626  -5.290  0.00  0.00    +0.008 A 
ATOM     27  C   UNL     1       4.756   7.525  -3.978  0.00  0.00    +0.046 A 
ATOM     28  S   UNL     1       3.167   7.635  -3.172  0.00  0.00    -0.094 S 
ENDBRANCH  19  24
ENDBRANCH  17  18
ENDBRANCH   2  17
TORSDOF 4
