REMARK  Name = ZINC13749644
REMARK  3 active torsions:
REMARK  status: ('A' for Active; 'I' for Inactive)
REMARK    1  A    between atoms: C_4  and  N_7
REMARK    2  A    between atoms: C_11  and  C_12
REMARK    3  A    between atoms: C_15  and  C_17
REMARK                            x       y       z     vdW  Elec       q    Type
REMARK                         _______ _______ _______ _____ _____    ______ ____
ROOT
ATOM      1  N   UNL     1      -0.195   5.596   0.267  0.00  0.00    -0.189 N 
ATOM      2  C   UNL     1       0.152   4.300   0.143  0.00  0.00    +0.273 C 
ATOM      3  O   UNL     1       1.285   3.859   0.058  0.00  0.00    -0.268 OA
ATOM      4  C   UNL     1      -1.052   3.546   0.130  0.00  0.00    +0.102 C 
ATOM      5  C   UNL     1      -1.171   2.191   0.020  0.00  0.00    +0.075 C 
ATOM      6  N   UNL     1      -2.091   4.478   0.246  0.00  0.00    -0.264 N 
ATOM      7  C   UNL     1      -1.533   5.699   0.332  0.00  0.00    +0.318 C 
ATOM      8  O   UNL     1      -2.148   6.742   0.446  0.00  0.00    -0.251 OA
ATOM      9  H   UNL     1      -3.041   4.279   0.263  0.00  0.00    +0.157 HD
ENDROOT
BRANCH   1  13
ATOM     10  C   UNL     1       2.474   8.795   0.427  0.00  0.00    +0.000 A 
ATOM     11  C   UNL     1       1.113   9.027   0.504  0.00  0.00    +0.002 A 
ATOM     12  C   UNL     1       0.226   7.969   0.451  0.00  0.00    +0.024 A 
ATOM     13  C   UNL     1       0.703   6.672   0.321  0.00  0.00    +0.046 A 
ATOM     14  C   UNL     1       2.070   6.441   0.250  0.00  0.00    +0.024 A 
ATOM     15  C   UNL     1       2.951   7.503   0.298  0.00  0.00    +0.002 A 
ENDBRANCH   1  13
BRANCH   5  16
ATOM     16  C   UNL     1      -0.037   1.404  -0.276  0.00  0.00    +0.131 A 
ATOM     17  C   UNL     1       0.012   0.022  -0.280  0.00  0.00    +0.050 A 
ATOM     18  C   UNL     1       1.316  -0.335  -0.629  0.00  0.00    +0.050 A 
ATOM     19  C   UNL     1       2.015   0.835  -0.825  0.00  0.00    +0.136 A 
ATOM     20  O   UNL     1       1.185   1.871  -0.608  0.00  0.00    -0.455 OA
BRANCH  19  21
ATOM     21  C   UNL     1       3.436   0.935  -1.209  0.00  0.00    +0.017 A 
ATOM     22  C   UNL     1       4.195  -0.222  -1.400  0.00  0.00    +0.014 A 
ATOM     23  C   UNL     1       5.521  -0.122  -1.763  0.00  0.00    +0.039 A 
ATOM     24  C   UNL     1       6.105   1.125  -1.928  0.00  0.00    +0.123 A 
ATOM     25  C   UNL     1       5.358   2.277  -1.735  0.00  0.00    +0.039 A 
ATOM     26  C   UNL     1       4.030   2.189  -1.377  0.00  0.00    +0.014 A 
ATOM     27  F   UNL     1       7.406   1.217  -2.280  0.00  0.00    -0.205 F 
ENDBRANCH  19  21
ENDBRANCH   5  16
TORSDOF 3
