REMARK  Name = ZINC37599493
REMARK  6 active torsions:
REMARK  status: ('A' for Active; 'I' for Inactive)
REMARK    1  A    between atoms: C_1  and  C_2
REMARK    2  A    between atoms: C_2  and  C_3
REMARK    3  A    between atoms: C_2  and  C_4
REMARK    4  A    between atoms: C_2  and  N_5
REMARK    5  A    between atoms: C_13  and  C_14
REMARK    6  A    between atoms: C_18  and  N_20
REMARK                            x       y       z     vdW  Elec       q    Type
REMARK                         _______ _______ _______ _____ _____    ______ ____
ROOT
ATOM      1  N   UNL     1      -0.069  -0.078  -1.782  0.00  0.00    -0.318 N 
ATOM      2  C   UNL     1       0.323  -1.199  -2.489  0.00  0.00    +0.070 A 
ATOM      3  C   UNL     1       0.104  -2.561  -2.334  0.00  0.00    +0.028 A 
ATOM      4  C   UNL     1       0.651  -3.447  -3.237  0.00  0.00    +0.002 A 
ATOM      5  C   UNL     1       1.418  -2.988  -4.299  0.00  0.00    +0.002 A 
ATOM      6  C   UNL     1       1.644  -1.651  -4.467  0.00  0.00    +0.030 A 
ATOM      7  C   UNL     1       1.100  -0.733  -3.564  0.00  0.00    +0.090 A 
ATOM      8  N   UNL     1       1.146   0.619  -3.468  0.00  0.00    -0.228 NA
ATOM      9  C   UNL     1       0.456   1.010  -2.425  0.00  0.00    +0.142 A 
ENDROOT
BRANCH   9  10
ATOM     10  C   UNL     1       0.274   2.416  -2.005  0.00  0.00    +0.019 A 
ATOM     11  C   UNL     1      -0.407   2.710  -0.822  0.00  0.00    +0.014 A 
ATOM     12  C   UNL     1      -0.575   4.022  -0.431  0.00  0.00    +0.041 A 
ATOM     13  C   UNL     1      -0.071   5.051  -1.208  0.00  0.00    +0.144 A 
ATOM     14  C   UNL     1       0.610   4.767  -2.388  0.00  0.00    +0.061 A 
ATOM     15  C   UNL     1       0.788   3.451  -2.785  0.00  0.00    +0.037 A 
ATOM     16  F   UNL     1      -0.239   6.334  -0.819  0.00  0.00    -0.204 F 
BRANCH  14  17
ATOM     17  N   UNL     1       1.118   5.809  -3.171  0.00  0.00    -0.356 N 
ATOM     18  H   UNL     1       0.997   6.729  -2.890  0.00  0.00    +0.142 HD
ATOM     19  H   UNL     1       1.593   5.611  -3.993  0.00  0.00    +0.142 HD
ENDBRANCH  14  17
ENDBRANCH   9  10
BRANCH   1  21
ATOM     20  C   UNL     1      -2.089   0.878  -0.788  0.00  0.00    +0.034 C 
ATOM     21  C   UNL     1      -0.898  -0.058  -0.574  0.00  0.00    +0.039 C 
ATOM     22  C   UNL     1      -0.064   0.440   0.608  0.00  0.00    +0.034 C 
ATOM     23  C   UNL     1      -1.406  -1.471  -0.281  0.00  0.00    +0.034 C 
ENDBRANCH   1  21
TORSDOF 3
