REMARK  Name = ZINC63744051
REMARK  10 active torsions:
REMARK  status: ('A' for Active; 'I' for Inactive)
REMARK    1  A    between atoms: C_1  and  C_2
REMARK    2  A    between atoms: C_4  and  C_33
REMARK    3  A    between atoms: C_9  and  N_21
REMARK    4  A    between atoms: N_10  and  C_11
REMARK    5  A    between atoms: C_11  and  C_13
REMARK    6  A    between atoms: C_16  and  O_19
REMARK    7  A    between atoms: O_19  and  C_20
REMARK    8  A    between atoms: N_21  and  C_22
REMARK    9  A    between atoms: C_22  and  C_23
REMARK   10  A    between atoms: C_23  and  C_24
REMARK                            x       y       z     vdW  Elec       q    Type
REMARK                         _______ _______ _______ _____ _____    ______ ____
ROOT
ATOM      1  C   UNL     1       1.589  -1.284  -0.698  0.00  0.00    +0.066 C 
ATOM      2  C   UNL     1       2.627  -0.333  -0.161  0.00  0.00    +0.044 A 
ATOM      3  C   UNL     1       3.505   0.307  -1.022  0.00  0.00    +0.046 A 
ATOM      4  C   UNL     1       4.444   1.175  -0.487  0.00  0.00    +0.044 A 
ATOM      5  N   UNL     1       4.474   1.365   0.822  0.00  0.00    -0.217 NA
ATOM      6  C   UNL     1       3.621   0.737   1.617  0.00  0.00    +0.231 A 
ATOM      7  N   UNL     1       2.709  -0.094   1.138  0.00  0.00    -0.217 NA
ATOM      8  N   UNL     1       3.681   0.961   2.986  0.00  0.00    -0.295 N 
ATOM      9  C   UNL     1       2.779   0.357   3.818  0.00  0.00    +0.218 C 
ATOM     10  N   UNL     1       3.197  -0.263   4.910  0.00  0.00    -0.141 NA
ATOM     11  C   UNL     1       5.419   1.892  -1.384  0.00  0.00    +0.066 C 
ATOM     12  H   UNL     1       4.363   1.545   3.353  0.00  0.00    +0.172 HD
ENDROOT
BRANCH  10  13
ATOM     13  C   UNL     1       4.510  -0.432   5.124  0.00  0.00    +0.270 C 
ATOM     14  O   UNL     1       5.320   0.064   4.361  0.00  0.00    -0.268 OA
BRANCH  13  15
ATOM     15  C   UNL     1       4.975  -1.220   6.285  0.00  0.00    +0.039 A 
ATOM     16  C   UNL     1       4.047  -1.795   7.157  0.00  0.00    +0.017 A 
ATOM     17  C   UNL     1       4.484  -2.529   8.238  0.00  0.00    +0.046 A 
ATOM     18  C   UNL     1       5.845  -2.699   8.461  0.00  0.00    +0.120 A 
ATOM     19  C   UNL     1       6.771  -2.129   7.595  0.00  0.00    +0.046 A 
ATOM     20  C   UNL     1       6.341  -1.398   6.509  0.00  0.00    +0.017 A 
BRANCH  18  21
ATOM     21  O   UNL     1       6.271  -3.422   9.527  0.00  0.00    -0.495 OA
ATOM     22  C   UNL     1       7.684  -3.557   9.697  0.00  0.00    +0.277 C 
ENDBRANCH  18  21
ENDBRANCH  13  15
ENDBRANCH  10  13
BRANCH   9  23
ATOM     23  N   UNL     1       1.448   0.393   3.522  0.00  0.00    -0.252 NA
BRANCH  23  24
ATOM     24  C   UNL     1       0.991   1.018   2.279  0.00  0.00    +0.149 C 
BRANCH  24  25
ATOM     25  C   UNL     1      -0.461   1.472   2.439  0.00  0.00    +0.056 C 
BRANCH  25  26
ATOM     26  C   UNL     1      -0.918   2.151   1.174  0.00  0.00    -0.040 C 
ATOM     27  C   UNL     1      -2.176   2.547   0.873  0.00  0.00    -0.001 A 
ATOM     28  C   UNL     1      -3.446   2.467   1.604  0.00  0.00    +0.010 A 
ATOM     29  C   UNL     1      -4.566   2.961   1.030  0.00  0.00    +0.001 A 
ATOM     30  C   UNL     1      -4.545   3.546  -0.243  0.00  0.00    +0.002 A 
ATOM     31  C   UNL     1      -3.417   3.656  -0.977  0.00  0.00    +0.026 A 
ATOM     32  C   UNL     1      -2.180   3.170  -0.470  0.00  0.00    +0.043 A 
ATOM     33  N   UNL     1      -0.972   3.159  -0.979  0.00  0.00    -0.380 N 
ATOM     34  C   UNL     1      -0.063   2.533  -0.013  0.00  0.00    +0.144 C 
ATOM     35  H   UNL     1      -0.721   3.510  -1.848  0.00  0.00    +0.160 HD
ENDBRANCH  25  26
ENDBRANCH  24  25
ENDBRANCH  23  24
ENDBRANCH   9  23
TORSDOF 7
