REMARK  Name = ZINC63908235
REMARK  7 active torsions:
REMARK  status: ('A' for Active; 'I' for Inactive)
REMARK    1  A    between atoms: C_1  and  C_2
REMARK    2  A    between atoms: C_2  and  C_3
REMARK    3  A    between atoms: C_3  and  N_4
REMARK    4  A    between atoms: N_4  and  C_5
REMARK    5  A    between atoms: C_5  and  C_6
REMARK    6  A    between atoms: C_10  and  C_12
REMARK    7  A    between atoms: C_17  and  C_19
REMARK                            x       y       z     vdW  Elec       q    Type
REMARK                         _______ _______ _______ _____ _____    ______ ____
ROOT
ATOM      1  N   UNL     1       0.972  -1.951  -1.372  0.00  0.00    -0.292 N 
ATOM      2  C   UNL     1       1.878  -2.522  -0.554  0.00  0.00    +0.247 C 
ATOM      3  O   UNL     1       1.918  -3.732  -0.440  0.00  0.00    -0.270 OA
ENDROOT
BRANCH   2   4
ATOM      4  C   UNL     1       2.822  -1.678   0.205  0.00  0.00    +0.038 A 
ATOM      5  C   UNL     1       2.408  -0.433   0.699  0.00  0.00    +0.015 A 
ATOM      6  C   UNL     1       3.268   0.357   1.401  0.00  0.00    +0.027 A 
ATOM      7  C   UNL     1       4.575  -0.063   1.637  0.00  0.00    +0.047 A 
ATOM      8  C   UNL     1       5.005  -1.313   1.146  0.00  0.00    +0.004 A 
ATOM      9  C   UNL     1       4.121  -2.121   0.434  0.00  0.00    +0.023 A 
ATOM     10  C   UNL     1       6.400  -1.445   1.558  0.00  0.00    -0.019 A 
ATOM     11  C   UNL     1       6.723  -0.331   2.241  0.00  0.00    +0.020 A 
ATOM     12  N   UNL     1       5.642   0.503   2.295  0.00  0.00    -0.358 N 
ATOM     13  H   UNL     1       5.628   1.369   2.733  0.00  0.00    +0.166 HD
ATOM     14  C   UNL     1       8.088  -0.082   2.840  0.00  0.00    +0.053 C 
ATOM     15  C   UNL     1       8.839  -1.416   2.912  0.00  0.00    +0.006 C 
ATOM     16  C   UNL     1       8.774  -2.114   1.550  0.00  0.00    +0.005 C 
ATOM     17  C   UNL     1       7.340  -2.593   1.293  0.00  0.00    +0.037 C 
ENDBRANCH   2   4
BRANCH   1  18
ATOM     18  C   UNL     1       0.977  -0.500  -1.572  0.00  0.00    +0.108 C 
BRANCH  18  20
ATOM     19  C   UNL     1      -0.114   1.647  -0.905  0.00  0.00    +0.005 C 
ATOM     20  C   UNL     1      -0.207   0.122  -0.827  0.00  0.00    +0.016 C 
ENDBRANCH  18  20
ENDBRANCH   1  18
BRANCH   1  21
ATOM     21  C   UNL     1      -0.019  -2.782  -2.061  0.00  0.00    +0.174 C 
BRANCH  21  22
ATOM     22  C   UNL     1       0.542  -3.228  -3.413  0.00  0.00    +0.295 C 
ATOM     23  N   UNL     1       0.893  -2.058  -4.236  0.00  0.00    -0.226 N 
ATOM     24  N   UNL     1       2.273  -2.164  -4.465  0.00  0.00    -0.143 NA
ATOM     25  C   UNL     1       2.744  -3.223  -3.889  0.00  0.00    +0.275 C 
ATOM     26  O   UNL     1       1.783  -3.926  -3.236  0.00  0.00    -0.448 OA
ATOM     27  H   UNL     1       0.297  -1.362  -4.553  0.00  0.00    +0.172 HD
BRANCH  25  28
ATOM     28  C   UNL     1       4.158  -3.622  -3.939  0.00  0.00    +0.190 A 
ATOM     29  C   UNL     1       5.158  -2.950  -4.576  0.00  0.00    +0.055 A 
ATOM     30  C   UNL     1       6.340  -3.684  -4.364  0.00  0.00    +0.042 A 
ATOM     31  C   UNL     1       6.011  -4.757  -3.617  0.00  0.00    +0.196 A 
ATOM     32  O   UNL     1       4.694  -4.713  -3.357  0.00  0.00    -0.458 OA
ENDBRANCH  25  28
ENDBRANCH  21  22
ENDBRANCH   1  21
TORSDOF 6
