REMARK  Name = ZINC39440755
REMARK  2 active torsions:
REMARK  status: ('A' for Active; 'I' for Inactive)
REMARK    1  A    between atoms: N_11  and  C_12
REMARK    2  A    between atoms: C_12  and  C_14
REMARK                            x       y       z     vdW  Elec       q    Type
REMARK                         _______ _______ _______ _____ _____    ______ ____
ROOT
ATOM      1  C   UNL     1       4.916  -3.248  -0.162  0.00  0.00    +0.254 C 
ATOM      2  O   UNL     1       5.508  -2.186  -0.163  0.00  0.00    -0.272 OA
ENDROOT
BRANCH   1  13
ATOM      3  C   UNL     1      -0.018   1.375  -0.018  0.00  0.00    +0.002 A 
ATOM      4  C   UNL     1       1.167   2.090  -0.015  0.00  0.00    +0.002 A 
ATOM      5  C   UNL     1       2.379   1.429  -0.020  0.00  0.00    +0.028 A 
ATOM      6  C   UNL     1       2.410   0.041  -0.029  0.00  0.00    +0.065 A 
ATOM      7  C   UNL     1       1.214  -0.680  -0.032  0.00  0.00    +0.065 A 
ATOM      8  C   UNL     1       0.001  -0.005  -0.027  0.00  0.00    +0.028 A 
ATOM      9  N   UNL     1       1.549  -2.030  -0.041  0.00  0.00    -0.326 N 
ATOM     10  H   UNL     1       0.924  -2.771  -0.045  0.00  0.00    +0.169 HD
ATOM     11  C   UNL     1       2.904  -2.132  -0.042  0.00  0.00    +0.198 A 
ATOM     12  N   UNL     1       3.447  -0.886  -0.035  0.00  0.00    -0.326 N 
ATOM     13  N   UNL     1       3.591  -3.271  -0.050  0.00  0.00    -0.146 NA
ATOM     14  H   UNL     1       4.394  -0.678  -0.035  0.00  0.00    +0.169 HD
ENDBRANCH   1  13
BRANCH   1  15
ATOM     15  C   UNL     1       5.684  -4.538  -0.290  0.00  0.00    +0.161 C 
ATOM     16  C   UNL     1       7.070  -4.308  -0.931  0.00  0.00    +0.133 C 
ATOM     17  C   UNL     1       8.133  -4.048   0.108  0.00  0.00    -0.015 A 
ATOM     18  C   UNL     1       9.366  -3.425  -0.099  0.00  0.00    +0.009 A 
ATOM     19  C   UNL     1      10.263  -3.259   0.932  0.00  0.00    +0.039 A 
ATOM     20  C   UNL     1       9.967  -3.708   2.209  0.00  0.00    +0.124 A 
ATOM     21  C   UNL     1       8.748  -4.321   2.439  0.00  0.00    +0.053 A 
ATOM     22  C   UNL     1       7.847  -4.478   1.402  0.00  0.00    +0.016 A 
ATOM     23  S   UNL     1       6.210  -5.172   1.356  0.00  0.00    -0.110 S 
ATOM     24  F   UNL     1      10.855  -3.549   3.214  0.00  0.00    -0.205 F 
ATOM     25 CL   UNL     1       6.976  -2.890  -2.041  0.00  0.00    -0.115 Cl
ENDBRANCH   1  15
TORSDOF 2
