REMARK  Name = ZINC50566917
REMARK  7 active torsions:
REMARK  status: ('A' for Active; 'I' for Inactive)
REMARK    1  A    between atoms: C_1  and  C_2
REMARK    2  A    between atoms: C_8  and  C_10
REMARK    3  A    between atoms: C_14  and  C_16
REMARK    4  A    between atoms: C_16  and  C_17
REMARK    5  A    between atoms: C_17  and  C_18
REMARK    6  A    between atoms: C_18  and  C_19
REMARK    7  A    between atoms: C_19  and  C_20
REMARK                            x       y       z     vdW  Elec       q    Type
REMARK                         _______ _______ _______ _____ _____    ______ ____
ROOT
ATOM      1  C   UNL     1      -0.170   1.479   0.256  0.00  0.00    +0.009 C 
ATOM      2  C   UNL     1      -0.063  -0.037   0.082  0.00  0.00    +0.006 C 
ATOM      3  C   UNL     1       0.672  -0.351  -1.224  0.00  0.00    +0.006 C 
ATOM      4  C   UNL     1       0.750  -1.868  -1.415  0.00  0.00    +0.019 C 
ATOM      5  C   UNL     1       1.538  -2.485  -0.256  0.00  0.00    +0.109 C 
ATOM      6  N   UNL     1       0.921  -2.068   1.011  0.00  0.00    -0.282 N 
ATOM      7  C   UNL     1       0.715  -0.634   1.258  0.00  0.00    +0.077 C 
ATOM      8  C   UNL     1      -0.083  -0.445   2.550  0.00  0.00    +0.028 C 
ATOM      9  C   UNL     1       0.551  -2.983   1.928  0.00  0.00    +0.309 C 
ATOM     10  O   UNL     1       0.140  -2.623   3.014  0.00  0.00    -0.252 OA
ATOM     11  N   UNL     1       0.637  -4.297   1.642  0.00  0.00    -0.240 N 
ATOM     12  C   UNL     1       0.170  -5.209   2.518  0.00  0.00    +0.220 C 
ATOM     13  O   UNL     1      -0.327  -4.847   3.563  0.00  0.00    -0.275 OA
ATOM     14  H   UNL     1       1.035  -4.586   0.806  0.00  0.00    +0.159 HD
ENDROOT
BRANCH  12  15
ATOM     15  C   UNL     1       0.267  -6.678   2.198  0.00  0.00    +0.096 C 
BRANCH  15  16
ATOM     16  C   UNL     1      -0.331  -7.491   3.349  0.00  0.00    +0.010 C 
BRANCH  16  17
ATOM     17  C   UNL     1      -0.233  -8.983   3.024  0.00  0.00    +0.012 C 
BRANCH  17  18
ATOM     18  C   UNL     1      -0.831  -9.795   4.174  0.00  0.00    +0.125 C 
BRANCH  18  19
ATOM     19  C   UNL     1      -0.735 -11.265   3.855  0.00  0.00    +0.356 C 
ATOM     20  O   UNL     1      -0.235 -11.629   2.804  0.00  0.00    -0.246 OA
ATOM     21  O   UNL     1      -1.157 -12.090   4.646  0.00  0.00    -0.246 OA
ENDBRANCH  18  19
ENDBRANCH  17  18
ENDBRANCH  16  17
ENDBRANCH  15  16
ENDBRANCH  12  15
TORSDOF 5
