REMARK  Name = ZINC35033731
REMARK  10 active torsions:
REMARK  status: ('A' for Active; 'I' for Inactive)
REMARK    1  A    between atoms: C_1  and  C_2
REMARK    2  A    between atoms: C_2  and  C_3
REMARK    3  A    between atoms: C_3  and  C_5
REMARK    4  A    between atoms: C_3  and  N_20
REMARK    5  A    between atoms: N_15  and  C_16
REMARK    6  A    between atoms: C_16  and  C_17
REMARK    7  A    between atoms: C_17  and  O_18
REMARK    8  A    between atoms: O_18  and  C_19
REMARK    9  A    between atoms: C_24  and  C_27
REMARK   10  A    between atoms: C_28  and  C_30
REMARK                            x       y       z     vdW  Elec       q    Type
REMARK                         _______ _______ _______ _____ _____    ______ ____
ROOT
ATOM      1  C   UNL     1       0.429  -0.111  -2.788  0.00  0.00    -0.001 C 
ENDROOT
BRANCH   1   2
ATOM      2  C   UNL     1      -0.098  -1.520  -2.885  0.00  0.00    +0.099 A 
ATOM      3  N   UNL     1       0.192  -2.353  -1.932  0.00  0.00    -0.235 NA
ATOM      4  C   UNL     1      -0.247  -3.636  -1.951  0.00  0.00    +0.078 A 
ATOM      5  C   UNL     1       0.064  -4.532  -0.926  0.00  0.00    +0.028 A 
ATOM      6  C   UNL     1      -0.403  -5.826  -0.987  0.00  0.00    +0.002 A 
ATOM      7  C   UNL     1      -1.181  -6.252  -2.056  0.00  0.00    +0.001 A 
ATOM      8  C   UNL     1      -1.501  -5.387  -3.079  0.00  0.00    +0.015 A 
ATOM      9  C   UNL     1      -1.038  -4.073  -3.037  0.00  0.00    +0.065 A 
ATOM     10  C   UNL     1      -1.347  -3.105  -4.099  0.00  0.00    +0.262 A 
ATOM     11  O   UNL     1      -2.024  -3.417  -5.062  0.00  0.00    -0.267 OA
ATOM     12  N   UNL     1      -0.856  -1.852  -3.963  0.00  0.00    -0.295 N 
BRANCH  12  13
ATOM     13  C   UNL     1      -1.138  -0.845  -4.989  0.00  0.00    +0.154 C 
BRANCH  13  14
ATOM     14  C   UNL     1      -0.069  -0.916  -6.081  0.00  0.00    +0.181 C 
BRANCH  14  15
ATOM     15  O   UNL     1      -0.155  -2.174  -6.752  0.00  0.00    -0.381 OA
ATOM     16  C   UNL     1       0.805  -2.344  -7.796  0.00  0.00    +0.194 C 
ENDBRANCH  14  15
ENDBRANCH  13  14
ENDBRANCH  12  13
ENDBRANCH   1   2
BRANCH   1  17
ATOM     17  N   UNL     1       1.750  -0.125  -2.145  0.00  0.00    +0.388 N 
ATOM     18  C   UNL     1       2.283   1.242  -2.096  0.00  0.00    -0.059 C 
ATOM     19  C   UNL     1       3.606   1.245  -1.324  0.00  0.00    +0.090 C 
ATOM     20  N   UNL     1       4.510   0.263  -1.942  0.00  0.00    -0.298 N 
ATOM     21  C   UNL     1       3.999  -1.096  -2.180  0.00  0.00    +0.057 C 
ATOM     22  C   UNL     1       2.657  -0.989  -2.911  0.00  0.00    -0.055 C 
ATOM     23  C   UNL     1       4.996  -1.878  -3.037  0.00  0.00    +0.026 C 
ATOM     24  C   UNL     1       5.770   0.598  -2.282  0.00  0.00    +0.247 C 
ATOM     25  O   UNL     1       6.465  -0.190  -2.893  0.00  0.00    -0.270 OA
ATOM     26  H   UNL     1       1.661  -0.483  -1.205  0.00  0.00    -0.081 HD
BRANCH  24  27
ATOM     27  C   UNL     1       6.307   1.925  -1.912  0.00  0.00    +0.037 A 
ATOM     28  C   UNL     1       5.806   2.597  -0.796  0.00  0.00    +0.014 A 
ATOM     29  C   UNL     1       6.311   3.834  -0.456  0.00  0.00    +0.016 A 
ATOM     30  C   UNL     1       7.314   4.410  -1.218  0.00  0.00    +0.018 A 
ATOM     31  C   UNL     1       7.815   3.747  -2.326  0.00  0.00    +0.016 A 
ATOM     32  C   UNL     1       7.322   2.507  -2.674  0.00  0.00    +0.014 A 
ATOM     33 BR   UNL     1       8.001   6.107  -0.745  0.00  0.00    -0.050 Br
ENDBRANCH  24  27
ENDBRANCH   1  17
BRANCH   1  35
ATOM     34  C   UNL     1      -0.617   0.172  -0.537  0.00  0.00    +0.002 C 
ATOM     35  C   UNL     1      -0.534   0.738  -1.956  0.00  0.00    -0.011 C 
ENDBRANCH   1  35
TORSDOF 7
