REMARK  Name = ZINC18363530
REMARK  13 active torsions:
REMARK  status: ('A' for Active; 'I' for Inactive)
REMARK    1  A    between atoms: C_1  and  C_2
REMARK    2  A    between atoms: C_3  and  C_34
REMARK    3  A    between atoms: C_4  and  C_33
REMARK    4  A    between atoms: C_7  and  C_8
REMARK    5  A    between atoms: C_8  and  C_10
REMARK    6  A    between atoms: C_10  and  C_12
REMARK    7  A    between atoms: C_10  and  O_13
REMARK    8  A    between atoms: O_13  and  C_14
REMARK    9  A    between atoms: C_14  and  C_16
REMARK   10  A    between atoms: C_19  and  S_22
REMARK   11  A    between atoms: S_22  and  N_25
REMARK   12  A    between atoms: C_30  and  C_32
REMARK   13  A    between atoms: C_34  and  C_36
REMARK                            x       y       z     vdW  Elec       q    Type
REMARK                         _______ _______ _______ _____ _____    ______ ____
ROOT
ATOM      1  C   UNL     1      -0.067  -4.948   7.107  0.00  0.00    +0.340 C 
ATOM      2  O   UNL     1       0.610  -5.939   6.919  0.00  0.00    -0.245 OA
ENDROOT
BRANCH   1   3
ATOM      3  C   UNL     1       0.051  -4.202   8.376  0.00  0.00    +0.059 A 
ATOM      4  C   UNL     1      -0.730  -3.066   8.597  0.00  0.00    +0.017 A 
ATOM      5  C   UNL     1      -0.615  -2.374   9.785  0.00  0.00    +0.029 A 
ATOM      6  C   UNL     1       0.272  -2.803  10.756  0.00  0.00    +0.106 A 
ATOM      7  C   UNL     1       1.049  -3.928  10.544  0.00  0.00    +0.029 A 
ATOM      8  C   UNL     1       0.940  -4.633   9.363  0.00  0.00    +0.017 A 
BRANCH   6   9
ATOM      9  S   UNL     1       0.413  -1.913  12.271  0.00  0.00    +0.061 S 
ATOM     10  O   UNL     1       1.703  -2.201  12.792  0.00  0.00    -0.153 OA
ATOM     11  O   UNL     1      -0.023  -0.588  12.005  0.00  0.00    -0.153 OA
BRANCH   9  12
ATOM     12  N   UNL     1      -0.681  -2.568  13.327  0.00  0.00    -0.174 NA
ATOM     13  C   UNL     1      -2.011  -1.967  13.497  0.00  0.00    +0.110 C 
ATOM     14  C   UNL     1      -2.240  -1.690  14.986  0.00  0.00    +0.017 C 
ATOM     15  C   UNL     1      -2.029  -2.981  15.779  0.00  0.00    +0.003 C 
ATOM     16  C   UNL     1      -0.589  -3.466  15.594  0.00  0.00    +0.020 C 
ATOM     17  C   UNL     1      -0.343  -3.766  14.108  0.00  0.00    +0.077 C 
ATOM     18  C   UNL     1       1.129  -4.121  13.891  0.00  0.00    +0.026 C 
ENDBRANCH   9  12
ENDBRANCH   6   9
ENDBRANCH   1   3
BRANCH   1  19
ATOM     19  O   UNL     1      -0.926  -4.529   6.157  0.00  0.00    -0.450 OA
BRANCH  19  20
ATOM     20  C   UNL     1      -0.988  -5.298   4.954  0.00  0.00    +0.246 C 
ATOM     21  C   UNL     1      -2.049  -6.391   5.102  0.00  0.00    +0.061 C 
BRANCH  20  22
ATOM     22  C   UNL     1      -1.351  -4.399   3.801  0.00  0.00    +0.219 C 
ATOM     23  O   UNL     1      -1.801  -3.291   4.013  0.00  0.00    -0.287 OA
BRANCH  22  30
ATOM     24  C   UNL     1      -2.024  -2.734   1.265  0.00  0.00    +0.047 C 
ATOM     25  C   UNL     1      -1.457  -4.129   1.330  0.00  0.00    -0.012 A 
ATOM     26  C   UNL     1      -1.115  -4.951   0.232  0.00  0.00    +0.041 A 
ATOM     27  C   UNL     1      -0.633  -6.145   0.751  0.00  0.00    +0.024 A 
ATOM     28  N   UNL     1      -0.671  -6.076   2.089  0.00  0.00    -0.355 N 
ATOM     29  H   UNL     1      -0.390  -6.779   2.695  0.00  0.00    +0.166 HD
ATOM     30  C   UNL     1      -1.168  -4.846   2.470  0.00  0.00    +0.090 A 
ATOM     31  C   UNL     1      -0.149  -7.322  -0.055  0.00  0.00    +0.064 C 
BRANCH  26  32
ATOM     32  C   UNL     1      -1.244  -4.608  -1.188  0.00  0.00    +0.162 C 
ATOM     33  O   UNL     1      -2.299  -4.785  -1.761  0.00  0.00    -0.292 OA
ATOM     34  C   UNL     1      -0.067  -4.036  -1.935  0.00  0.00    +0.091 C 
ENDBRANCH  26  32
ENDBRANCH  22  30
ENDBRANCH  20  22
ENDBRANCH  19  20
ENDBRANCH   1  19
TORSDOF 8
