REMARK  Name = ZINC16672842
REMARK  2 active torsions:
REMARK  status: ('A' for Active; 'I' for Inactive)
REMARK    1  A    between atoms: C_5  and  C_7
REMARK    2  A    between atoms: N_13  and  C_14
REMARK                            x       y       z     vdW  Elec       q    Type
REMARK                         _______ _______ _______ _____ _____    ______ ____
ROOT
ATOM      1  C   UNL     1       1.160  -2.070   1.232  0.00  0.00    +0.031 C 
ATOM      2  C   UNL     1       0.033  -2.791   1.007  0.00  0.00    +0.078 C 
ATOM      3  C   UNL     1      -0.128  -4.248   0.839  0.00  0.00    +0.256 C 
ATOM      4  O   UNL     1       0.824  -5.005   0.893  0.00  0.00    -0.269 OA
ATOM      5  N   UNL     1      -1.355  -4.695   0.627  0.00  0.00    -0.260 N 
ATOM      6  C   UNL     1      -2.420  -3.822   0.569  0.00  0.00    +0.166 C 
ATOM      7  N   UNL     1      -3.689  -4.095   0.369  0.00  0.00    -0.224 NA
ATOM      8  S   UNL     1      -1.656  -2.232   0.841  0.00  0.00    -0.049 S 
ATOM      9  H   UNL     1      -1.506  -5.646   0.510  0.00  0.00    +0.157 HD
ENDROOT
BRANCH   1  14
ATOM     10  C   UNL     1      -0.226   1.261   2.250  0.00  0.00    +0.001 A 
ATOM     11  C   UNL     1       0.889   2.071   2.108  0.00  0.00    +0.003 A 
ATOM     12  C   UNL     1       2.091   1.538   1.682  0.00  0.00    +0.039 A 
ATOM     13  C   UNL     1       2.190   0.190   1.394  0.00  0.00    +0.131 A 
ATOM     14  C   UNL     1       1.067  -0.635   1.536  0.00  0.00    +0.011 A 
ATOM     15  C   UNL     1      -0.146  -0.085   1.968  0.00  0.00    +0.011 A 
ATOM     16  F   UNL     1       3.365  -0.330   0.978  0.00  0.00    -0.205 F 
ENDBRANCH   1  14
BRANCH   7  17
ATOM     17  C   UNL     1      -4.595  -3.078   0.234  0.00  0.00    +0.085 A 
ATOM     18  C   UNL     1      -4.340  -2.025  -0.648  0.00  0.00    +0.029 A 
ATOM     19  C   UNL     1      -5.257  -1.003  -0.780  0.00  0.00    +0.002 A 
ATOM     20  C   UNL     1      -6.427  -1.019  -0.041  0.00  0.00    +0.002 A 
ATOM     21  C   UNL     1      -6.687  -2.058   0.835  0.00  0.00    +0.022 A 
ATOM     22  C   UNL     1      -5.781  -3.091   0.972  0.00  0.00    +0.066 A 
ATOM     23 CL   UNL     1      -6.112  -4.398   2.066  0.00  0.00    -0.081 Cl
ENDBRANCH   7  17
TORSDOF 2
