REMARK  Name = ZINC36313857
REMARK  17 active torsions:
REMARK  status: ('A' for Active; 'I' for Inactive)
REMARK    1  A    between atoms: C_1  and  C_2
REMARK    2  A    between atoms: C_2  and  C_3
REMARK    3  A    between atoms: C_3  and  C_4
REMARK    4  A    between atoms: C_4  and  O_5
REMARK    5  A    between atoms: O_5  and  C_6
REMARK    6  A    between atoms: C_6  and  C_7
REMARK    7  A    between atoms: C_7  and  C_9
REMARK    8  A    between atoms: C_7  and  O_36
REMARK    9  A    between atoms: C_9  and  N_10
REMARK   10  A    between atoms: N_10  and  C_11
REMARK   11  A    between atoms: N_10  and  C_32
REMARK   12  A    between atoms: C_11  and  C_12
REMARK   13  A    between atoms: C_13  and  C_31
REMARK   14  A    between atoms: N_15  and  C_24
REMARK   15  A    between atoms: C_16  and  O_17
REMARK   16  A    between atoms: O_17  and  C_18
REMARK   17  A    between atoms: C_32  and  C_33
REMARK                            x       y       z     vdW  Elec       q    Type
REMARK                         _______ _______ _______ _____ _____    ______ ____
ROOT
ATOM      1  C   UNL     1       2.000  -8.056  -5.802  0.00  0.00    +0.021 A 
ATOM      2  C   UNL     1       1.012  -8.353  -4.859  0.00  0.00    +0.065 A 
ATOM      3  N   UNL     1      -0.115  -8.563  -5.491  0.00  0.00    -0.168 NA
ATOM      4  N   UNL     1       0.113  -8.407  -6.864  0.00  0.00    -0.200 N 
ATOM      5  C   UNL     1       1.424  -8.089  -7.034  0.00  0.00    +0.225 A 
ATOM      6  C   UNL     1       1.210  -8.421  -3.366  0.00  0.00    +0.068 C 
ENDROOT
BRANCH   4   7
ATOM      7  C   UNL     1      -0.841  -8.549  -7.881  0.00  0.00    +0.070 A 
ATOM      8  C   UNL     1      -0.857  -7.661  -8.948  0.00  0.00    +0.028 A 
ATOM      9  C   UNL     1      -1.798  -7.802  -9.949  0.00  0.00    +0.003 A 
ATOM     10  C   UNL     1      -2.725  -8.827  -9.890  0.00  0.00    +0.020 A 
ATOM     11  C   UNL     1      -2.712  -9.714  -8.828  0.00  0.00    +0.043 A 
ATOM     12  C   UNL     1      -1.768  -9.581  -7.826  0.00  0.00    +0.048 A 
ATOM     13 CL   UNL     1      -3.876 -10.999  -8.757  0.00  0.00    -0.083 Cl
ENDBRANCH   4   7
BRANCH   1  14
ATOM     14  C   UNL     1       3.445  -7.747  -5.506  0.00  0.00    -0.036 C 
BRANCH  14  15
ATOM     15  N   UNL     1       3.635  -6.291  -5.467  0.00  0.00    +0.384 N 
ATOM     16  H   UNL     1       3.291  -5.883  -6.323  0.00  0.00    -0.081 HD
BRANCH  15  17
ATOM     17  C   UNL     1       2.897  -5.731  -4.327  0.00  0.00    -0.044 C 
BRANCH  17  18
ATOM     18  C   UNL     1       2.994  -4.204  -4.357  0.00  0.00    +0.124 C 
BRANCH  18  19
ATOM     19  O   UNL     1       2.327  -3.708  -5.520  0.00  0.00    -0.391 OA
ATOM     20  H   UNL     1       1.388  -3.936  -5.562  0.00  0.00    +0.210 HD
ENDBRANCH  18  19
BRANCH  18  21
ATOM     21  C   UNL     1       2.332  -3.626  -3.104  0.00  0.00    +0.189 C 
BRANCH  21  22
ATOM     22  O   UNL     1       2.523  -2.211  -3.074  0.00  0.00    -0.377 OA
BRANCH  22  23
ATOM     23  C   UNL     1       1.941  -1.569  -1.938  0.00  0.00    +0.160 C 
BRANCH  23  24
ATOM     24  C   UNL     1       2.206  -0.064  -2.010  0.00  0.00    +0.028 C 
BRANCH  24  26
ATOM     25  C   UNL     1       1.847   2.128  -0.866  0.00  0.00    +0.004 C 
ATOM     26  C   UNL     1       1.582   0.623  -0.794  0.00  0.00    -0.001 C 
ENDBRANCH  24  26
ENDBRANCH  23  24
ENDBRANCH  22  23
ENDBRANCH  21  22
ENDBRANCH  18  21
ENDBRANCH  17  18
ENDBRANCH  15  17
BRANCH  15  27
ATOM     27  C   UNL     1       5.066  -5.988  -5.320  0.00  0.00    -0.075 C 
BRANCH  27  28
ATOM     28  C   UNL     1       5.817  -6.460  -6.567  0.00  0.00    -0.028 C 
ATOM     29  C   UNL     1       6.848  -7.576  -6.391  0.00  0.00    +0.002 C 
ATOM     30  C   UNL     1       7.311  -6.141  -6.654  0.00  0.00    +0.002 C 
ENDBRANCH  27  28
ENDBRANCH  15  27
ENDBRANCH  14  15
ENDBRANCH   1  14
BRANCH   5  31
ATOM     31  O   UNL     1       2.046  -7.850  -8.217  0.00  0.00    -0.438 OA
BRANCH  31  32
ATOM     32  C   UNL     1       2.548  -8.913  -8.899  0.00  0.00    +0.130 A 
ATOM     33  C   UNL     1       2.324 -10.203  -8.440  0.00  0.00    +0.046 A 
ATOM     34  C   UNL     1       2.836 -11.281  -9.136  0.00  0.00    +0.004 A 
ATOM     35  C   UNL     1       3.572 -11.075 -10.288  0.00  0.00    +0.000 A 
ATOM     36  C   UNL     1       3.797  -9.791 -10.748  0.00  0.00    +0.004 A 
ATOM     37  C   UNL     1       3.282  -8.709 -10.059  0.00  0.00    +0.046 A 
ENDBRANCH  31  32
ENDBRANCH   5  31
TORSDOF 15
