REMARK  Name = ZINC34699880
REMARK  3 active torsions:
REMARK  status: ('A' for Active; 'I' for Inactive)
REMARK    1  A    between atoms: C_10  and  C_22
REMARK    2  A    between atoms: N_14  and  C_15
REMARK    3  A    between atoms: C_15  and  C_16
REMARK                            x       y       z     vdW  Elec       q    Type
REMARK                         _______ _______ _______ _____ _____    ______ ____
ROOT
ATOM      1  C   UNL     1      -0.188   1.108  -0.933  0.00  0.00    +0.001 A 
ATOM      2  C   UNL     1       0.911   1.682  -1.556  0.00  0.00    +0.002 A 
ATOM      3  C   UNL     1       2.074   0.966  -1.735  0.00  0.00    +0.028 A 
ATOM      4  C   UNL     1       2.151  -0.354  -1.286  0.00  0.00    +0.078 A 
ATOM      5  C   UNL     1       1.030  -0.935  -0.652  0.00  0.00    +0.045 A 
ATOM      6  C   UNL     1      -0.137  -0.193  -0.481  0.00  0.00    +0.014 A 
ATOM      7  C   UNL     1       1.144  -2.323  -0.192  0.00  0.00    +0.173 A 
ATOM      8  N   UNL     1       0.345  -3.168   0.416  0.00  0.00    -0.128 NA
ATOM      9  N   UNL     1       0.948  -4.291   0.596  0.00  0.00    -0.125 NA
ATOM     10  C   UNL     1       2.173  -4.231   0.111  0.00  0.00    +0.206 A 
ATOM     11  N   UNL     1       2.341  -2.973  -0.408  0.00  0.00    -0.244 N 
ATOM     12  C   UNL     1       3.371  -2.325  -1.032  0.00  0.00    +0.204 A 
ATOM     13  N   UNL     1       3.281  -1.088  -1.447  0.00  0.00    -0.215 NA
ATOM     14  N   UNL     1       4.550  -3.002  -1.231  0.00  0.00    -0.312 N 
ATOM     15  H   UNL     1       4.612  -3.943  -1.006  0.00  0.00    +0.149 HD
ENDROOT
BRANCH  10  16
ATOM     16  C   UNL     1       3.172  -5.310   0.125  0.00  0.00    +0.172 A 
ATOM     17  C   UNL     1       2.917  -6.639  -0.042  0.00  0.00    +0.053 A 
ATOM     18  C   UNL     1       4.156  -7.303   0.044  0.00  0.00    +0.042 A 
ATOM     19  C   UNL     1       5.096  -6.360   0.258  0.00  0.00    +0.196 A 
ATOM     20  O   UNL     1       4.500  -5.158   0.300  0.00  0.00    -0.460 OA
ENDBRANCH  10  16
BRANCH  14  21
ATOM     21  C   UNL     1       5.712  -2.302  -1.784  0.00  0.00    +0.136 C 
BRANCH  21  22
ATOM     22  C   UNL     1       6.885  -3.277  -1.903  0.00  0.00    +0.135 C 
ATOM     23  C   UNL     1       8.148  -2.522  -2.370  0.00  0.00    +0.035 C 
ATOM     24  C   UNL     1       8.795  -3.536  -3.352  0.00  0.00    +0.031 C 
ATOM     25  C   UNL     1       7.534  -4.196  -3.966  0.00  0.00    +0.160 C 
ATOM     26  O   UNL     1       6.588  -4.276  -2.885  0.00  0.00    -0.375 OA
ENDBRANCH  21  22
ENDBRANCH  14  21
TORSDOF 3
