REMARK  Name = ZINC35483397
REMARK  17 active torsions:
REMARK  status: ('A' for Active; 'I' for Inactive)
REMARK    1  A    between atoms: C_1  and  C_2
REMARK    2  A    between atoms: C_2  and  C_3
REMARK    3  A    between atoms: C_3  and  C_4
REMARK    4  A    between atoms: C_4  and  O_5
REMARK    5  A    between atoms: O_5  and  C_6
REMARK    6  A    between atoms: C_9  and  C_15
REMARK    7  A    between atoms: C_11  and  O_12
REMARK    8  A    between atoms: O_12  and  C_13
REMARK    9  A    between atoms: C_13  and  C_14
REMARK   10  A    between atoms: N_30  and  C_31
REMARK   11  A    between atoms: C_31  and  C_32
REMARK   12  A    between atoms: C_32  and  C_33
REMARK   13  A    between atoms: C_33  and  N_34
REMARK   14  A    between atoms: N_34  and  C_35
REMARK   15  A    between atoms: N_34  and  C_37
REMARK   16  A    between atoms: C_35  and  C_36
REMARK   17  A    between atoms: C_37  and  C_38
REMARK                            x       y       z     vdW  Elec       q    Type
REMARK                         _______ _______ _______ _____ _____    ______ ____
ROOT
ATOM      1  C   UNL     1      -3.720  -9.595  -0.668  0.00  0.00    +0.145 C 
ATOM      2  C   UNL     1      -3.437 -10.440  -1.867  0.00  0.00    +0.072 A 
ATOM      3  C   UNL     1      -4.156 -10.587  -3.136  0.00  0.00    +0.199 A 
ATOM      4  O   UNL     1      -5.071  -9.857  -3.474  0.00  0.00    -0.287 OA
ATOM      5  C   UNL     1      -3.662 -11.711  -3.972  0.00  0.00    +0.064 A 
ATOM      6  C   UNL     1      -4.364 -12.106  -5.110  0.00  0.00    +0.015 A 
ATOM      7  C   UNL     1      -3.899 -13.146  -5.866  0.00  0.00    +0.001 A 
ATOM      8  C   UNL     1      -2.734 -13.808  -5.503  0.00  0.00    +0.004 A 
ATOM      9  C   UNL     1      -2.028 -13.429  -4.384  0.00  0.00    +0.047 A 
ATOM     10  C   UNL     1      -2.480 -12.370  -3.597  0.00  0.00    +0.139 A 
ATOM     11  O   UNL     1      -1.765 -12.009  -2.507  0.00  0.00    -0.450 OA
ATOM     12  C   UNL     1      -2.298 -11.150  -1.616  0.00  0.00    +0.199 A 
ATOM     13  C   UNL     1      -1.820 -10.797  -0.267  0.00  0.00    +0.283 C 
ATOM     14  O   UNL     1      -0.829 -11.258   0.263  0.00  0.00    -0.267 OA
ATOM     15  N   UNL     1      -2.646  -9.888   0.295  0.00  0.00    -0.284 N 
ENDROOT
BRANCH   1  19
ATOM     16  C   UNL     1      -3.648  -5.454  -1.734  0.00  0.00    +0.162 A 
ATOM     17  C   UNL     1      -2.461  -6.149  -1.566  0.00  0.00    +0.050 A 
ATOM     18  C   UNL     1      -2.488  -7.488  -1.221  0.00  0.00    +0.009 A 
ATOM     19  C   UNL     1      -3.697  -8.135  -1.044  0.00  0.00    -0.019 A 
ATOM     20  C   UNL     1      -4.884  -7.447  -1.211  0.00  0.00    +0.055 A 
ATOM     21  C   UNL     1      -4.864  -6.104  -1.550  0.00  0.00    +0.162 A 
BRANCH  16  22
ATOM     22  O   UNL     1      -3.623  -4.137  -2.073  0.00  0.00    -0.488 OA
BRANCH  22  23
ATOM     23  C   UNL     1      -2.339  -3.535  -2.246  0.00  0.00    +0.229 C 
BRANCH  23  24
ATOM     24  C   UNL     1      -2.512  -2.062  -2.622  0.00  0.00    +0.041 C 
BRANCH  24  26
ATOM     25  C   UNL     1      -1.310   0.055  -3.183  0.00  0.00    +0.004 C 
ATOM     26  C   UNL     1      -1.137  -1.418  -2.807  0.00  0.00    -0.000 C 
ENDBRANCH  24  26
ENDBRANCH  23  24
ENDBRANCH  22  23
ENDBRANCH  16  22
BRANCH  21  27
ATOM     27  O   UNL     1      -6.031  -5.424  -1.710  0.00  0.00    -0.489 OA
BRANCH  27  28
ATOM     28  C   UNL     1      -7.242  -6.156  -1.505  0.00  0.00    +0.226 C 
ATOM     29  C   UNL     1      -8.440  -5.231  -1.726  0.00  0.00    +0.048 C 
ENDBRANCH  27  28
ENDBRANCH  21  27
ENDBRANCH   1  19
BRANCH  15  30
ATOM     30  C   UNL     1      -2.499  -9.297   1.627  0.00  0.00    +0.107 C 
BRANCH  30  31
ATOM     31  C   UNL     1      -3.242 -10.157   2.652  0.00  0.00    +0.000 C 
BRANCH  31  32
ATOM     32  C   UNL     1      -3.088  -9.540   4.043  0.00  0.00    -0.077 C 
BRANCH  32  33
ATOM     33  N   UNL     1      -3.801 -10.366   5.027  0.00  0.00    +0.379 N 
ATOM     34  H   UNL     1      -4.762 -10.476   4.739  0.00  0.00    -0.082 HD
BRANCH  33  35
ATOM     35  C   UNL     1      -3.161 -11.685   5.114  0.00  0.00    -0.082 C 
ATOM     36  C   UNL     1      -3.986 -12.592   6.029  0.00  0.00    -0.017 C 
ENDBRANCH  33  35
BRANCH  33  37
ATOM     37  C   UNL     1      -3.756  -9.711   6.341  0.00  0.00    -0.082 C 
ATOM     38  C   UNL     1      -4.545  -8.402   6.286  0.00  0.00    -0.017 C 
ENDBRANCH  33  37
ENDBRANCH  32  33
ENDBRANCH  31  32
ENDBRANCH  30  31
ENDBRANCH  15  30
TORSDOF 13
