REMARK  Name = ZINC03322395
REMARK  10 active torsions:
REMARK  status: ('A' for Active; 'I' for Inactive)
REMARK    1  A    between atoms: C_1  and  C_2
REMARK    2  A    between atoms: C_2  and  C_3
REMARK    3  A    between atoms: C_2  and  C_4
REMARK    4  A    between atoms: C_2  and  C_5
REMARK    5  A    between atoms: C_8  and  O_11
REMARK    6  A    between atoms: O_11  and  C_12
REMARK    7  A    between atoms: C_15  and  C_21
REMARK    8  A    between atoms: C_17  and  N_18
REMARK    9  A    between atoms: C_26  and  C_28
REMARK   10  A    between atoms: C_32  and  N_34
REMARK                            x       y       z     vdW  Elec       q    Type
REMARK                         _______ _______ _______ _____ _____    ______ ____
ROOT
ATOM      1  C   UNL     1       7.516   4.851  -0.414  0.00  0.00    +0.159 A 
ATOM      2  C   UNL     1       6.140   4.649  -0.370  0.00  0.00    +0.049 A 
ATOM      3  C   UNL     1       5.631   3.382  -0.322  0.00  0.00    +0.012 A 
ATOM      4  C   UNL     1       6.497   2.279  -0.314  0.00  0.00    -0.020 A 
ATOM      5  C   UNL     1       7.884   2.483  -0.352  0.00  0.00    +0.044 A 
ATOM      6  C   UNL     1       8.384   3.764  -0.407  0.00  0.00    +0.169 A 
ENDROOT
BRANCH   4   7
ATOM      7  C   UNL     1       5.955   0.920  -0.261  0.00  0.00    +0.043 C 
ATOM      8  C   UNL     1       4.593   0.716  -0.347  0.00  0.00    +0.152 C 
ATOM      9  C   UNL     1       3.887  -0.575  -0.417  0.00  0.00    +0.364 C 
ATOM     10  O   UNL     1       4.379  -1.688  -0.411  0.00  0.00    -0.243 OA
ATOM     11  O   UNL     1       2.576  -0.259  -0.489  0.00  0.00    -0.402 OA
ATOM     12  C   UNL     1       2.454   1.083  -0.468  0.00  0.00    +0.232 C 
ATOM     13  N   UNL     1       3.617   1.668  -0.391  0.00  0.00    -0.205 NA
BRANCH  12  14
ATOM     14  C   UNL     1       1.165   1.800  -0.530  0.00  0.00    +0.039 A 
ATOM     15  C   UNL     1       1.138   3.197  -0.503  0.00  0.00    +0.013 A 
ATOM     16  C   UNL     1      -0.069   3.861  -0.563  0.00  0.00    +0.003 A 
ATOM     17  C   UNL     1      -1.252   3.147  -0.649  0.00  0.00    +0.033 A 
ATOM     18  C   UNL     1      -1.232   1.764  -0.682  0.00  0.00    +0.127 A 
ATOM     19  C   UNL     1      -0.032   1.087  -0.618  0.00  0.00    +0.046 A 
BRANCH  18  20
ATOM     20  N   UNL     1      -2.501   1.009  -0.781  0.00  0.00    +0.056 N 
ATOM     21  O   UNL     1      -2.486  -0.208  -0.805  0.00  0.00    -0.126 OA
ATOM     22  O   UNL     1      -3.562   1.606  -0.838  0.00  0.00    -0.126 OA
ENDBRANCH  18  20
ENDBRANCH  12  14
ENDBRANCH   4   7
BRANCH   6  23
ATOM     23  N   UNL     1       9.847   3.986  -0.453  0.00  0.00    +0.060 N 
ATOM     24  O   UNL     1      10.608   3.035  -0.447  0.00  0.00    -0.126 OA
ATOM     25  O   UNL     1      10.290   5.120  -0.497  0.00  0.00    -0.126 OA
ENDBRANCH   6  23
BRANCH   1  26
ATOM     26  O   UNL     1       8.012   6.113  -0.463  0.00  0.00    -0.454 OA
BRANCH  26  30
ATOM     27  C   UNL     1       5.362   9.252  -0.089  0.00  0.00    -0.042 A 
ATOM     28  C   UNL     1       5.598   8.416   0.987  0.00  0.00    +0.008 A 
ATOM     29  C   UNL     1       6.485   7.364   0.865  0.00  0.00    +0.046 A 
ATOM     30  C   UNL     1       7.139   7.147  -0.340  0.00  0.00    +0.129 A 
ATOM     31  C   UNL     1       6.905   7.990  -1.416  0.00  0.00    +0.046 A 
ATOM     32  C   UNL     1       6.013   9.037  -1.290  0.00  0.00    +0.008 A 
BRANCH  27  34
ATOM     33  C   UNL     1       4.875  11.343   1.152  0.00  0.00    +0.015 C 
ATOM     34  C   UNL     1       4.395  10.399   0.048  0.00  0.00    -0.013 C 
ATOM     35  C   UNL     1       4.317  11.161  -1.277  0.00  0.00    +0.015 C 
ATOM     36  C   UNL     1       3.009   9.858   0.407  0.00  0.00    +0.015 C 
ENDBRANCH  27  34
ENDBRANCH  26  30
ENDBRANCH   1  26
TORSDOF 7
