REMARK  Name = ZINC33258510
REMARK  6 active torsions:
REMARK  status: ('A' for Active; 'I' for Inactive)
REMARK    1  A    between atoms: C_1  and  C_2
REMARK    2  A    between atoms: C_3  and  C_19
REMARK    3  A    between atoms: N_5  and  C_7
REMARK    4  A    between atoms: C_10  and  C_13
REMARK    5  A    between atoms: C_15  and  C_18
REMARK    6  A    between atoms: N_21  and  C_22
REMARK                            x       y       z     vdW  Elec       q    Type
REMARK                         _______ _______ _______ _____ _____    ______ ____
ROOT
ATOM      1  C   UNL     1      -1.376  10.335   1.648  0.00  0.00    +0.068 C 
ATOM      2  C   UNL     1      -1.042   9.336   2.726  0.00  0.00    +0.072 A 
ATOM      3  C   UNL     1      -0.947   7.936   2.560  0.00  0.00    +0.078 A 
ATOM      4  C   UNL     1      -0.628   7.400   3.792  0.00  0.00    +0.127 A 
ATOM      5  N   UNL     1      -0.525   8.423   4.660  0.00  0.00    -0.239 N 
ATOM      6  N   UNL     1      -0.789   9.614   3.975  0.00  0.00    -0.171 NA
ENDROOT
BRANCH   5   7
ATOM      7  C   UNL     1      -0.211   8.313   6.020  0.00  0.00    +0.065 A 
ATOM      8  C   UNL     1       0.025   7.062   6.579  0.00  0.00    +0.028 A 
ATOM      9  C   UNL     1       0.340   6.952   7.917  0.00  0.00    +0.014 A 
ATOM     10  C   UNL     1       0.408   8.095   8.712  0.00  0.00    +0.023 A 
ATOM     11  C   UNL     1       0.165   9.348   8.150  0.00  0.00    +0.014 A 
ATOM     12  C   UNL     1      -0.143   9.454   6.811  0.00  0.00    +0.028 A 
BRANCH  10  13
ATOM     13  C   UNL     1       0.740   7.979  10.153  0.00  0.00    +0.202 A 
ATOM     14  N   UNL     1       0.993   6.835  10.829  0.00  0.00    -0.192 NA
ATOM     15  C   UNL     1       1.237   7.202  12.062  0.00  0.00    +0.225 A 
ATOM     16  O   UNL     1       1.121   8.532  12.108  0.00  0.00    -0.338 OA
ATOM     17  N   UNL     1       0.836   8.962  11.010  0.00  0.00    -0.056 NA
ATOM     18  C   UNL     1       1.580   6.293  13.215  0.00  0.00    +0.112 C 
ENDBRANCH  10  13
ENDBRANCH   5   7
BRANCH   3  19
ATOM     19  C   UNL     1      -1.155   7.187   1.308  0.00  0.00    +0.252 C 
ATOM     20  O   UNL     1      -1.439   7.780   0.284  0.00  0.00    -0.270 OA
ATOM     21  N   UNL     1      -1.031   5.845   1.296  0.00  0.00    -0.281 N 
ATOM     22  H   UNL     1      -0.865   5.300   2.237  0.00  0.00    +0.155 HD
BRANCH  21  23
ATOM     23  C   UNL     1      -1.115   5.146   0.088  0.00  0.00    +0.037 A 
ATOM     24  C   UNL     1      -0.808   5.787  -1.102  0.00  0.00    +0.023 A 
ATOM     25  C   UNL     1      -0.892   5.094  -2.294  0.00  0.00    +0.002 A 
ATOM     26  C   UNL     1      -1.282   3.770  -2.293  0.00  0.00    +0.004 A 
ATOM     27  C   UNL     1      -1.591   3.123  -1.103  0.00  0.00    -0.042 A 
ATOM     28  C   UNL     1      -1.506   3.807   0.088  0.00  0.00    -0.023 A 
ATOM     29  C   UNL     1      -1.818   3.167   1.415  0.00  0.00    +0.037 C 
ATOM     30  C   UNL     1      -2.623   1.884   1.218  0.00  0.00    +0.005 C 
ATOM     31  C   UNL     1      -1.897   1.011   0.188  0.00  0.00    +0.005 C 
ATOM     32  C   UNL     1      -2.014   1.679  -1.180  0.00  0.00    +0.035 C 
ENDBRANCH  21  23
ENDBRANCH   3  19
TORSDOF 4
