REMARK  Name = ZINC13450622
REMARK  6 active torsions:
REMARK  status: ('A' for Active; 'I' for Inactive)
REMARK    1  A    between atoms: C_1  and  C_2
REMARK    2  A    between atoms: C_4  and  O_38
REMARK    3  A    between atoms: C_14  and  C_16
REMARK    4  A    between atoms: C_16  and  C_21
REMARK    5  A    between atoms: C_26  and  C_37
REMARK    6  A    between atoms: N_28  and  O_29
REMARK                            x       y       z     vdW  Elec       q    Type
REMARK                         _______ _______ _______ _____ _____    ______ ____
ROOT
ATOM      1  C   UNL     1       1.741   2.283  -0.064  0.00  0.00    +0.012 C 
ATOM      2  C   UNL     1       1.383   0.806   0.164  0.00  0.00    -0.019 C 
ATOM      3  C   UNL     1      -0.114   0.593   0.320  0.00  0.00    +0.039 C 
ATOM      4  C   UNL     1      -0.653   1.038   1.667  0.00  0.00    +0.119 C 
ATOM      5  C   UNL     1       0.088   0.435   2.852  0.00  0.00    +0.033 C 
ATOM      6  C   UNL     1       1.583   0.473   2.700  0.00  0.00    -0.001 C 
ATOM      7  C   UNL     1       2.163   0.211   1.342  0.00  0.00    -0.001 C 
ATOM      8  C   UNL     1       2.446  -1.258   1.022  0.00  0.00    +0.005 C 
ATOM      9  C   UNL     1       2.000  -1.474  -0.442  0.00  0.00    +0.009 C 
ATOM     10  C   UNL     1       1.866  -0.060  -1.034  0.00  0.00    +0.054 C 
ATOM     11  C   UNL     1       2.342  -0.261   3.797  0.00  0.00    +0.004 C 
ATOM     12  C   UNL     1       1.732  -1.614   4.139  0.00  0.00    +0.005 C 
ATOM     13  C   UNL     1       0.264  -1.437   4.504  0.00  0.00    +0.006 C 
ATOM     14  C   UNL     1      -0.509  -0.881   3.304  0.00  0.00    +0.018 C 
ATOM     15  C   UNL     1      -1.927  -0.659   3.812  0.00  0.00    +0.069 C 
ATOM     16  N   UNL     1      -2.471   0.492   3.792  0.00  0.00    -0.096 NA
ATOM     17  C   UNL     1      -2.654  -1.867   4.355  0.00  0.00    +0.119 C 
ATOM     18  C   UNL     1      -1.800  -2.561   5.415  0.00  0.00    +0.176 C 
ATOM     19  C   UNL     1      -0.354  -2.746   4.973  0.00  0.00    +0.069 C 
ATOM     20  O   UNL     1      -2.369  -3.865   5.673  0.00  0.00    -0.346 OA
ATOM     21  C   UNL     1      -2.141  -4.084   7.086  0.00  0.00    +0.191 C 
ATOM     22  C   UNL     1      -2.384  -2.664   7.657  0.00  0.00    +0.191 C 
ATOM     23  O   UNL     1      -1.841  -1.805   6.633  0.00  0.00    -0.346 OA
ATOM     24  C   UNL     1      -0.567  -1.915   2.183  0.00  0.00    +0.018 C 
ENDROOT
BRANCH  10  25
ATOM     25  C   UNL     1       0.869  -0.043  -2.195  0.00  0.00    +0.171 C 
ATOM     26  O   UNL     1      -0.377  -0.619  -1.769  0.00  0.00    -0.346 OA
ATOM     27  C   UNL     1      -0.871  -1.331  -2.929  0.00  0.00    +0.191 C 
ATOM     28  C   UNL     1       0.442  -1.872  -3.549  0.00  0.00    +0.191 C 
ATOM     29  O   UNL     1       1.387  -0.815  -3.286  0.00  0.00    -0.346 OA
ATOM     30  C   UNL     1       0.636   1.399  -2.651  0.00  0.00    +0.074 C 
ENDBRANCH  10  25
BRANCH  16  31
ATOM     31  O   UNL     1      -1.677   1.648   3.592  0.00  0.00    -0.409 OA
ATOM     32  H   UNL     1      -2.179   2.475   3.593  0.00  0.00    +0.328 HD
ENDBRANCH  16  31
BRANCH   4  33
ATOM     33  O   UNL     1      -0.638   2.466   1.764  0.00  0.00    -0.391 OA
ATOM     34  H   UNL     1      -1.171   2.912   1.092  0.00  0.00    +0.210 HD
ENDBRANCH   4  33
TORSDOF 3
