REMARK  Name = ZINC22119420
REMARK  10 active torsions:
REMARK  status: ('A' for Active; 'I' for Inactive)
REMARK    1  A    between atoms: C_1  and  C_2
REMARK    2  A    between atoms: C_2  and  C_21
REMARK    3  A    between atoms: N_5  and  C_9
REMARK    4  A    between atoms: C_9  and  C_10
REMARK    5  A    between atoms: N_12  and  C_13
REMARK    6  A    between atoms: C_13  and  C_19
REMARK    7  A    between atoms: C_24  and  C_27
REMARK    8  A    between atoms: C_27  and  C_28
REMARK    9  A    between atoms: C_27  and  C_29
REMARK   10  A    between atoms: C_27  and  C_30
REMARK                            x       y       z     vdW  Elec       q    Type
REMARK                         _______ _______ _______ _____ _____    ______ ____
ROOT
ATOM      1  C   UNL     1       0.644   6.198  -1.082  0.00  0.00    +0.047 C 
ATOM      2  C   UNL     1      -0.716   5.690  -0.598  0.00  0.00    +0.135 C 
ATOM      3  C   UNL     1      -0.960   4.275  -1.085  0.00  0.00    +0.251 C 
ATOM      4  O   UNL     1      -1.030   3.899  -2.235  0.00  0.00    -0.272 OA
ATOM      5  N   UNL     1      -1.083   3.523   0.026  0.00  0.00    -0.215 N 
ATOM      6  C   UNL     1      -0.956   4.259   1.137  0.00  0.00    +0.310 C 
ATOM      7  O   UNL     1      -1.034   3.804   2.261  0.00  0.00    -0.252 OA
ATOM      8  N   UNL     1      -0.730   5.558   0.869  0.00  0.00    -0.281 N 
ATOM      9  H   UNL     1      -0.572   6.443   1.503  0.00  0.00    +0.152 HD
ENDROOT
BRANCH   2  10
ATOM     10  C   UNL     1      -1.818   6.607  -1.059  0.00  0.00    -0.015 A 
ATOM     11  C   UNL     1      -2.476   6.354  -2.248  0.00  0.00    +0.006 A 
ATOM     12  C   UNL     1      -3.490   7.194  -2.669  0.00  0.00    +0.004 A 
ATOM     13  C   UNL     1      -3.841   8.292  -1.905  0.00  0.00    -0.042 A 
ATOM     14  C   UNL     1      -3.179   8.548  -0.718  0.00  0.00    +0.004 A 
ATOM     15  C   UNL     1      -2.168   7.706  -0.295  0.00  0.00    +0.006 A 
BRANCH  13  16
ATOM     16  C   UNL     1      -4.943   9.210  -2.366  0.00  0.00    -0.013 C 
ATOM     17  C   UNL     1      -4.386  10.623  -2.550  0.00  0.00    +0.015 C 
ATOM     18  C   UNL     1      -5.504   8.706  -3.697  0.00  0.00    +0.015 C 
ATOM     19  C   UNL     1      -6.058   9.234  -1.319  0.00  0.00    +0.015 C 
ENDBRANCH  13  16
ENDBRANCH   2  10
BRANCH   5  20
ATOM     20  C   UNL     1      -1.331   2.079   0.020  0.00  0.00    +0.213 C 
BRANCH  20  21
ATOM     21  C   UNL     1      -0.016   1.344   0.009  0.00  0.00    +0.232 C 
ATOM     22  O   UNL     1       1.026   1.964   0.003  0.00  0.00    -0.274 OA
ATOM     23  N   UNL     1       0.002  -0.004   0.002  0.00  0.00    -0.296 N 
ATOM     24  H   UNL     1      -0.943  -0.567   0.008  0.00  0.00    +0.150 HD
BRANCH  23  25
ATOM     25  C   UNL     1       1.281  -0.719  -0.014  0.00  0.00    +0.121 C 
ATOM     26  C   UNL     1       2.066  -0.332  -1.269  0.00  0.00    +0.041 C 
ATOM     27  C   UNL     1       3.401  -1.079  -1.286  0.00  0.00    +0.003 C 
ATOM     28  C   UNL     1       3.142  -2.587  -1.291  0.00  0.00    +0.000 C 
ATOM     29  C   UNL     1       2.357  -2.974  -0.036  0.00  0.00    +0.003 C 
ATOM     30  C   UNL     1       1.021  -2.227  -0.020  0.00  0.00    +0.041 C 
BRANCH  25  31
ATOM     31  C   UNL     1       2.059  -0.360   1.182  0.00  0.00    +0.088 C 
ATOM     32  N   UNL     1       2.660  -0.082   2.106  0.00  0.00    -0.194 NA
ENDBRANCH  25  31
ENDBRANCH  23  25
ENDBRANCH  20  21
ENDBRANCH   5  20
TORSDOF 6
