REMARK  Name = ZINC58491756
REMARK  9 active torsions:
REMARK  status: ('A' for Active; 'I' for Inactive)
REMARK    1  A    between atoms: C_1  and  C_2
REMARK    2  A    between atoms: C_5  and  N_8
REMARK    3  A    between atoms: C_9  and  S_13
REMARK    4  A    between atoms: S_13  and  C_14
REMARK    5  A    between atoms: C_14  and  C_15
REMARK    6  A    between atoms: C_15  and  C_16
REMARK    7  A    between atoms: N_18  and  C_19
REMARK    8  A    between atoms: C_19  and  C_21
REMARK    9  A    between atoms: C_19  and  C_27
REMARK                            x       y       z     vdW  Elec       q    Type
REMARK                         _______ _______ _______ _____ _____    ______ ____
ROOT
ATOM      1  C   UNL     1       3.506  -7.080   4.828  0.00  0.00    +0.215 C 
ATOM      2  O   UNL     1       3.172  -8.133   4.328  0.00  0.00    -0.276 OA
ATOM      3  N   UNL     1       4.280  -7.073   5.931  0.00  0.00    -0.304 N 
ATOM      4  H   UNL     1       4.547  -6.230   6.331  0.00  0.00    +0.150 HD
ENDROOT
BRANCH   1   5
ATOM      5  C   UNL     1       3.056  -5.778   4.215  0.00  0.00    +0.107 C 
BRANCH   5   6
ATOM      6  C   UNL     1       2.196  -6.066   2.983  0.00  0.00    +0.086 C 
BRANCH   6   7
ATOM      7  S   UNL     1       1.654  -4.499   2.246  0.00  0.00    -0.084 S 
BRANCH   7   9
ATOM      8  N   UNL     1       0.059  -4.173  -0.021  0.00  0.00    -0.187 N 
ATOM      9  C   UNL     1       0.688  -4.993   0.857  0.00  0.00    +0.214 A 
ATOM     10  N   UNL     1       0.441  -6.228   0.476  0.00  0.00    -0.101 NA
ATOM     11  N   UNL     1      -0.296  -6.235  -0.576  0.00  0.00    -0.022 NA
ATOM     12  N   UNL     1      -0.576  -5.030  -0.937  0.00  0.00    -0.038 NA
BRANCH   8  17
ATOM     13  C   UNL     1      -0.018   1.503   0.010  0.00  0.00    +0.044 C 
ATOM     14  C   UNL     1       0.002  -0.004   0.002  0.00  0.00    -0.050 A 
ATOM     15  C   UNL     1       0.006  -0.688  -1.200  0.00  0.00    +0.005 A 
ATOM     16  C   UNL     1       0.025  -2.068  -1.211  0.00  0.00    +0.028 A 
ATOM     17  C   UNL     1       0.040  -2.771  -0.013  0.00  0.00    +0.070 A 
ATOM     18  C   UNL     1       0.037  -2.082   1.192  0.00  0.00    +0.028 A 
ATOM     19  C   UNL     1       0.023  -0.700   1.196  0.00  0.00    +0.005 A 
ENDBRANCH   8  17
ENDBRANCH   7   9
ENDBRANCH   6   7
ENDBRANCH   5   6
ENDBRANCH   1   5
BRANCH   3  20
ATOM     20  C   UNL     1       4.718  -8.338   6.527  0.00  0.00    +0.140 C 
BRANCH  20  21
ATOM     21  C   UNL     1       5.991  -8.114   7.301  0.00  0.00    -0.022 A 
ATOM     22  C   UNL     1       6.145  -6.971   8.064  0.00  0.00    +0.006 A 
ATOM     23  C   UNL     1       7.312  -6.766   8.775  0.00  0.00    +0.000 A 
ATOM     24  C   UNL     1       8.327  -7.704   8.723  0.00  0.00    +0.000 A 
ATOM     25  C   UNL     1       8.173  -8.847   7.961  0.00  0.00    +0.000 A 
ATOM     26  C   UNL     1       7.003  -9.054   7.254  0.00  0.00    +0.006 A 
ENDBRANCH  20  21
BRANCH  20  27
ATOM     27  C   UNL     1       3.649  -8.852   7.456  0.00  0.00    +0.014 A 
ATOM     28  C   UNL     1       3.223 -10.125   7.644  0.00  0.00    +0.013 A 
ATOM     29  C   UNL     1       2.216 -10.366   8.561  0.00  0.00    +0.008 A 
ATOM     30  C   UNL     1       1.685  -9.323   9.244  0.00  0.00    +0.045 A 
ATOM     31  S   UNL     1       2.620  -7.945   8.598  0.00  0.00    -0.099 S 
ENDBRANCH  20  27
ENDBRANCH   3  20
TORSDOF 8
