REMARK  Name = ZINC45871175
REMARK  11 active torsions:
REMARK  status: ('A' for Active; 'I' for Inactive)
REMARK    1  A    between atoms: C_1  and  C_2
REMARK    2  A    between atoms: C_2  and  C_3
REMARK    3  A    between atoms: C_6  and  C_9
REMARK    4  A    between atoms: C_9  and  C_11
REMARK    5  A    between atoms: C_9  and  N_34
REMARK    6  A    between atoms: C_11  and  N_12
REMARK    7  A    between atoms: C_13  and  C_15
REMARK    8  A    between atoms: N_20  and  S_21
REMARK    9  A    between atoms: S_21  and  C_24
REMARK   10  A    between atoms: N_34  and  C_35
REMARK   11  A    between atoms: N_34  and  C_36
REMARK                            x       y       z     vdW  Elec       q    Type
REMARK                         _______ _______ _______ _____ _____    ______ ____
ROOT
ATOM      1  N   UNL     1      -6.942  -3.850  -0.348  0.00  0.00    -0.315 N 
ATOM      2  C   UNL     1      -7.276  -5.137  -0.566  0.00  0.00    +0.232 C 
ATOM      3  O   UNL     1      -6.410  -5.961  -0.771  0.00  0.00    -0.274 OA
ATOM      4  H   UNL     1      -7.635  -3.190  -0.184  0.00  0.00    +0.149 HD
ENDROOT
BRANCH   2   5
ATOM      5  C   UNL     1      -8.724  -5.553  -0.556  0.00  0.00    +0.165 C 
ATOM      6  C   UNL     1      -9.490  -4.816  -1.675  0.00  0.00    +0.031 C 
ATOM      7  C   UNL     1      -9.509  -5.856  -2.826  0.00  0.00    +0.019 C 
ATOM      8  C   UNL     1      -9.647  -7.185  -2.042  0.00  0.00    +0.110 C 
ATOM      9  N   UNL     1      -8.833  -6.994  -0.824  0.00  0.00    -0.165 NA
BRANCH   9  10
ATOM     10  S   UNL     1      -8.154  -8.199   0.087  0.00  0.00    +0.062 S 
ATOM     11  O   UNL     1      -8.011  -9.324  -0.769  0.00  0.00    -0.153 OA
ATOM     12  O   UNL     1      -7.052  -7.619   0.772  0.00  0.00    -0.153 OA
BRANCH  10  13
ATOM     13  C   UNL     1      -9.332  -8.649   1.318  0.00  0.00    +0.109 A 
ATOM     14  C   UNL     1      -9.335  -8.001   2.539  0.00  0.00    +0.032 A 
ATOM     15  C   UNL     1     -10.257  -8.352   3.507  0.00  0.00    +0.051 A 
ATOM     16  C   UNL     1     -11.181  -9.354   3.256  0.00  0.00    +0.162 A 
ATOM     17  C   UNL     1     -11.179 -10.004   2.027  0.00  0.00    +0.164 A 
ATOM     18  C   UNL     1     -10.254  -9.645   1.059  0.00  0.00    +0.078 A 
ATOM     19  O   UNL     1     -12.083 -10.985   1.757  0.00  0.00    -0.485 OA
ATOM     20  C   UNL     1     -12.754 -11.569   2.879  0.00  0.00    +0.270 C 
ATOM     21  C   UNL     1     -13.228 -10.436   3.798  0.00  0.00    +0.270 C 
ATOM     22  O   UNL     1     -12.081  -9.691   4.220  0.00  0.00    -0.485 OA
ENDBRANCH  10  13
ENDBRANCH   9  10
ENDBRANCH   2   5
BRANCH   1  23
ATOM     23  C   UNL     1      -5.534  -3.446  -0.358  0.00  0.00    +0.093 C 
BRANCH  23  24
ATOM     24  C   UNL     1      -5.423  -1.974   0.043  0.00  0.00    -0.021 C 
BRANCH  24  28
ATOM     25  C   UNL     1      -6.702  -1.503   4.092  0.00  0.00    -0.048 A 
ATOM     26  C   UNL     1      -7.561  -1.190   3.055  0.00  0.00    +0.004 A 
ATOM     27  C   UNL     1      -7.147  -1.342   1.745  0.00  0.00    +0.002 A 
ATOM     28  C   UNL     1      -5.874  -1.807   1.472  0.00  0.00    -0.059 A 
ATOM     29  C   UNL     1      -5.015  -2.119   2.509  0.00  0.00    +0.002 A 
ATOM     30  C   UNL     1      -5.428  -1.963   3.819  0.00  0.00    +0.004 A 
BRANCH  25  32
ATOM     31  C   UNL     1      -6.817   0.076   6.000  0.00  0.00    +0.009 C 
ATOM     32  C   UNL     1      -7.154  -1.337   5.520  0.00  0.00    +0.032 C 
ENDBRANCH  25  32
ENDBRANCH  24  28
BRANCH  24  33
ATOM     33  N   UNL     1      -4.027  -1.536  -0.084  0.00  0.00    +0.382 N 
ATOM     34  C   UNL     1      -3.592  -1.681  -1.479  0.00  0.00    -0.096 C 
ATOM     35  C   UNL     1      -3.917  -0.127   0.319  0.00  0.00    -0.096 C 
ATOM     36  H   UNL     1      -3.441  -2.102   0.512  0.00  0.00    -0.082 HD
ENDBRANCH  24  33
ENDBRANCH  23  24
ENDBRANCH   1  23
TORSDOF 8
