REMARK  Name = ZINC14670003
REMARK  16 active torsions:
REMARK  status: ('A' for Active; 'I' for Inactive)
REMARK    1  A    between atoms: C_1  and  C_2
REMARK    2  A    between atoms: C_2  and  C_3
REMARK    3  A    between atoms: C_3  and  C_4
REMARK    4  A    between atoms: C_4  and  N_5
REMARK    5  A    between atoms: C_6  and  N_35
REMARK    6  A    between atoms: C_7  and  N_14
REMARK    7  A    between atoms: N_14  and  C_15
REMARK    8  A    between atoms: C_15  and  C_16
REMARK    9  A    between atoms: C_16  and  C_17
REMARK   10  A    between atoms: C_16  and  C_18
REMARK   11  A    between atoms: C_19  and  C_21
REMARK   12  A    between atoms: C_22  and  C_23
REMARK   13  A    between atoms: C_26  and  O_31
REMARK   14  A    between atoms: C_27  and  O_29
REMARK   15  A    between atoms: O_29  and  C_30
REMARK   16  A    between atoms: O_31  and  C_32
REMARK                            x       y       z     vdW  Elec       q    Type
REMARK                         _______ _______ _______ _____ _____    ______ ____
ROOT
ATOM      1  N   UNL     1       2.333   3.638   0.053  0.00  0.00    -0.260 N 
ATOM      2  C   UNL     1       2.241   4.974  -0.096  0.00  0.00    +0.244 C 
ATOM      3  O   UNL     1       1.147   5.506  -0.155  0.00  0.00    -0.270 OA
ENDROOT
BRANCH   1   6
ATOM      4  N   UNL     1      -0.362   1.378   1.115  0.00  0.00    -0.280 N 
ATOM      5  C   UNL     1       0.780   2.143   1.161  0.00  0.00    +0.127 A 
ATOM      6  C   UNL     1       1.167   2.845   0.038  0.00  0.00    +0.140 A 
ATOM      7  C   UNL     1       0.377   2.755  -1.124  0.00  0.00    +0.277 A 
ATOM      8  O   UNL     1       0.696   3.364  -2.131  0.00  0.00    -0.266 OA
ATOM      9  N   UNL     1      -0.733   1.991  -1.116  0.00  0.00    -0.273 N 
ATOM     10  H   UNL     1      -1.292   1.923  -1.943  0.00  0.00    +0.173 HD
ATOM     11  C   UNL     1      -1.097   1.318  -0.010  0.00  0.00    +0.331 A 
ATOM     12  O   UNL     1      -2.106   0.640  -0.029  0.00  0.00    -0.246 OA
BRANCH   5  13
ATOM     13  N   UNL     1       1.528   2.208   2.313  0.00  0.00    -0.343 N 
ATOM     14  H   UNL     1       2.277   2.821   2.371  0.00  0.00    +0.144 HD
ATOM     15  H   UNL     1       1.306   1.640   3.068  0.00  0.00    +0.144 HD
ENDBRANCH   5  13
BRANCH   4  16
ATOM     16  C   UNL     1      -0.785   0.628   2.301  0.00  0.00    +0.128 C 
BRANCH  16  17
ATOM     17  C   UNL     1      -1.709   1.500   3.153  0.00  0.00    +0.021 C 
BRANCH  17  19
ATOM     18  C   UNL     1      -3.074   1.589   5.244  0.00  0.00    +0.004 C 
ATOM     19  C   UNL     1      -2.150   0.717   4.392  0.00  0.00    -0.002 C 
ENDBRANCH  17  19
ENDBRANCH  16  17
ENDBRANCH   4  16
ENDBRANCH   1   6
BRANCH   2  20
ATOM     20  C   UNL     1       3.455   5.784  -0.188  0.00  0.00    +0.068 C 
ATOM     21  C   UNL     1       3.363   7.123  -0.338  0.00  0.00    +0.013 C 
BRANCH  21  22
ATOM     22  C   UNL     1       4.583   7.938  -0.430  0.00  0.00    -0.021 A 
ATOM     23  C   UNL     1       5.841   7.328  -0.363  0.00  0.00    +0.012 A 
ATOM     24  C   UNL     1       6.982   8.094  -0.450  0.00  0.00    +0.050 A 
ATOM     25  C   UNL     1       6.889   9.470  -0.604  0.00  0.00    +0.168 A 
ATOM     26  C   UNL     1       5.640  10.085  -0.672  0.00  0.00    +0.162 A 
ATOM     27  C   UNL     1       4.490   9.325  -0.591  0.00  0.00    +0.057 A 
BRANCH  26  28
ATOM     28  O   UNL     1       5.553  11.434  -0.822  0.00  0.00    -0.491 OA
ATOM     29  C   UNL     1       4.241  11.997  -0.884  0.00  0.00    +0.277 C 
ENDBRANCH  26  28
BRANCH  25  30
ATOM     30  O   UNL     1       8.018  10.220  -0.690  0.00  0.00    -0.431 OA
BRANCH  30  31
ATOM     31  C   UNL     1       9.265   9.526  -0.614  0.00  0.00    +0.541 C 
ATOM     32  F   UNL     1       9.352   8.855   0.611  0.00  0.00    -0.166 F 
ATOM     33  F   UNL     1       9.348   8.601  -1.659  0.00  0.00    -0.166 F 
ENDBRANCH  30  31
ENDBRANCH  25  30
ENDBRANCH  21  22
ENDBRANCH   2  20
BRANCH   1  34
ATOM     34  C   UNL     1       3.644   3.009   0.232  0.00  0.00    +0.117 C 
BRANCH  34  35
ATOM     35  C   UNL     1       4.156   2.506  -1.120  0.00  0.00    +0.001 C 
ATOM     36  C   UNL     1       4.402   3.698  -2.047  0.00  0.00    +0.009 C 
ATOM     37  C   UNL     1       5.465   1.740  -0.916  0.00  0.00    +0.009 C 
ENDBRANCH  34  35
ENDBRANCH   1  34
TORSDOF 12
