REMARK  Name = ZINC05069138
REMARK  6 active torsions:
REMARK  status: ('A' for Active; 'I' for Inactive)
REMARK    1  A    between atoms: C_1  and  C_2
REMARK    2  A    between atoms: C_5  and  C_22
REMARK    3  A    between atoms: C_10  and  C_12
REMARK    4  A    between atoms: C_12  and  S_13
REMARK    5  A    between atoms: S_13  and  C_14
REMARK    6  A    between atoms: C_18  and  N_19
REMARK                            x       y       z     vdW  Elec       q    Type
REMARK                         _______ _______ _______ _____ _____    ______ ____
ROOT
ATOM      1  C   UNL     1      -6.452   2.061   2.561  0.00  0.00    +0.009 C 
ATOM      2  C   UNL     1      -7.149   1.719   1.243  0.00  0.00    +0.004 C 
ATOM      3  C   UNL     1      -8.482   2.466   1.162  0.00  0.00    +0.009 C 
ATOM      4  C   UNL     1      -8.232   3.973   1.263  0.00  0.00    +0.004 C 
ATOM      5  C   UNL     1      -7.354   4.421   0.090  0.00  0.00    +0.111 C 
ATOM      6  N   UNL     1      -6.132   3.605   0.075  0.00  0.00    -0.300 N 
ATOM      7  C   UNL     1      -6.259   2.142   0.064  0.00  0.00    +0.111 C 
ATOM      8  C   UNL     1      -4.917   4.189   0.067  0.00  0.00    +0.226 C 
ATOM      9  O   UNL     1      -4.825   5.398   0.072  0.00  0.00    -0.275 OA
ATOM     10  C   UNL     1      -9.568   4.717   1.215  0.00  0.00    +0.009 C 
ENDROOT
BRANCH   8  11
ATOM     11  C   UNL     1      -3.673   3.339   0.052  0.00  0.00    +0.170 C 
BRANCH  11  12
ATOM     12  S   UNL     1      -2.209   4.410   0.044  0.00  0.00    -0.113 S 
BRANCH  12  13
ATOM     13  C   UNL     1      -0.856   3.282   0.026  0.00  0.00    +0.046 A 
ATOM     14  C   UNL     1      -1.078   1.914   0.017  0.00  0.00    +0.024 A 
ATOM     15  C   UNL     1      -0.013   1.076   0.008  0.00  0.00    +0.048 A 
ATOM     16  S   UNL     1       1.360   2.217   0.001  0.00  0.00    -0.072 S 
ATOM     17  C   UNL     1       0.425   3.738   0.017  0.00  0.00    +0.177 A 
BRANCH  17  18
ATOM     18  N   UNL     1       0.917   5.135   0.020  0.00  0.00    +0.064 N 
ATOM     19  O   UNL     1       2.115   5.359   0.010  0.00  0.00    -0.126 OA
ATOM     20  O   UNL     1       0.125   6.060   0.032  0.00  0.00    -0.126 OA
ENDBRANCH  17  18
ENDBRANCH  12  13
ENDBRANCH  11  12
ENDBRANCH   8  11
TORSDOF 4
