REMARK  Name = ZINC52094485
REMARK  4 active torsions:
REMARK  status: ('A' for Active; 'I' for Inactive)
REMARK    1  A    between atoms: C_1  and  N_2
REMARK    2  A    between atoms: N_2  and  C_3
REMARK    3  A    between atoms: C_3  and  C_5
REMARK    4  A    between atoms: C_3  and  C_12
REMARK                            x       y       z     vdW  Elec       q    Type
REMARK                         _______ _______ _______ _____ _____    ______ ____
ROOT
ATOM      1  C   UNL     1       0.217  -1.834   0.721  0.00  0.00    -0.041 A 
ATOM      2  C   UNL     1      -0.622  -1.912  -0.374  0.00  0.00    +0.031 A 
ATOM      3  C   UNL     1      -1.077  -3.147  -0.808  0.00  0.00    +0.067 A 
ATOM      4  C   UNL     1      -0.686  -4.308  -0.137  0.00  0.00    +0.068 A 
ATOM      5  C   UNL     1       0.156  -4.220   0.961  0.00  0.00    +0.043 A 
ATOM      6  C   UNL     1       0.610  -2.985   1.383  0.00  0.00    +0.022 A 
ATOM      7 BR   UNL     1       1.765  -2.865   2.875  0.00  0.00    -0.050 Br
ATOM      8  N   UNL     1      -1.293  -5.376  -0.793  0.00  0.00    -0.306 N 
ATOM      9  H   UNL     1      -1.207  -6.312  -0.553  0.00  0.00    +0.170 HD
ATOM     10  C   UNL     1      -2.020  -4.888  -1.816  0.00  0.00    +0.325 A 
ATOM     11  O   UNL     1      -2.677  -5.558  -2.591  0.00  0.00    -0.247 OA
ATOM     12  N   UNL     1      -1.910  -3.547  -1.851  0.00  0.00    -0.306 N 
ATOM     13  H   UNL     1      -2.337  -2.959  -2.493  0.00  0.00    +0.170 HD
ENDROOT
BRANCH   1  14
ATOM     14  C   UNL     1       0.713  -0.491   1.192  0.00  0.00    -0.008 C 
BRANCH  14  15
ATOM     15  C   UNL     1      -0.185   0.018   2.291  0.00  0.00    -0.044 A 
ATOM     16  C   UNL     1      -1.542  -0.245   2.252  0.00  0.00    +0.003 A 
ATOM     17  C   UNL     1      -2.365   0.222   3.260  0.00  0.00    +0.000 A 
ATOM     18  C   UNL     1      -1.832   0.952   4.306  0.00  0.00    +0.001 A 
ATOM     19  C   UNL     1      -0.476   1.215   4.345  0.00  0.00    +0.014 A 
ATOM     20  C   UNL     1       0.349   0.743   3.340  0.00  0.00    +0.015 A 
ATOM     21  I   UNL     1       2.406   1.134   3.403  0.00  0.00    -0.044 I 
ENDBRANCH  14  15
BRANCH  14  23
ATOM     22  C   UNL     1       1.293   1.731   0.499  0.00  0.00    -0.099 C 
ATOM     23  N   UNL     1       0.700   0.458   0.070  0.00  0.00    +0.384 N 
ATOM     24  H   UNL     1      -0.252   0.613  -0.227  0.00  0.00    -0.085 HD
ATOM     25  H   UNL     1       1.234   0.078  -0.697  0.00  0.00    -0.085 HD
ENDBRANCH  14  23
ENDBRANCH   1  14
TORSDOF 3
