REMARK  Name = ZINC06184257
REMARK  6 active torsions:
REMARK  status: ('A' for Active; 'I' for Inactive)
REMARK    1  A    between atoms: C_1  and  C_2
REMARK    2  A    between atoms: C_3  and  C_22
REMARK    3  A    between atoms: C_4  and  C_20
REMARK    4  A    between atoms: C_5  and  N_7
REMARK    5  A    between atoms: C_8  and  C_10
REMARK    6  A    between atoms: C_16  and  C_18
REMARK                            x       y       z     vdW  Elec       q    Type
REMARK                         _______ _______ _______ _____ _____    ______ ____
ROOT
ATOM      1  C   UNL     1       6.322   0.871   6.153  0.00  0.00    +0.052 C 
ATOM      2  C   UNL     1       6.154   1.617   4.854  0.00  0.00    -0.003 A 
ATOM      3  C   UNL     1       7.083   2.327   4.163  0.00  0.00    +0.011 A 
ATOM      4  C   UNL     1       6.675   2.956   2.925  0.00  0.00    +0.088 A 
ATOM      5  C   UNL     1       5.349   2.792   2.543  0.00  0.00    +0.090 A 
ATOM      6  S   UNL     1       4.688   1.783   3.855  0.00  0.00    -0.077 S 
ENDROOT
BRANCH   3   7
ATOM      7  C   UNL     1       8.475   2.449   4.659  0.00  0.00    -0.016 A 
ATOM      8  C   UNL     1       8.737   3.127   5.849  0.00  0.00    +0.008 A 
ATOM      9  C   UNL     1      10.034   3.232   6.308  0.00  0.00    +0.001 A 
ATOM     10  C   UNL     1      11.074   2.676   5.585  0.00  0.00    +0.000 A 
ATOM     11  C   UNL     1      10.821   2.008   4.401  0.00  0.00    +0.001 A 
ATOM     12  C   UNL     1       9.527   1.891   3.934  0.00  0.00    +0.008 A 
ENDBRANCH   3   7
BRANCH   5  13
ATOM     13  N   UNL     1       4.702   3.286   1.419  0.00  0.00    -0.279 N 
ATOM     14  C   UNL     1       3.398   3.012   1.216  0.00  0.00    +0.221 C 
ATOM     15  O   UNL     1       2.790   2.334   2.017  0.00  0.00    -0.275 OA
ATOM     16  H   UNL     1       5.189   3.829   0.778  0.00  0.00    +0.155 HD
BRANCH  14  17
ATOM     17  C   UNL     1       2.696   3.548  -0.005  0.00  0.00    +0.089 C 
ATOM     18  C   UNL     1       2.755   5.077   0.003  0.00  0.00    +0.013 C 
ATOM     19  C   UNL     1       2.067   5.608   1.262  0.00  0.00    +0.001 C 
ATOM     20  C   UNL     1       0.605   5.154   1.273  0.00  0.00    +0.001 C 
ATOM     21  C   UNL     1       0.546   3.625   1.266  0.00  0.00    +0.015 C 
ATOM     22  C   UNL     1       1.235   3.094   0.007  0.00  0.00    +0.114 C 
BRANCH  22  23
ATOM     23  C   UNL     1       1.177   1.588  -0.001  0.00  0.00    +0.360 C 
ATOM     24  O   UNL     1       2.199   0.944  -0.014  0.00  0.00    -0.246 OA
ATOM     25  O   UNL     1      -0.011   0.963   0.007  0.00  0.00    -0.246 OA
ENDBRANCH  22  23
ENDBRANCH  14  17
ENDBRANCH   5  13
BRANCH   4  26
ATOM     26  C   UNL     1       7.594   3.716   2.132  0.00  0.00    +0.102 C 
ATOM     27  N   UNL     1       8.323   4.319   1.503  0.00  0.00    -0.191 NA
ENDBRANCH   4  26
TORSDOF 5
