REMARK  Name = ZINC22733705
REMARK  9 active torsions:
REMARK  status: ('A' for Active; 'I' for Inactive)
REMARK    1  A    between atoms: C_1  and  N_2
REMARK    2  A    between atoms: N_5  and  C_8
REMARK    3  A    between atoms: C_8  and  C_10
REMARK    4  A    between atoms: C_8  and  C_27
REMARK    5  A    between atoms: C_10  and  N_11
REMARK    6  A    between atoms: C_12  and  C_14
REMARK    7  A    between atoms: C_14  and  C_15
REMARK    8  A    between atoms: C_18  and  C_21
REMARK    9  A    between atoms: N_35  and  C_36
REMARK                            x       y       z     vdW  Elec       q    Type
REMARK                         _______ _______ _______ _____ _____    ______ ____
ROOT
ATOM      1  C   UNL     1      -3.350   6.097  -1.096  0.00  0.00    +0.104 C 
ENDROOT
BRANCH   1   2
ATOM      2  C   UNL     1      -2.582   4.932  -0.527  0.00  0.00    -0.028 A 
ATOM      3  C   UNL     1      -2.638   4.662   0.829  0.00  0.00    +0.007 A 
ATOM      4  C   UNL     1      -1.940   3.595   1.354  0.00  0.00    +0.024 A 
ATOM      5  C   UNL     1      -1.172   2.781   0.522  0.00  0.00    +0.033 A 
ATOM      6  C   UNL     1      -1.118   3.065  -0.837  0.00  0.00    -0.025 A 
ATOM      7  C   UNL     1      -1.820   4.131  -1.358  0.00  0.00    +0.010 A 
ATOM      8  C   UNL     1      -0.215   2.039  -1.493  0.00  0.00    +0.056 C 
ATOM      9  C   UNL     1       0.537   1.425  -0.290  0.00  0.00    +0.109 C 
ATOM     10  N   UNL     1      -0.399   1.652   0.832  0.00  0.00    -0.332 N 
ATOM     11  C   UNL     1       0.327   1.837   2.096  0.00  0.00    +0.129 C 
ENDBRANCH   1   2
BRANCH   1  16
ATOM     12  C   UNL     1      -2.105   9.938   2.853  0.00  0.00    -0.096 C 
ATOM     13  N   UNL     1      -2.382   8.734   2.059  0.00  0.00    +0.379 N 
ATOM     14  C   UNL     1      -3.762   8.743   1.553  0.00  0.00    -0.064 C 
ATOM     15  C   UNL     1      -4.035   7.438   0.800  0.00  0.00    +0.066 C 
ATOM     16  N   UNL     1      -3.073   7.302  -0.302  0.00  0.00    -0.297 NA
ATOM     17  C   UNL     1      -1.693   7.293   0.204  0.00  0.00    +0.066 C 
ATOM     18  C   UNL     1      -1.420   8.597   0.957  0.00  0.00    -0.064 C 
ATOM     19  H   UNL     1      -2.268   7.862   2.720  0.00  0.00    -0.082 HD
ENDBRANCH   1  16
BRANCH   1  20
ATOM     20  C   UNL     1      -4.848   5.791  -1.052  0.00  0.00    +0.127 C 
BRANCH  20  21
ATOM     21  N   UNL     1      -5.594   6.918  -1.618  0.00  0.00    -0.313 N 
ATOM     22  C   UNL     1      -6.928   6.828  -1.783  0.00  0.00    +0.217 C 
ATOM     23  O   UNL     1      -7.512   5.814  -1.464  0.00  0.00    -0.275 OA
ATOM     24  H   UNL     1      -5.064   7.838  -1.907  0.00  0.00    +0.149 HD
BRANCH  22  25
ATOM     25  C   UNL     1      -7.695   7.988  -2.364  0.00  0.00    +0.130 C 
BRANCH  25  26
ATOM     26  C   UNL     1      -9.158   7.634  -2.443  0.00  0.00    -0.039 A 
ATOM     27  C   UNL     1      -9.662   7.035  -3.583  0.00  0.00    +0.005 A 
ATOM     28  C   UNL     1     -11.000   6.704  -3.658  0.00  0.00    +0.009 A 
ATOM     29  C   UNL     1     -11.845   6.985  -2.587  0.00  0.00    -0.018 A 
ATOM     30  C   UNL     1     -11.334   7.593  -1.443  0.00  0.00    +0.009 A 
ATOM     31  C   UNL     1      -9.993   7.915  -1.376  0.00  0.00    +0.005 A 
BRANCH  29  32
ATOM     32  C   UNL     1     -13.286   6.637  -2.665  0.00  0.00    -0.018 A 
ATOM     33  C   UNL     1     -14.131   6.913  -1.591  0.00  0.00    +0.008 A 
ATOM     34  C   UNL     1     -15.470   6.591  -1.671  0.00  0.00    +0.001 A 
ATOM     35  C   UNL     1     -15.973   5.987  -2.809  0.00  0.00    +0.000 A 
ATOM     36  C   UNL     1     -15.138   5.707  -3.876  0.00  0.00    +0.001 A 
ATOM     37  C   UNL     1     -13.798   6.028  -3.809  0.00  0.00    +0.008 A 
ENDBRANCH  29  32
ENDBRANCH  25  26
ENDBRANCH  22  25
ENDBRANCH  20  21
ENDBRANCH   1  20
TORSDOF 7
