REMARK  Name = ZINC40841696
REMARK  7 active torsions:
REMARK  status: ('A' for Active; 'I' for Inactive)
REMARK    1  A    between atoms: C_1  and  C_2
REMARK    2  A    between atoms: C_5  and  C_8
REMARK    3  A    between atoms: C_8  and  N_9
REMARK    4  A    between atoms: N_13  and  C_21
REMARK    5  A    between atoms: C_21  and  C_22
REMARK    6  A    between atoms: C_24  and  C_27
REMARK    7  A    between atoms: C_30  and  C_33
REMARK                            x       y       z     vdW  Elec       q    Type
REMARK                         _______ _______ _______ _____ _____    ______ ____
ROOT
ATOM      1  N   UNL     1       1.447  -4.746  -0.032  0.00  0.00    -0.321 N 
ATOM      2  C   UNL     1       1.717  -6.102  -0.041  0.00  0.00    +0.185 A 
ATOM      3  C   UNL     1       3.114  -6.575  -0.045  0.00  0.00    +0.292 A 
ATOM      4  O   UNL     1       4.035  -5.779  -0.040  0.00  0.00    -0.264 OA
ATOM      5  N   UNL     1       3.358  -7.904  -0.053  0.00  0.00    -0.295 N 
ATOM      6  C   UNL     1       2.290  -8.783  -0.058  0.00  0.00    +0.071 A 
ATOM      7  C   UNL     1       2.514 -10.156  -0.067  0.00  0.00    +0.028 A 
ATOM      8  C   UNL     1       1.445 -11.026  -0.071  0.00  0.00    +0.002 A 
ATOM      9  C   UNL     1       0.144 -10.541  -0.067  0.00  0.00    +0.002 A 
ATOM     10  C   UNL     1      -0.098  -9.198  -0.059  0.00  0.00    +0.030 A 
ATOM     11  C   UNL     1       0.973  -8.293  -0.054  0.00  0.00    +0.090 A 
ATOM     12  N   UNL     1       0.733  -6.965  -0.040  0.00  0.00    -0.226 NA
ATOM     13  H   UNL     1       2.176  -4.106  -0.032  0.00  0.00    +0.148 HD
ENDROOT
BRANCH   1  14
ATOM     14  C   UNL     1       0.059  -4.275  -0.021  0.00  0.00    +0.138 C 
BRANCH  14  19
ATOM     15  C   UNL     1      -0.018   1.503   0.010  0.00  0.00    +0.044 C 
ATOM     16  C   UNL     1       0.002  -0.004   0.002  0.00  0.00    -0.050 A 
ATOM     17  C   UNL     1       0.006  -0.689  -1.199  0.00  0.00    +0.003 A 
ATOM     18  C   UNL     1       0.025  -2.071  -1.206  0.00  0.00    +0.005 A 
ATOM     19  C   UNL     1       0.040  -2.768  -0.013  0.00  0.00    -0.030 A 
ATOM     20  C   UNL     1       0.037  -2.084   1.188  0.00  0.00    +0.005 A 
ATOM     21  C   UNL     1       0.023  -0.702   1.195  0.00  0.00    +0.003 A 
ENDBRANCH  14  19
ENDBRANCH   1  14
BRANCH   5  22
ATOM     22  C   UNL     1       4.734  -8.407  -0.058  0.00  0.00    +0.224 C 
BRANCH  22  23
ATOM     23  C   UNL     1       5.208  -8.588   1.361  0.00  0.00    +0.248 A 
ATOM     24  N   UNL     1       5.089  -9.674   2.070  0.00  0.00    -0.190 NA
ATOM     25  C   UNL     1       5.620  -9.487   3.292  0.00  0.00    +0.202 A 
ATOM     26  N   UNL     1       6.084  -8.264   3.363  0.00  0.00    -0.056 NA
ATOM     27  O   UNL     1       5.827  -7.662   2.103  0.00  0.00    -0.336 OA
BRANCH  25  28
ATOM     28  C   UNL     1       5.670 -10.497   4.378  0.00  0.00    +0.022 A 
ATOM     29  C   UNL     1       5.143 -11.771   4.173  0.00  0.00    +0.012 A 
ATOM     30  C   UNL     1       5.193 -12.706   5.187  0.00  0.00    +0.013 A 
ATOM     31  C   UNL     1       5.764 -12.381   6.404  0.00  0.00    +0.055 A 
ATOM     32  C   UNL     1       6.289 -11.119   6.612  0.00  0.00    +0.013 A 
ATOM     33  C   UNL     1       6.250 -10.177   5.604  0.00  0.00    +0.012 A 
BRANCH  31  34
ATOM     34  C   UNL     1       5.814 -13.407   7.507  0.00  0.00    +0.417 C 
ATOM     35  F   UNL     1       7.002 -14.139   7.409  0.00  0.00    -0.166 F 
ATOM     36  F   UNL     1       5.766 -12.761   8.747  0.00  0.00    -0.166 F 
ATOM     37  F   UNL     1       4.722 -14.272   7.389  0.00  0.00    -0.166 F 
ENDBRANCH  31  34
ENDBRANCH  25  28
ENDBRANCH  22  23
ENDBRANCH   5  22
TORSDOF 6
