REMARK  Name = ZINC01060291
REMARK  8 active torsions:
REMARK  status: ('A' for Active; 'I' for Inactive)
REMARK    1  A    between atoms: C_1  and  C_2
REMARK    2  A    between atoms: C_7  and  C_8
REMARK    3  A    between atoms: C_8  and  N_9
REMARK    4  A    between atoms: C_10  and  C_29
REMARK    5  A    between atoms: C_11  and  N_15
REMARK    6  A    between atoms: C_12  and  C_14
REMARK    7  A    between atoms: C_16  and  C_18
REMARK    8  A    between atoms: C_20  and  C_23
REMARK                            x       y       z     vdW  Elec       q    Type
REMARK                         _______ _______ _______ _____ _____    ______ ____
ROOT
ATOM      1  N   UNL     1      -7.061  -6.331  -0.352  0.00  0.00    -0.262 N 
ATOM      2  C   UNL     1      -6.928  -4.985  -0.470  0.00  0.00    +0.058 A 
ATOM      3  C   UNL     1      -5.660  -4.664  -0.107  0.00  0.00    +0.077 A 
ATOM      4  C   UNL     1      -5.003  -5.851   0.251  0.00  0.00    +0.081 A 
ATOM      5  N   UNL     1      -5.840  -6.845   0.104  0.00  0.00    -0.174 NA
ATOM      6  C   UNL     1      -3.576  -5.961   0.723  0.00  0.00    +0.069 C 
ATOM      7  C   UNL     1      -7.995  -4.022  -0.924  0.00  0.00    +0.067 C 
ENDROOT
BRANCH   3   8
ATOM      8  N   UNL     1      -5.105  -3.372  -0.087  0.00  0.00    -0.277 N 
ATOM      9  C   UNL     1      -4.147  -3.063   0.809  0.00  0.00    +0.270 C 
ATOM     10  O   UNL     1      -3.827  -3.871   1.659  0.00  0.00    -0.268 OA
ATOM     11  H   UNL     1      -5.413  -2.702  -0.718  0.00  0.00    +0.155 HD
BRANCH   9  12
ATOM     12  C   UNL     1      -3.482  -1.739   0.757  0.00  0.00    +0.168 A 
ATOM     13  C   UNL     1      -2.457  -1.266   1.618  0.00  0.00    +0.086 A 
ATOM     14  C   UNL     1      -2.197  -0.006   1.156  0.00  0.00    +0.168 A 
ATOM     15  O   UNL     1      -3.018   0.190   0.110  0.00  0.00    -0.354 OA
ATOM     16  N   UNL     1      -3.719  -0.773  -0.097  0.00  0.00    -0.073 NA
BRANCH  14  17
ATOM     17  C   UNL     1      -1.206   0.949   1.696  0.00  0.00    +0.020 A 
ATOM     18  C   UNL     1      -1.051   2.205   1.109  0.00  0.00    +0.011 A 
ATOM     19  C   UNL     1      -0.124   3.091   1.618  0.00  0.00    +0.001 A 
ATOM     20  C   UNL     1       0.650   2.737   2.708  0.00  0.00    +0.000 A 
ATOM     21  C   UNL     1       0.502   1.493   3.295  0.00  0.00    +0.001 A 
ATOM     22  C   UNL     1      -0.421   0.597   2.795  0.00  0.00    +0.011 A 
ENDBRANCH  14  17
ENDBRANCH   9  12
ENDBRANCH   3   8
BRANCH   1  23
ATOM     23  C   UNL     1      -8.268  -7.108  -0.644  0.00  0.00    +0.179 C 
BRANCH  23  30
ATOM     24  C   UNL     1      -7.507  -9.183   1.216  0.00  0.00    +0.044 C 
ATOM     25  C   UNL     1      -8.692  -8.301   1.515  0.00  0.00    -0.046 A 
ATOM     26  C   UNL     1      -9.413  -8.482   2.680  0.00  0.00    +0.004 A 
ATOM     27  C   UNL     1     -10.503  -7.676   2.952  0.00  0.00    +0.000 A 
ATOM     28  C   UNL     1     -10.870  -6.686   2.059  0.00  0.00    +0.000 A 
ATOM     29  C   UNL     1     -10.147  -6.503   0.895  0.00  0.00    +0.006 A 
ATOM     30  C   UNL     1      -9.056  -7.308   0.625  0.00  0.00    -0.023 A 
ENDBRANCH  23  30
ENDBRANCH   1  23
TORSDOF 5
