REMARK  Name = ZINC33077478
REMARK  7 active torsions:
REMARK  status: ('A' for Active; 'I' for Inactive)
REMARK    1  A    between atoms: C_1  and  C_2
REMARK    2  A    between atoms: C_5  and  C_36
REMARK    3  A    between atoms: C_6  and  N_8
REMARK    4  A    between atoms: C_9  and  C_11
REMARK    5  A    between atoms: N_14  and  S_17
REMARK    6  A    between atoms: S_17  and  C_20
REMARK    7  A    between atoms: C_30  and  C_32
REMARK                            x       y       z     vdW  Elec       q    Type
REMARK                         _______ _______ _______ _____ _____    ______ ____
ROOT
ATOM      1  S   UNL     1      -6.403   8.870  -1.461  0.00  0.00    +0.061 S 
ATOM      2  O   UNL     1      -7.577   8.284  -2.007  0.00  0.00    -0.153 OA
ATOM      3  O   UNL     1      -6.437  10.052  -0.673  0.00  0.00    -0.153 OA
ENDROOT
BRANCH   1   4
ATOM      4  C   UNL     1      -5.328   9.200  -2.817  0.00  0.00    +0.106 A 
ATOM      5  C   UNL     1      -4.362  10.183  -2.708  0.00  0.00    +0.030 A 
ATOM      6  C   UNL     1      -3.517  10.439  -3.770  0.00  0.00    +0.026 A 
ATOM      7  C   UNL     1      -3.644   9.716  -4.950  0.00  0.00    +0.040 A 
ATOM      8  C   UNL     1      -4.614   8.732  -5.060  0.00  0.00    -0.024 A 
ATOM      9  C   UNL     1      -5.455   8.479  -3.989  0.00  0.00    +0.034 A 
ATOM     10  C   UNL     1      -4.774   7.921  -6.319  0.00  0.00    +0.038 C 
ATOM     11  C   UNL     1      -4.147   8.649  -7.507  0.00  0.00    +0.024 C 
ATOM     12  C   UNL     1      -2.712   9.052  -7.142  0.00  0.00    +0.114 C 
ATOM     13  N   UNL     1      -2.783   9.997  -6.020  0.00  0.00    -0.271 N 
ATOM     14  C   UNL     1      -2.034  11.118  -6.019  0.00  0.00    +0.223 C 
ATOM     15  O   UNL     1      -2.045  11.854  -5.056  0.00  0.00    -0.275 OA
BRANCH  14  16
ATOM     16  C   UNL     1      -1.182  11.455  -7.216  0.00  0.00    +0.076 C 
ATOM     17  C   UNL     1       0.220  10.825  -7.171  0.00  0.00    +0.013 C 
ATOM     18  C   UNL     1       0.749  12.153  -7.738  0.00  0.00    +0.001 C 
ATOM     19  C   UNL     1      -0.486  12.822  -7.111  0.00  0.00    +0.013 C 
ENDBRANCH  14  16
ENDBRANCH   1   4
BRANCH   1  23
ATOM     20  C   UNL     1      -3.706   5.836   0.253  0.00  0.00    +0.078 C 
ATOM     21  C   UNL     1      -4.587   5.565  -0.968  0.00  0.00    +0.030 C 
ATOM     22  C   UNL     1      -5.931   6.279  -0.792  0.00  0.00    +0.110 C 
ATOM     23  N   UNL     1      -5.679   7.704  -0.534  0.00  0.00    -0.177 NA
ATOM     24  C   UNL     1      -4.773   8.074   0.561  0.00  0.00    +0.110 C 
ATOM     25  C   UNL     1      -3.442   7.339   0.370  0.00  0.00    +0.030 C 
BRANCH  20  27
ATOM     26  N   UNL     1      -2.382   3.765  -0.022  0.00  0.00    -0.285 N 
ATOM     27  C   UNL     1      -2.396   5.107   0.099  0.00  0.00    +0.220 C 
ATOM     28  O   UNL     1      -1.355   5.728   0.085  0.00  0.00    -0.275 OA
ATOM     29  H   UNL     1      -3.329   3.210  -0.103  0.00  0.00    +0.155 HD
BRANCH  26  35
ATOM     30  C   UNL     1       2.384   3.558   1.167  0.00  0.00    +0.044 C 
ATOM     31  C   UNL     1       1.162   2.953   0.523  0.00  0.00    -0.049 A 
ATOM     32  C   UNL     1       1.245   1.717  -0.091  0.00  0.00    +0.004 A 
ATOM     33  C   UNL     1       0.127   1.160  -0.683  0.00  0.00    +0.005 A 
ATOM     34  C   UNL     1      -1.076   1.838  -0.666  0.00  0.00    -0.029 A 
ATOM     35  C   UNL     1      -1.164   3.077  -0.045  0.00  0.00    +0.037 A 
ATOM     36  C   UNL     1      -0.039   3.635   0.548  0.00  0.00    +0.027 A 
ATOM     37  C   UNL     1      -2.293   1.232  -1.316  0.00  0.00    +0.045 C 
ENDBRANCH  26  35
ENDBRANCH  20  27
ENDBRANCH   1  23
TORSDOF 5
