REMARK  Name = ZINC29408110
REMARK  6 active torsions:
REMARK  status: ('A' for Active; 'I' for Inactive)
REMARK    1  A    between atoms: C_3  and  N_17
REMARK    2  A    between atoms: C_6  and  N_7
REMARK    3  A    between atoms: C_8  and  C_10
REMARK    4  A    between atoms: C_10  and  C_11
REMARK    5  A    between atoms: N_17  and  S_18
REMARK    6  A    between atoms: S_18  and  C_21
REMARK                            x       y       z     vdW  Elec       q    Type
REMARK                         _______ _______ _______ _____ _____    ______ ____
ROOT
ATOM      1  C   UNL     1      -0.150   1.917  -0.178  0.00  0.00    +0.025 A 
ATOM      2  C   UNL     1       1.119   2.459  -0.135  0.00  0.00    +0.026 A 
ATOM      3  C   UNL     1       2.223   1.632   0.022  0.00  0.00    +0.048 A 
ATOM      4  C   UNL     1       2.051   0.258   0.136  0.00  0.00    +0.026 A 
ATOM      5  C   UNL     1       0.782  -0.284   0.093  0.00  0.00    +0.025 A 
ATOM      6  C   UNL     1      -0.322   0.544  -0.064  0.00  0.00    +0.033 A 
ENDROOT
BRANCH   6   7
ATOM      7  N   UNL     1      -1.610  -0.007  -0.108  0.00  0.00    -0.285 N 
ATOM      8  C   UNL     1      -2.557   0.555  -0.885  0.00  0.00    +0.217 C 
ATOM      9  O   UNL     1      -2.271   1.478  -1.619  0.00  0.00    -0.275 OA
ATOM     10  H   UNL     1      -1.820  -0.793   0.421  0.00  0.00    +0.155 HD
BRANCH   8  11
ATOM     11  C   UNL     1      -3.972   0.037  -0.843  0.00  0.00    +0.099 C 
BRANCH  11  12
ATOM     12  C   UNL     1      -4.839   0.843  -1.812  0.00  0.00    -0.002 C 
ATOM     13  C   UNL     1      -4.362   0.600  -3.245  0.00  0.00    +0.004 C 
ATOM     14  C   UNL     1      -5.230   1.406  -4.214  0.00  0.00    +0.000 C 
ATOM     15  C   UNL     1      -6.689   0.964  -4.081  0.00  0.00    +0.000 C 
ATOM     16  C   UNL     1      -7.165   1.207  -2.647  0.00  0.00    +0.000 C 
ATOM     17  C   UNL     1      -6.298   0.401  -1.678  0.00  0.00    +0.004 C 
ENDBRANCH  11  12
ENDBRANCH   8  11
ENDBRANCH   6   7
BRANCH   3  18
ATOM     18  N   UNL     1       3.509   2.181   0.066  0.00  0.00    -0.216 N 
ATOM     19  H   UNL     1       3.776   2.842  -0.592  0.00  0.00    +0.174 HD
BRANCH  18  20
ATOM     20  S   UNL     1       4.574   1.703   1.240  0.00  0.00    +0.072 S 
ATOM     21  O   UNL     1       4.575   0.282   1.233  0.00  0.00    -0.150 OA
ATOM     22  O   UNL     1       5.758   2.467   1.049  0.00  0.00    -0.150 OA
BRANCH  20  23
ATOM     23  C   UNL     1       3.899   2.199   2.790  0.00  0.00    +0.112 A 
ATOM     24  C   UNL     1       4.112   3.484   3.255  0.00  0.00    +0.032 A 
ATOM     25  C   UNL     1       3.584   3.881   4.471  0.00  0.00    +0.051 A 
ATOM     26  C   UNL     1       2.841   2.986   5.221  0.00  0.00    +0.162 A 
ATOM     27  C   UNL     1       2.627   1.696   4.754  0.00  0.00    +0.164 A 
ATOM     28  C   UNL     1       3.152   1.304   3.535  0.00  0.00    +0.078 A 
ATOM     29  O   UNL     1       1.892   0.822   5.501  0.00  0.00    -0.488 OA
ATOM     30  C   UNL     1       2.488   0.392   6.726  0.00  0.00    +0.232 C 
ATOM     31  C   UNL     1       2.219   1.395   7.838  0.00  0.00    +0.082 C 
ATOM     32  C   UNL     1       2.877   2.740   7.576  0.00  0.00    +0.232 C 
ATOM     33  O   UNL     1       2.313   3.364   6.421  0.00  0.00    -0.488 OA
ENDBRANCH  20  23
ENDBRANCH  18  20
ENDBRANCH   3  18
TORSDOF 6
