REMARK  Name = ZINC22131239
REMARK  4 active torsions:
REMARK  status: ('A' for Active; 'I' for Inactive)
REMARK    1  A    between atoms: C_1  and  C_2
REMARK    2  A    between atoms: C_12  and  C_14
REMARK    3  A    between atoms: C_17  and  C_19
REMARK    4  A    between atoms: C_19  and  C_21
REMARK                            x       y       z     vdW  Elec       q    Type
REMARK                         _______ _______ _______ _____ _____    ______ ____
ROOT
ATOM      1  C   UNL     1      -0.019   1.526   0.010  0.00  0.00    +0.008 C 
ATOM      2  C   UNL     1       0.002  -0.004   0.002  0.00  0.00    -0.009 C 
ATOM      3  C   UNL     1      -1.433  -0.537   0.019  0.00  0.00    +0.010 C 
ATOM      4  C   UNL     1      -1.438  -2.046  -0.235  0.00  0.00    +0.056 C 
ATOM      5  C   UNL     1      -0.479  -2.709   0.744  0.00  0.00    +0.054 A 
ATOM      6  C   UNL     1       0.472  -1.978   1.381  0.00  0.00    +0.015 A 
ATOM      7  S   UNL     1       1.291  -3.193   2.374  0.00  0.00    -0.057 S 
ATOM      8  C   UNL     1       0.367  -4.521   1.903  0.00  0.00    +0.165 A 
ATOM      9  N   UNL     1      -0.487  -4.003   1.048  0.00  0.00    -0.229 NA
ATOM     10  N   UNL     1       0.480  -5.842   2.317  0.00  0.00    -0.260 N 
ATOM     11  C   UNL     1      -0.358  -6.776   1.826  0.00  0.00    +0.256 C 
ATOM     12  O   UNL     1      -1.212  -6.463   1.019  0.00  0.00    -0.269 OA
ATOM     13  C   UNL     1       0.739  -0.516   1.250  0.00  0.00    +0.047 C 
ATOM     14  H   UNL     1       1.162  -6.092   2.961  0.00  0.00    +0.157 HD
ENDROOT
BRANCH  11  15
ATOM     15  C   UNL     1      -0.238  -8.176   2.265  0.00  0.00    +0.075 A 
ATOM     16  C   UNL     1      -0.990  -9.278   1.879  0.00  0.00    +0.021 A 
ATOM     17  C   UNL     1      -0.697 -10.495   2.423  0.00  0.00    +0.020 A 
ATOM     18  C   UNL     1       0.344 -10.582   3.342  0.00  0.00    +0.055 A 
ATOM     19  S   UNL     1       0.916  -8.893   3.423  0.00  0.00    -0.081 S 
BRANCH  18  20
ATOM     20  C   UNL     1       0.844 -11.757   4.055  0.00  0.00    +0.167 C 
ATOM     21  O   UNL     1       0.332 -12.842   3.872  0.00  0.00    -0.292 OA
ATOM     22  C   UNL     1       1.996 -11.621   5.017  0.00  0.00    +0.092 C 
ENDBRANCH  18  20
ENDBRANCH  11  15
TORSDOF 2
