REMARK  Name = ZINC39505048
REMARK  2 active torsions:
REMARK  status: ('A' for Active; 'I' for Inactive)
REMARK    1  A    between atoms: C_5  and  O_7
REMARK    2  A    between atoms: N_12  and  O_13
REMARK                            x       y       z     vdW  Elec       q    Type
REMARK                         _______ _______ _______ _____ _____    ______ ____
ROOT
ATOM      1  C   UNL     1      -0.019   1.545   0.011  0.00  0.00    +0.033 C 
ATOM      2  C   UNL     1       1.488   1.910  -0.002  0.00  0.00    +0.027 C 
ATOM      3  C   UNL     1       2.138   0.842   0.893  0.00  0.00    +0.051 C 
ATOM      4  C   UNL     1       1.201  -0.372   0.903  0.00  0.00    +0.056 C 
ATOM      5  C   UNL     1       0.002  -0.004   0.002  0.00  0.00    +0.116 C 
ATOM      6  C   UNL     1       3.515   0.450   0.333  0.00  0.00    +0.045 C 
ATOM      7  C   UNL     1       4.492   1.289   1.200  0.00  0.00    +0.099 C 
ATOM      8  C   UNL     1       3.778   1.282   2.575  0.00  0.00    +0.134 C 
ATOM      9  N   UNL     1       2.336   1.360   2.253  0.00  0.00    -0.183 NA
ATOM     10 CL   UNL     1       6.107   0.494   1.306  0.00  0.00    -0.120 Cl
ENDROOT
BRANCH   5  11
ATOM     11  O   UNL     1      -1.212  -0.524   0.548  0.00  0.00    -0.392 OA
ATOM     12  H   UNL     1      -2.004  -0.274   0.054  0.00  0.00    +0.210 HD
ENDBRANCH   5  11
BRANCH   9  13
ATOM     13  O   UNL     1       1.541   0.606   3.223  0.00  0.00    -0.312 OA
ATOM     14  H   UNL     1       1.639   0.911   4.135  0.00  0.00    +0.237 HD
ENDBRANCH   9  13
TORSDOF 2
