REMARK  Name = ZINC09031582
REMARK  8 active torsions:
REMARK  status: ('A' for Active; 'I' for Inactive)
REMARK    1  A    between atoms: C_1  and  C_2
REMARK    2  A    between atoms: C_2  and  C_4
REMARK    3  A    between atoms: C_2  and  S_7
REMARK    4  A    between atoms: S_7  and  C_8
REMARK    5  A    between atoms: C_11  and  C_12
REMARK    6  A    between atoms: N_22  and  C_23
REMARK    7  A    between atoms: C_26  and  O_29
REMARK    8  A    between atoms: O_29  and  C_30
REMARK                            x       y       z     vdW  Elec       q    Type
REMARK                         _______ _______ _______ _____ _____    ______ ____
ROOT
ATOM      1  C   UNL     1       2.003   2.206   1.052  0.00  0.00    +0.169 C 
ATOM      2  N   UNL     1       2.868   1.269   0.762  0.00  0.00    -0.220 NA
ATOM      3  C   UNL     1       3.872   1.802   0.003  0.00  0.00    +0.130 C 
ATOM      4  C   UNL     1       4.958   1.146  -0.502  0.00  0.00    +0.042 C 
ATOM      5  C   UNL     1       3.545   3.232  -0.154  0.00  0.00    +0.275 C 
ATOM      6  O   UNL     1       4.184   4.072  -0.758  0.00  0.00    -0.268 OA
ATOM      7  N   UNL     1       2.385   3.412   0.515  0.00  0.00    -0.214 N 
ENDROOT
BRANCH   4   8
ATOM      8  C   UNL     1       5.064  -0.310  -0.366  0.00  0.00    -0.004 A 
ATOM      9  C   UNL     1       3.933  -1.072  -0.043  0.00  0.00    +0.011 A 
ATOM     10  C   UNL     1       4.041  -2.439   0.082  0.00  0.00    +0.020 A 
ATOM     11  C   UNL     1       5.264  -3.063  -0.110  0.00  0.00    +0.042 A 
ATOM     12  C   UNL     1       6.388  -2.319  -0.429  0.00  0.00    +0.040 A 
ATOM     13  C   UNL     1       6.296  -0.949  -0.564  0.00  0.00    +0.050 A 
ATOM     14 CL   UNL     1       7.704  -0.018  -0.972  0.00  0.00    -0.083 Cl
ATOM     15 CL   UNL     1       5.388  -4.787   0.050  0.00  0.00    -0.083 Cl
ENDBRANCH   4   8
BRANCH   7  16
ATOM     16  C   UNL     1       1.688   4.623   0.641  0.00  0.00    +0.044 A 
ATOM     17  C   UNL     1       0.683   4.943  -0.262  0.00  0.00    +0.027 A 
ATOM     18  C   UNL     1      -0.006   6.133  -0.136  0.00  0.00    +0.048 A 
ATOM     19  C   UNL     1       0.313   7.014   0.888  0.00  0.00    +0.127 A 
ATOM     20  C   UNL     1       1.321   6.697   1.787  0.00  0.00    +0.048 A 
ATOM     21  C   UNL     1       2.007   5.505   1.664  0.00  0.00    +0.027 A 
BRANCH  19  22
ATOM     22  O   UNL     1      -0.362   8.188   1.009  0.00  0.00    -0.434 OA
BRANCH  22  23
ATOM     23  C   UNL     1      -1.387   8.449   0.049  0.00  0.00    +0.541 C 
ATOM     24  F   UNL     1      -0.831   8.466  -1.235  0.00  0.00    -0.166 F 
ATOM     25  F   UNL     1      -2.360   7.447   0.121  0.00  0.00    -0.166 F 
ENDBRANCH  22  23
ENDBRANCH  19  22
ENDBRANCH   7  16
BRANCH   1  26
ATOM     26  S   UNL     1       0.546   1.957   2.011  0.00  0.00    -0.077 S 
BRANCH  26  28
ATOM     27  C   UNL     1       1.933  -0.056   3.232  0.00  0.00    +0.029 C 
ATOM     28  C   UNL     1       0.699   0.187   2.361  0.00  0.00    +0.136 C 
BRANCH  28  29
ATOM     29  C   UNL     1      -0.532  -0.289   3.088  0.00  0.00    +0.224 C 
ATOM     30  O   UNL     1      -1.243   0.508   3.662  0.00  0.00    -0.275 OA
ATOM     31  N   UNL     1      -0.842  -1.601   3.102  0.00  0.00    -0.328 N 
ATOM     32  H   UNL     1      -0.272  -2.238   2.643  0.00  0.00    +0.145 HD
ATOM     33  H   UNL     1      -1.634  -1.907   3.571  0.00  0.00    +0.145 HD
ENDBRANCH  28  29
ENDBRANCH  26  28
ENDBRANCH   1  26
TORSDOF 7
