REMARK  Name = ZINC15067235
REMARK  6 active torsions:
REMARK  status: ('A' for Active; 'I' for Inactive)
REMARK    1  A    between atoms: C_9  and  C_12
REMARK    2  A    between atoms: C_12  and  N_70
REMARK    3  A    between atoms: C_13  and  N_70
REMARK    4  A    between atoms: N_16  and  C_19
REMARK    5  A    between atoms: C_22  and  C_25
REMARK    6  A    between atoms: N_27  and  C_28
REMARK                            x       y       z     vdW  Elec       q    Type
REMARK                         _______ _______ _______ _____ _____    ______ ____
ROOT
ATOM      1  C   UNL     1       8.217  -2.657  -0.933  0.00  0.00    -0.069 C 
ATOM      2  C   UNL     1       7.194  -3.280   0.020  0.00  0.00    +0.003 C 
ATOM      3  C   UNL     1       5.862  -2.539  -0.115  0.00  0.00    +0.103 C 
ATOM      4  N   UNL     1       6.055  -1.119   0.206  0.00  0.00    -0.330 N 
ATOM      5  C   UNL     1       6.999  -0.488  -0.726  0.00  0.00    +0.103 C 
ATOM      6  C   UNL     1       8.365  -1.168  -0.609  0.00  0.00    +0.003 C 
ENDROOT
BRANCH   4   7
ATOM      7  C   UNL     1       4.841  -0.441   0.221  0.00  0.00    +0.030 A 
ATOM      8  C   UNL     1       4.810   0.921   0.506  0.00  0.00    +0.024 A 
ATOM      9  C   UNL     1       3.610   1.595   0.522  0.00  0.00    +0.015 A 
ATOM     10  C   UNL     1       2.422   0.909   0.252  0.00  0.00    +0.037 A 
ATOM     11  C   UNL     1       2.456  -0.460  -0.028  0.00  0.00    +0.015 A 
ATOM     12  C   UNL     1       3.660  -1.127  -0.048  0.00  0.00    +0.024 A 
BRANCH  10  13
ATOM     13  C   UNL     1       1.133   1.628   0.268  0.00  0.00    +0.245 C 
ATOM     14  O   UNL     1       1.104   2.818   0.516  0.00  0.00    -0.270 OA
ATOM     15  N   UNL     1      -0.011   0.966   0.007  0.00  0.00    -0.300 N 
ATOM     16  H   UNL     1       0.012   0.017  -0.191  0.00  0.00    +0.150 HD
BRANCH  15  17
ATOM     17  C   UNL     1      -1.290   1.681   0.017  0.00  0.00    +0.159 C 
ATOM     18  C   UNL     1      -2.353   0.843  -0.697  0.00  0.00    +0.032 C 
ATOM     19  C   UNL     1      -2.128  -0.637  -0.448  0.00  0.00    +0.004 C 
ATOM     20  C   UNL     1      -2.344  -1.056   0.995  0.00  0.00    +0.019 C 
ATOM     21  C   UNL     1      -1.278  -0.442   1.906  0.00  0.00    +0.104 C 
ATOM     22  N   UNL     1      -1.727   0.897   2.319  0.00  0.00    -0.314 N 
ATOM     23  C   UNL     1      -1.733   1.910   1.447  0.00  0.00    +0.233 C 
ATOM     24  O   UNL     1      -2.099   3.013   1.797  0.00  0.00    -0.274 OA
ATOM     25  H   UNL     1      -2.018   1.047   3.232  0.00  0.00    +0.149 HD
ENDBRANCH  15  17
ENDBRANCH  10  13
ENDBRANCH   4   7
BRANCH   1  26
ATOM     26  N   UNL     1       9.517  -3.332  -0.758  0.00  0.00    +0.383 N 
ATOM     27  H   UNL     1      10.023  -2.897   0.022  0.00  0.00    -0.085 HD
ATOM     28  H   UNL     1       9.358  -4.325  -0.552  0.00  0.00    -0.085 HD
BRANCH  26  29
ATOM     29  C   UNL     1      10.325  -3.214  -1.987  0.00  0.00    -0.037 C 
BRANCH  29  38
ATOM     30  C   UNL     1      16.324  -4.301  -0.055  0.00  0.00    +0.000 A 
ATOM     31  C   UNL     1      15.586  -3.686   0.940  0.00  0.00    +0.004 A 
ATOM     32  C   UNL     1      14.264  -3.362   0.716  0.00  0.00    +0.046 A 
ATOM     33  C   UNL     1      13.669  -3.652  -0.509  0.00  0.00    +0.124 A 
ATOM     34  C   UNL     1      14.410  -4.270  -1.501  0.00  0.00    -0.006 A 
ATOM     35  C   UNL     1      15.737  -4.592  -1.271  0.00  0.00    +0.007 A 
ATOM     36  C   UNL     1      13.803  -4.607  -2.839  0.00  0.00    +0.042 C 
ATOM     37  C   UNL     1      12.521  -3.796  -3.043  0.00  0.00    +0.047 C 
ATOM     38  C   UNL     1      11.665  -3.923  -1.776  0.00  0.00    +0.157 C 
ATOM     39  O   UNL     1      12.367  -3.311  -0.694  0.00  0.00    -0.490 OA
ENDBRANCH  29  38
ENDBRANCH  26  29
ENDBRANCH   1  26
TORSDOF 6
