REMARK  Name = ZINC22914632
REMARK  12 active torsions:
REMARK  status: ('A' for Active; 'I' for Inactive)
REMARK    1  A    between atoms: C_1  and  C_2
REMARK    2  A    between atoms: C_2  and  C_3
REMARK    3  A    between atoms: C_2  and  C_4
REMARK    4  A    between atoms: C_7  and  O_10
REMARK    5  A    between atoms: O_10  and  C_11
REMARK    6  A    between atoms: C_11  and  C_12
REMARK    7  A    between atoms: C_12  and  C_14
REMARK    8  A    between atoms: C_12  and  O_38
REMARK    9  A    between atoms: C_14  and  N_15
REMARK   10  A    between atoms: N_18  and  C_21
REMARK   11  A    between atoms: C_21  and  C_22
REMARK   12  A    between atoms: C_22  and  N_23
REMARK                            x       y       z     vdW  Elec       q    Type
REMARK                         _______ _______ _______ _____ _____    ______ ____
ROOT
ATOM      1  N   UNL     1       0.008  -0.011  -2.447  0.00  0.00    -0.303 NA
ATOM      2  C   UNL     1      -1.327  -0.617  -2.548  0.00  0.00    +0.066 C 
ATOM      3  C   UNL     1      -2.063  -0.026  -3.753  0.00  0.00    -0.063 C 
ATOM      4  N   UNL     1      -1.281  -0.276  -4.972  0.00  0.00    +0.382 N 
ATOM      5  C   UNL     1       0.054   0.331  -4.871  0.00  0.00    -0.063 C 
ATOM      6  C   UNL     1       0.790  -0.260  -3.666  0.00  0.00    +0.066 C 
ATOM      7  H   UNL     1      -1.153  -1.363  -5.077  0.00  0.00    -0.082 HD
ENDROOT
BRANCH   1   8
ATOM      8  C   UNL     1       0.718  -0.497  -1.257  0.00  0.00    +0.119 C 
BRANCH   8   9
ATOM      9  C   UNL     1       0.002  -0.004   0.002  0.00  0.00    +0.166 C 
BRANCH   9  10
ATOM     10  O   UNL     1      -0.017   1.425   0.010  0.00  0.00    -0.387 OA
ATOM     11  H   UNL     1      -0.509   1.973  -0.807  0.00  0.00    +0.210 HD
ENDBRANCH   9  10
BRANCH   9  12
ATOM     12  C   UNL     1       0.742  -0.511   1.242  0.00  0.00    +0.261 C 
BRANCH  12  13
ATOM     13  O   UNL     1       0.010  -0.149   2.414  0.00  0.00    -0.489 OA
BRANCH  13  17
ATOM     14  C   UNL     1       1.602  -1.296   6.043  0.00  0.00    -0.045 A 
ATOM     15  C   UNL     1       0.411  -0.594   6.003  0.00  0.00    +0.007 A 
ATOM     16  C   UNL     1      -0.124  -0.209   4.789  0.00  0.00    +0.046 A 
ATOM     17  C   UNL     1       0.535  -0.527   3.610  0.00  0.00    +0.121 A 
ATOM     18  C   UNL     1       1.726  -1.236   3.653  0.00  0.00    +0.046 A 
ATOM     19  C   UNL     1       2.260  -1.613   4.870  0.00  0.00    +0.007 A 
BRANCH  14  21
ATOM     20  C   UNL     1       2.305  -3.239   7.414  0.00  0.00    +0.012 C 
ATOM     21  C   UNL     1       2.184  -1.714   7.369  0.00  0.00    +0.013 C 
ATOM     22  C   UNL     1       3.569  -1.087   7.539  0.00  0.00    +0.012 C 
ENDBRANCH  14  21
ENDBRANCH  13  17
ENDBRANCH  12  13
ENDBRANCH   9  12
ENDBRANCH   8   9
ENDBRANCH   1   8
BRANCH   4  23
ATOM     23  C   UNL     1      -1.992   0.211  -6.162  0.00  0.00    -0.059 C 
BRANCH  23  24
ATOM     24  C   UNL     1      -3.453  -0.239  -6.103  0.00  0.00    +0.098 C 
BRANCH  24  25
ATOM     25  N   UNL     1      -4.161   0.246  -7.290  0.00  0.00    -0.236 N 
ATOM     26  C   UNL     1      -4.762   1.450  -7.239  0.00  0.00    +0.254 C 
ATOM     27  O   UNL     1      -4.709   2.110  -6.219  0.00  0.00    -0.270 OA
ATOM     28  C   UNL     1      -5.479   1.973  -8.412  0.00  0.00    +0.046 A 
ATOM     29  C   UNL     1      -6.109   3.209  -8.405  0.00  0.00    +0.014 A 
ATOM     30  C   UNL     1      -6.778   3.658  -9.537  0.00  0.00    +0.001 A 
ATOM     31  C   UNL     1      -6.838   2.909 -10.677  0.00  0.00    +0.008 A 
ATOM     32  C   UNL     1      -6.213   1.650 -10.726  0.00  0.00    -0.016 A 
ATOM     33  C   UNL     1      -5.530   1.183  -9.583  0.00  0.00    +0.006 A 
ATOM     34  C   UNL     1      -4.893  -0.078  -9.600  0.00  0.00    +0.046 A 
ATOM     35  C   UNL     1      -4.950  -0.846 -10.754  0.00  0.00    +0.014 A 
ATOM     36  C   UNL     1      -5.625  -0.374 -11.874  0.00  0.00    +0.001 A 
ATOM     37  C   UNL     1      -6.246   0.842 -11.875  0.00  0.00    +0.008 A 
ATOM     38  C   UNL     1      -4.192  -0.531  -8.390  0.00  0.00    +0.254 C 
ATOM     39  O   UNL     1      -3.636  -1.613  -8.382  0.00  0.00    -0.270 OA
ENDBRANCH  24  25
ENDBRANCH  23  24
ENDBRANCH   4  23
TORSDOF 10
