REMARK  Name = ZINC24214781
REMARK  8 active torsions:
REMARK  status: ('A' for Active; 'I' for Inactive)
REMARK    1  A    between atoms: C_1  and  C_2
REMARK    2  A    between atoms: C_3  and  C_14
REMARK    3  A    between atoms: C_4  and  C_13
REMARK    4  A    between atoms: N_5  and  C_7
REMARK    5  A    between atoms: N_21  and  C_22
REMARK    6  A    between atoms: C_22  and  C_23
REMARK    7  A    between atoms: N_25  and  C_26
REMARK    8  A    between atoms: C_29  and  C_32
REMARK                            x       y       z     vdW  Elec       q    Type
REMARK                         _______ _______ _______ _____ _____    ______ ____
ROOT
ATOM      1  C   UNL     1       0.334   3.473   1.107  0.00  0.00    +0.054 C 
ATOM      2  C   UNL     1       0.889   4.869   1.065  0.00  0.00    +0.204 C 
ATOM      3  O   UNL     1       1.329   5.351   2.087  0.00  0.00    -0.277 OA
ATOM      4  N   UNL     1       0.918   5.602  -0.053  0.00  0.00    -0.318 N 
ATOM      5  C   UNL     1       0.382   5.129  -1.327  0.00  0.00    +0.085 C 
ATOM      6  C   UNL     1       0.229   3.607  -1.298  0.00  0.00    -0.058 C 
ATOM      7  N   UNL     1      -0.500   3.228  -0.077  0.00  0.00    +0.397 N 
ATOM      8  H   UNL     1       1.371   6.602   0.015  0.00  0.00    +0.149 HD
ATOM      9  H   UNL     1      -1.404   3.851  -0.001  0.00  0.00    -0.079 HD
ENDROOT
BRANCH   1  12
ATOM     10  C   UNL     1      -2.580   4.632   1.564  0.00  0.00    +0.068 C 
ATOM     11  C   UNL     1      -1.788   3.816   2.553  0.00  0.00    +0.063 A 
ATOM     12  C   UNL     1      -0.501   3.305   2.350  0.00  0.00    -0.009 A 
ATOM     13  C   UNL     1      -0.142   2.628   3.466  0.00  0.00    +0.044 A 
ATOM     14  N   UNL     1      -1.163   2.715   4.347  0.00  0.00    -0.237 N 
ATOM     15  N   UNL     1      -2.186   3.463   3.749  0.00  0.00    -0.171 NA
ATOM     16  C   UNL     1       1.164   1.910   3.687  0.00  0.00    +0.066 C 
BRANCH  14  17
ATOM     17  C   UNL     1      -1.196   2.152   5.630  0.00  0.00    +0.066 A 
ATOM     18  C   UNL     1      -2.345   1.519   6.083  0.00  0.00    +0.028 A 
ATOM     19  C   UNL     1      -2.373   0.961   7.346  0.00  0.00    +0.002 A 
ATOM     20  C   UNL     1      -1.260   1.041   8.164  0.00  0.00    +0.000 A 
ATOM     21  C   UNL     1      -0.116   1.675   7.717  0.00  0.00    +0.002 A 
ATOM     22  C   UNL     1      -0.080   2.231   6.453  0.00  0.00    +0.028 A 
ENDBRANCH  14  17
ENDBRANCH   1  12
BRANCH   7  23
ATOM     23  C   UNL     1      -0.932   1.826  -0.136  0.00  0.00    +0.020 C 
BRANCH  23  24
ATOM     24  C   UNL     1      -1.960   1.662  -1.226  0.00  0.00    +0.201 C 
ATOM     25  O   UNL     1      -2.379   2.635  -1.815  0.00  0.00    -0.278 OA
ATOM     26  N   UNL     1      -2.417   0.434  -1.542  0.00  0.00    -0.287 N 
ATOM     27  H   UNL     1      -1.978  -0.456  -1.066  0.00  0.00    +0.155 HD
BRANCH  26  28
ATOM     28  C   UNL     1      -3.448   0.291  -2.476  0.00  0.00    +0.033 A 
ATOM     29  C   UNL     1      -4.461   1.240  -2.542  0.00  0.00    +0.024 A 
ATOM     30  C   UNL     1      -5.476   1.103  -3.465  0.00  0.00    +0.010 A 
ATOM     31  C   UNL     1      -5.491   0.006  -4.325  0.00  0.00    -0.018 A 
ATOM     32  C   UNL     1      -4.477  -0.947  -4.253  0.00  0.00    +0.010 A 
ATOM     33  C   UNL     1      -3.461  -0.804  -3.332  0.00  0.00    +0.024 A 
BRANCH  31  34
ATOM     34  C   UNL     1      -6.586  -0.146  -5.314  0.00  0.00    -0.018 A 
ATOM     35  C   UNL     1      -6.600  -1.240  -6.178  0.00  0.00    +0.008 A 
ATOM     36  C   UNL     1      -7.623  -1.379  -7.094  0.00  0.00    +0.001 A 
ATOM     37  C   UNL     1      -8.628  -0.430  -7.162  0.00  0.00    +0.000 A 
ATOM     38  C   UNL     1      -8.616   0.659  -6.310  0.00  0.00    +0.001 A 
ATOM     39  C   UNL     1      -7.601   0.806  -5.387  0.00  0.00    +0.008 A 
ENDBRANCH  31  34
ENDBRANCH  26  28
ENDBRANCH  23  24
ENDBRANCH   7  23
TORSDOF 6
