REMARK  Name = ZINC19425299
REMARK  6 active torsions:
REMARK  status: ('A' for Active; 'I' for Inactive)
REMARK    1  A    between atoms: C_1  and  C_2
REMARK    2  A    between atoms: C_2  and  C_3
REMARK    3  A    between atoms: C_9  and  O_11
REMARK    4  A    between atoms: O_11  and  C_12
REMARK    5  A    between atoms: C_15  and  C_18
REMARK    6  A    between atoms: N_19  and  O_20
REMARK                            x       y       z     vdW  Elec       q    Type
REMARK                         _______ _______ _______ _____ _____    ______ ____
ROOT
ATOM      1  C   UNL     1       1.257  -0.713  -3.163  0.00  0.00    +0.215 A 
ATOM      2  C   UNL     1       1.429  -2.090  -3.256  0.00  0.00    +0.068 A 
ATOM      3  C   UNL     1       2.557  -2.588  -3.878  0.00  0.00    +0.018 A 
ATOM      4  C   UNL     1       3.490  -1.679  -4.393  0.00  0.00    +0.036 A 
ATOM      5  C   UNL     1       3.247  -0.313  -4.260  0.00  0.00    +0.126 A 
ATOM      6  N   UNL     1       2.155   0.120  -3.664  0.00  0.00    -0.221 NA
ENDROOT
BRANCH   4   7
ATOM      7  C   UNL     1       4.714  -2.162  -5.069  0.00  0.00    +0.164 C 
ATOM      8  N   UNL     1       4.931  -3.439  -5.188  0.00  0.00    -0.071 NA
ATOM      9  N   UNL     1       5.630  -1.254  -5.574  0.00  0.00    -0.340 N 
ATOM     10  H   UNL     1       6.540  -1.613  -6.077  0.00  0.00    +0.144 HD
ATOM     11  H   UNL     1       5.446  -0.174  -5.474  0.00  0.00    +0.144 HD
BRANCH   8  12
ATOM     12  O   UNL     1       6.103  -3.901  -5.835  0.00  0.00    -0.408 OA
ATOM     13  H   UNL     1       6.286  -4.981  -5.936  0.00  0.00    +0.328 HD
ENDBRANCH   8  12
ENDBRANCH   4   7
BRANCH   1  14
ATOM     14  O   UNL     1       0.152  -0.217  -2.553  0.00  0.00    -0.473 OA
BRANCH  14  20
ATOM     15  C   UNL     1      -0.753   1.593  -1.232  0.00  0.00    +0.030 C 
ATOM     16  C   UNL     1      -2.147   0.964  -1.286  0.00  0.00    +0.007 C 
ATOM     17  C   UNL     1      -2.886   1.471  -2.526  0.00  0.00    +0.001 C 
ATOM     18  C   UNL     1      -2.103   1.083  -3.781  0.00  0.00    +0.004 C 
ATOM     19  C   UNL     1      -0.709   1.712  -3.727  0.00  0.00    +0.045 C 
ATOM     20  C   UNL     1       0.031   1.205  -2.487  0.00  0.00    +0.178 C 
BRANCH  15  22
ATOM     21  C   UNL     1      -0.729   1.579   1.267  0.00  0.00    +0.004 C 
ATOM     22  C   UNL     1      -0.013   1.086   0.008  0.00  0.00    +0.004 C 
ENDBRANCH  15  22
ENDBRANCH  14  20
ENDBRANCH   1  14
TORSDOF 5
