REMARK  Name = ZINC32828773
REMARK  10 active torsions:
REMARK  status: ('A' for Active; 'I' for Inactive)
REMARK    1  A    between atoms: C_1  and  C_2
REMARK    2  A    between atoms: C_2  and  C_3
REMARK    3  A    between atoms: C_2  and  C_4
REMARK    4  A    between atoms: C_2  and  C_5
REMARK    5  A    between atoms: N_13  and  C_17
REMARK    6  A    between atoms: C_17  and  C_18
REMARK    7  A    between atoms: C_18  and  O_20
REMARK    8  A    between atoms: O_20  and  C_21
REMARK    9  A    between atoms: C_21  and  C_22
REMARK   10  A    between atoms: C_25  and  C_27
REMARK                            x       y       z     vdW  Elec       q    Type
REMARK                         _______ _______ _______ _____ _____    ______ ____
ROOT
ATOM      1  C   UNL     1       1.282   4.683   0.015  0.00  0.00    -0.005 C 
ATOM      2  C   UNL     1       0.926   3.877  -1.236  0.00  0.00    +0.006 C 
ATOM      3  C   UNL     1       1.741   2.581  -1.255  0.00  0.00    +0.035 C 
ATOM      4  C   UNL     1       1.435   1.768  -0.002  0.00  0.00    +0.113 C 
ATOM      5  C   UNL     1       1.765   2.568   1.254  0.00  0.00    +0.035 C 
ATOM      6  C   UNL     1       0.951   3.864   1.264  0.00  0.00    +0.006 C 
ATOM      7  C   UNL     1      -0.016   1.345   0.009  0.00  0.00    +0.247 C 
ATOM      8  O   UNL     1      -0.991   2.066   0.018  0.00  0.00    -0.273 OA
ATOM      9  N   UNL     1       0.002  -0.004   0.002  0.00  0.00    -0.213 N 
ATOM     10  C   UNL     1       1.253  -0.480  -0.013  0.00  0.00    +0.310 C 
ATOM     11  O   UNL     1       1.526  -1.665  -0.021  0.00  0.00    -0.252 OA
ATOM     12  N   UNL     1       2.176   0.501  -0.016  0.00  0.00    -0.285 N 
ATOM     13  H   UNL     1       3.276   0.507  -0.026  0.00  0.00    +0.151 HD
ENDROOT
BRANCH   1  15
ATOM     14  C   UNL     1      -1.018   5.657   0.041  0.00  0.00    +0.011 C 
ATOM     15  C   UNL     1       0.477   5.984   0.030  0.00  0.00    -0.035 C 
ATOM     16  C   UNL     1       0.833   6.790   1.280  0.00  0.00    +0.011 C 
ATOM     17  C   UNL     1       0.810   6.804  -1.218  0.00  0.00    +0.011 C 
ENDBRANCH   1  15
BRANCH   9  18
ATOM     18  C   UNL     1      -1.198  -0.844   0.009  0.00  0.00    +0.238 C 
BRANCH  18  19
ATOM     19  C   UNL     1      -1.624  -1.124  -1.409  0.00  0.00    +0.326 C 
ATOM     20  O   UNL     1      -0.990  -0.669  -2.331  0.00  0.00    -0.249 OA
BRANCH  19  21
ATOM     21  O   UNL     1      -2.708  -1.879  -1.647  0.00  0.00    -0.457 OA
BRANCH  21  22
ATOM     22  C   UNL     1      -3.059  -2.108  -3.038  0.00  0.00    +0.288 C 
BRANCH  22  23
ATOM     23  C   UNL     1      -4.293  -2.970  -3.109  0.00  0.00    +0.086 A 
ATOM     24  C   UNL     1      -4.889  -3.401  -1.966  0.00  0.00    +0.074 A 
ATOM     25  S   UNL     1      -6.251  -4.345  -2.640  0.00  0.00    -0.075 S 
ATOM     26  C   UNL     1      -5.878  -4.062  -4.365  0.00  0.00    +0.110 A 
ATOM     27  N   UNL     1      -4.797  -3.301  -4.275  0.00  0.00    -0.240 NA
BRANCH  26  28
ATOM     28  C   UNL     1      -6.589  -4.543  -5.570  0.00  0.00    +0.025 A 
ATOM     29  C   UNL     1      -7.727  -5.341  -5.440  0.00  0.00    +0.012 A 
ATOM     30  C   UNL     1      -8.385  -5.786  -6.568  0.00  0.00    +0.001 A 
ATOM     31  C   UNL     1      -7.920  -5.444  -7.825  0.00  0.00    +0.001 A 
ATOM     32  C   UNL     1      -6.793  -4.655  -7.962  0.00  0.00    +0.020 A 
ATOM     33  C   UNL     1      -6.127  -4.197  -6.841  0.00  0.00    +0.051 A 
ATOM     34 CL   UNL     1      -4.717  -3.200  -7.014  0.00  0.00    -0.083 Cl
ENDBRANCH  26  28
ENDBRANCH  22  23
ENDBRANCH  21  22
ENDBRANCH  19  21
ENDBRANCH  18  19
ENDBRANCH   9  18
TORSDOF 7
