REMARK  Name = ZINC15935190
REMARK  12 active torsions:
REMARK  status: ('A' for Active; 'I' for Inactive)
REMARK    1  A    between atoms: C_1  and  C_2
REMARK    2  A    between atoms: C_2  and  O_3
REMARK    3  A    between atoms: O_3  and  C_4
REMARK    4  A    between atoms: C_4  and  C_5
REMARK    5  A    between atoms: C_5  and  C_6
REMARK    6  A    between atoms: C_6  and  N_7
REMARK    7  A    between atoms: N_7  and  C_8
REMARK    8  A    between atoms: N_7  and  C_9
REMARK    9  A    between atoms: C_15  and  C_17
REMARK   10  A    between atoms: C_18  and  N_26
REMARK   11  A    between atoms: C_27  and  C_29
REMARK   12  A    between atoms: C_33  and  N_35
REMARK                            x       y       z     vdW  Elec       q    Type
REMARK                         _______ _______ _______ _____ _____    ______ ____
ROOT
ATOM      1  C   UNL     1      -4.812  -9.298   3.332  0.00  0.00    +0.212 A 
ATOM      2  C   UNL     1      -4.328 -10.577   3.360  0.00  0.00    +0.092 A 
ATOM      3  C   UNL     1      -3.970 -10.840   4.759  0.00  0.00    +0.042 A 
ATOM      4  C   UNL     1      -3.434 -11.938   5.434  0.00  0.00    +0.013 A 
ATOM      5  C   UNL     1      -3.213 -11.863   6.781  0.00  0.00    +0.001 A 
ATOM      6  C   UNL     1      -3.517 -10.704   7.480  0.00  0.00    +0.004 A 
ATOM      7  C   UNL     1      -4.047  -9.609   6.831  0.00  0.00    +0.047 A 
ATOM      8  C   UNL     1      -4.280  -9.663   5.461  0.00  0.00    +0.138 A 
ATOM      9  O   UNL     1      -4.772  -8.772   4.577  0.00  0.00    -0.448 OA
ENDROOT
BRANCH   1  16
ATOM     10  C   UNL     1      -2.945  -5.785   0.293  0.00  0.00    -0.066 C 
ATOM     11  C   UNL     1      -4.452  -5.885   0.051  0.00  0.00    +0.004 C 
ATOM     12  C   UNL     1      -4.873  -7.358   0.074  0.00  0.00    +0.106 C 
ATOM     13  N   UNL     1      -4.423  -7.958   1.337  0.00  0.00    -0.295 N 
ATOM     14  C   UNL     1      -3.007  -7.840   1.712  0.00  0.00    +0.106 C 
ATOM     15  C   UNL     1      -2.608  -6.362   1.670  0.00  0.00    +0.004 C 
ATOM     16  C   UNL     1      -5.294  -8.605   2.138  0.00  0.00    +0.284 C 
ATOM     17  O   UNL     1      -6.481  -8.611   1.868  0.00  0.00    -0.267 OA
BRANCH  10  18
ATOM     18  N   UNL     1      -2.533  -4.376   0.239  0.00  0.00    +0.380 N 
ATOM     19  C   UNL     1      -2.856  -3.822  -1.082  0.00  0.00    -0.096 C 
ATOM     20  H   UNL     1      -3.022  -3.855   0.951  0.00  0.00    -0.082 HD
BRANCH  18  21
ATOM     21  C   UNL     1      -1.085  -4.280   0.470  0.00  0.00    -0.077 C 
BRANCH  21  22
ATOM     22  C   UNL     1      -0.676  -2.807   0.538  0.00  0.00    +0.009 C 
BRANCH  22  23
ATOM     23  C   UNL     1       0.831  -2.707   0.778  0.00  0.00    +0.158 C 
BRANCH  23  24
ATOM     24  O   UNL     1       1.213  -1.331   0.842  0.00  0.00    -0.380 OA
BRANCH  24  26
ATOM     25  C   UNL     1       2.902   0.376   1.114  0.00  0.00    +0.034 C 
ATOM     26  C   UNL     1       2.610  -1.125   1.065  0.00  0.00    +0.156 C 
ENDBRANCH  24  26
ENDBRANCH  23  24
ENDBRANCH  22  23
ENDBRANCH  21  22
ENDBRANCH  18  21
ENDBRANCH  10  18
ENDBRANCH   1  16
BRANCH   2  27
ATOM     27  N   UNL     1      -4.201 -11.448   2.286  0.00  0.00    -0.278 N 
ATOM     28  C   UNL     1      -3.273 -12.425   2.316  0.00  0.00    +0.248 C 
ATOM     29  O   UNL     1      -2.501 -12.501   3.252  0.00  0.00    -0.270 OA
ATOM     30  H   UNL     1      -4.781 -11.354   1.514  0.00  0.00    +0.155 HD
BRANCH  28  31
ATOM     31  C   UNL     1      -3.193 -13.403   1.210  0.00  0.00    +0.039 A 
ATOM     32  C   UNL     1      -4.074 -13.315   0.131  0.00  0.00    +0.013 A 
ATOM     33  C   UNL     1      -3.994 -14.230  -0.897  0.00  0.00    +0.003 A 
ATOM     34  C   UNL     1      -3.044 -15.235  -0.861  0.00  0.00    +0.033 A 
ATOM     35  C   UNL     1      -2.168 -15.329   0.206  0.00  0.00    +0.127 A 
ATOM     36  C   UNL     1      -2.232 -14.415   1.238  0.00  0.00    +0.045 A 
BRANCH  35  37
ATOM     37  N   UNL     1      -1.155 -16.408   0.238  0.00  0.00    +0.056 N 
ATOM     38  O   UNL     1      -1.093 -17.206  -0.668  0.00  0.00    -0.126 OA
ATOM     39  O   UNL     1      -0.389 -16.491   1.169  0.00  0.00    -0.126 OA
ENDBRANCH  35  37
ENDBRANCH  28  31
ENDBRANCH   2  27
TORSDOF 10
