REMARK  Name = ZINC65115808
REMARK  10 active torsions:
REMARK  status: ('A' for Active; 'I' for Inactive)
REMARK    1  A    between atoms: C_1  and  C_2
REMARK    2  A    between atoms: C_5  and  C_29
REMARK    3  A    between atoms: C_6  and  N_8
REMARK    4  A    between atoms: N_8  and  S_9
REMARK    5  A    between atoms: S_9  and  C_12
REMARK    6  A    between atoms: C_14  and  C_19
REMARK    7  A    between atoms: C_17  and  C_18
REMARK    8  A    between atoms: C_20  and  C_28
REMARK    9  A    between atoms: C_23  and  N_24
REMARK   10  A    between atoms: C_25  and  C_27
REMARK                            x       y       z     vdW  Elec       q    Type
REMARK                         _______ _______ _______ _____ _____    ______ ____
ROOT
ATOM      1  C   UNL     1      -2.358  -2.391   3.268  0.00  0.00    +0.112 A 
ATOM      2  C   UNL     1      -3.242  -3.136   4.022  0.00  0.00    +0.037 A 
ATOM      3  C   UNL     1      -4.577  -3.229   3.636  0.00  0.00    -0.009 A 
ATOM      4  C   UNL     1      -5.013  -2.568   2.488  0.00  0.00    +0.009 A 
ATOM      5  C   UNL     1      -4.121  -1.826   1.742  0.00  0.00    +0.006 A 
ATOM      6  C   UNL     1      -2.797  -1.733   2.134  0.00  0.00    -0.024 A 
ATOM      7  C   UNL     1      -1.828  -0.916   1.318  0.00  0.00    +0.046 C 
ENDROOT
BRANCH   3   8
ATOM      8  C   UNL     1      -5.532  -4.028   4.442  0.00  0.00    +0.067 A 
ATOM      9  C   UNL     1      -5.490  -5.426   4.642  0.00  0.00    +0.090 A 
ATOM     10  N   UNL     1      -6.492  -5.757   5.405  0.00  0.00    -0.081 NA
ATOM     11  O   UNL     1      -7.221  -4.588   5.728  0.00  0.00    -0.338 OA
ATOM     12  C   UNL     1      -6.619  -3.542   5.139  0.00  0.00    +0.232 A 
ATOM     13  C   UNL     1      -4.465  -6.370   4.071  0.00  0.00    +0.070 C 
BRANCH  12  14
ATOM     14  N   UNL     1      -7.018  -2.219   5.213  0.00  0.00    -0.254 N 
ATOM     15  C   UNL     1      -8.106  -1.883   5.934  0.00  0.00    +0.216 C 
ATOM     16  O   UNL     1      -8.735  -2.740   6.518  0.00  0.00    -0.276 OA
ATOM     17  C   UNL     1      -8.541  -0.442   6.016  0.00  0.00    +0.109 C 
ATOM     18  H   UNL     1      -6.515  -1.533   4.747  0.00  0.00    +0.158 HD
ENDBRANCH  12  14
ENDBRANCH   3   8
BRANCH   1  19
ATOM     19  S   UNL     1      -0.669  -2.272   3.755  0.00  0.00    +0.073 S 
ATOM     20  O   UNL     1       0.108  -2.557   2.600  0.00  0.00    -0.150 OA
ATOM     21  O   UNL     1      -0.541  -3.013   4.961  0.00  0.00    -0.150 OA
BRANCH  19  22
ATOM     22  N   UNL     1      -0.381  -0.688   4.141  0.00  0.00    -0.216 N 
ATOM     23  H   UNL     1       0.292  -0.185   3.655  0.00  0.00    +0.174 HD
BRANCH  22  29
ATOM     24  C   UNL     1      -2.599  -0.989   8.516  0.00  0.00    +0.044 C 
ATOM     25  C   UNL     1      -2.194  -0.197   7.299  0.00  0.00    -0.049 A 
ATOM     26  C   UNL     1      -2.541   1.138   7.196  0.00  0.00    +0.004 A 
ATOM     27  C   UNL     1      -2.172   1.867   6.081  0.00  0.00    +0.005 A 
ATOM     28  C   UNL     1      -1.456   1.265   5.066  0.00  0.00    -0.028 A 
ATOM     29  C   UNL     1      -1.105  -0.075   5.166  0.00  0.00    +0.051 A 
ATOM     30  C   UNL     1      -1.473  -0.804   6.290  0.00  0.00    +0.028 A 
ATOM     31  C   UNL     1      -1.055   2.061   3.850  0.00  0.00    +0.046 C 
ENDBRANCH  22  29
ENDBRANCH  19  22
ENDBRANCH   1  19
TORSDOF 5
