REMARK  Name = ZINC48343196
REMARK  15 active torsions:
REMARK  status: ('A' for Active; 'I' for Inactive)
REMARK    1  A    between atoms: C_1  and  C_2
REMARK    2  A    between atoms: C_2  and  C_3
REMARK    3  A    between atoms: C_3  and  C_4
REMARK    4  A    between atoms: C_4  and  C_5
REMARK    5  A    between atoms: C_5  and  N_6
REMARK    6  A    between atoms: N_6  and  C_7
REMARK    7  A    between atoms: N_6  and  C_28
REMARK    8  A    between atoms: C_7  and  C_8
REMARK    9  A    between atoms: N_10  and  C_11
REMARK   10  A    between atoms: C_15  and  S_17
REMARK   11  A    between atoms: S_17  and  N_20
REMARK   12  A    between atoms: C_28  and  C_30
REMARK   13  A    between atoms: C_28  and  C_31
REMARK   14  A    between atoms: C_31  and  C_32
REMARK   15  A    between atoms: C_32  and  C_33
REMARK                            x       y       z     vdW  Elec       q    Type
REMARK                         _______ _______ _______ _____ _____    ______ ____
ROOT
ATOM      1  C   UNL     1      -0.132  -8.428  -4.598  0.00  0.00    +0.035 A 
ATOM      2  C   UNL     1      -1.013  -8.516  -3.529  0.00  0.00    +0.023 A 
ATOM      3  C   UNL     1      -1.829  -9.623  -3.397  0.00  0.00    +0.004 A 
ATOM      4  C   UNL     1      -1.768 -10.643  -4.329  0.00  0.00    +0.029 A 
ATOM      5  C   UNL     1      -0.891 -10.558  -5.395  0.00  0.00    +0.114 A 
ATOM      6  C   UNL     1      -0.077  -9.450  -5.535  0.00  0.00    +0.052 A 
ENDROOT
BRANCH   1   9
ATOM      7  C   UNL     1       1.141  -6.662  -3.638  0.00  0.00    +0.201 C 
ATOM      8  O   UNL     1       0.914  -7.112  -2.535  0.00  0.00    -0.278 OA
ATOM      9  N   UNL     1       0.696  -7.307  -4.734  0.00  0.00    -0.287 N 
ATOM     10  H   UNL     1       0.949  -6.996  -5.617  0.00  0.00    +0.155 HD
BRANCH   7  11
ATOM     11  C   UNL     1       1.923  -5.381  -3.783  0.00  0.00    +0.019 C 
BRANCH  11  12
ATOM     12  N   UNL     1       2.425  -4.962  -2.468  0.00  0.00    +0.387 N 
ATOM     13  H   UNL     1       1.652  -4.875  -1.825  0.00  0.00    -0.081 HD
BRANCH  12  14
ATOM     14  C   UNL     1       3.371  -5.966  -1.962  0.00  0.00    -0.071 C 
ATOM     15  C   UNL     1       4.783  -5.624  -2.441  0.00  0.00    -0.013 C 
BRANCH  14  16
ATOM     16  C   UNL     1       3.338  -5.973  -0.433  0.00  0.00    -0.016 C 
BRANCH  16  17
ATOM     17  C   UNL     1       1.968  -6.458   0.046  0.00  0.00    -0.005 C 
ATOM     18  C   UNL     1       1.899  -6.366   1.572  0.00  0.00    +0.004 C 
ENDBRANCH  16  17
ENDBRANCH  14  16
ENDBRANCH  12  14
BRANCH  12  19
ATOM     19  C   UNL     1       3.107  -3.667  -2.594  0.00  0.00    -0.078 C 
BRANCH  19  20
ATOM     20  C   UNL     1       3.484  -3.152  -1.204  0.00  0.00    -0.019 C 
BRANCH  20  21
ATOM     21  C   UNL     1       4.053  -1.737  -1.321  0.00  0.00    -0.002 C 
BRANCH  21  23
ATOM     22  C   UNL     1       5.000   0.194  -0.048  0.00  0.00    +0.004 C 
ATOM     23  C   UNL     1       4.431  -1.222   0.069  0.00  0.00    -0.003 C 
ENDBRANCH  21  23
ENDBRANCH  20  21
ENDBRANCH  19  20
ENDBRANCH  12  19
ENDBRANCH  11  12
ENDBRANCH   7  11
ENDBRANCH   1   9
BRANCH   5  24
ATOM     24  S   UNL     1      -0.816 -11.861  -6.579  0.00  0.00    +0.100 S 
ATOM     25  O   UNL     1       0.471 -11.792  -7.178  0.00  0.00    -0.146 OA
ATOM     26  O   UNL     1      -1.292 -13.030  -5.927  0.00  0.00    -0.146 OA
BRANCH  24  27
ATOM     27  N   UNL     1      -1.911 -11.503  -7.769  0.00  0.00    -0.118 NA
ATOM     28  C   UNL     1      -2.060 -12.305  -8.773  0.00  0.00    +0.117 C 
ATOM     29  C   UNL     1      -3.065 -11.975  -9.874  0.00  0.00    +0.073 C 
ATOM     30  C   UNL     1      -2.272 -11.636 -11.118  0.00  0.00    +0.008 C 
ATOM     31  C   UNL     1      -1.941 -12.855 -11.981  0.00  0.00    +0.002 C 
ATOM     32  C   UNL     1      -1.488 -14.064 -11.162  0.00  0.00    +0.019 C 
ATOM     33  C   UNL     1      -0.528 -13.705 -10.048  0.00  0.00    +0.102 C 
ATOM     34  N   UNL     1      -1.341 -13.408  -8.850  0.00  0.00    -0.331 N 
ATOM     35  H   UNL     1      -1.345 -14.036  -8.111  0.00  0.00    +0.147 HD
ENDBRANCH  24  27
ENDBRANCH   5  24
TORSDOF 12
