REMARK  Name = ZINC05260375
REMARK  8 active torsions:
REMARK  status: ('A' for Active; 'I' for Inactive)
REMARK    1  A    between atoms: C_1  and  C_2
REMARK    2  A    between atoms: C_2  and  C_3
REMARK    3  A    between atoms: C_2  and  C_4
REMARK    4  A    between atoms: C_4  and  C_6
REMARK    5  A    between atoms: C_4  and  S_12
REMARK    6  A    between atoms: S_12  and  C_13
REMARK    7  A    between atoms: C_16  and  S_19
REMARK    8  A    between atoms: S_19  and  N_22
REMARK                            x       y       z     vdW  Elec       q    Type
REMARK                         _______ _______ _______ _____ _____    ______ ____
ROOT
ATOM      1  C   UNL     1      -1.809   2.932   3.919  0.00  0.00    +0.098 A 
ATOM      2  C   UNL     1      -0.429   2.762   3.848  0.00  0.00    +0.037 A 
ATOM      3  C   UNL     1       0.140   2.368   2.651  0.00  0.00    +0.032 A 
ATOM      4  C   UNL     1      -0.694   2.155   1.560  0.00  0.00    +0.124 A 
ATOM      5  C   UNL     1      -2.053   2.348   1.699  0.00  0.00    +0.140 A 
ATOM      6  N   UNL     1      -2.569   2.719   2.856  0.00  0.00    -0.247 NA
ENDROOT
BRANCH   4   7
ATOM      7  S   UNL     1      -0.020   1.652   0.011  0.00  0.00    +0.062 S 
ATOM      8  O   UNL     1       1.336   2.076   0.001  0.00  0.00    -0.153 OA
ATOM      9  O   UNL     1      -0.952   2.051  -0.985  0.00  0.00    -0.153 OA
BRANCH   7  10
ATOM     10  N   UNL     1       0.002  -0.004   0.002  0.00  0.00    -0.177 NA
ATOM     11  C   UNL     1       1.179  -0.684   0.495  0.00  0.00    +0.109 C 
ATOM     12  C   UNL     1       2.184  -0.897  -0.656  0.00  0.00    +0.017 C 
ATOM     13  C   UNL     1       1.684  -1.920  -1.587  0.00  0.00    +0.001 C 
ATOM     14  C   UNL     1       0.379  -1.550  -2.286  0.00  0.00    +0.001 C 
ATOM     15  C   UNL     1      -0.785  -1.921  -1.401  0.00  0.00    +0.017 C 
ATOM     16  C   UNL     1      -1.178  -0.725  -0.515  0.00  0.00    +0.109 C 
ENDBRANCH   7  10
ENDBRANCH   4   7
BRANCH   1  17
ATOM     17  S   UNL     1      -2.550   3.434   5.437  0.00  0.00    -0.093 S 
BRANCH  17  18
ATOM     18  C   UNL     1      -4.321   3.519   5.053  0.00  0.00    +0.141 C 
BRANCH  18  19
ATOM     19  C   UNL     1      -5.093   3.823   6.311  0.00  0.00    +0.234 C 
ATOM     20  O   UNL     1      -4.553   4.401   7.229  0.00  0.00    -0.274 OA
ATOM     21  N   UNL     1      -6.385   3.454   6.414  0.00  0.00    -0.239 N 
ATOM     22  C   UNL     1      -7.076   3.726   7.539  0.00  0.00    +0.303 C 
ATOM     23  O   UNL     1      -6.534   4.304   8.460  0.00  0.00    -0.253 OA
ATOM     24  N   UNL     1      -8.368   3.356   7.642  0.00  0.00    -0.313 N 
ATOM     25  H   UNL     1      -6.818   2.992   5.679  0.00  0.00    +0.159 HD
ATOM     26  H   UNL     1      -8.801   2.894   6.907  0.00  0.00    +0.146 HD
ATOM     27  H   UNL     1      -8.865   3.552   8.451  0.00  0.00    +0.146 HD
ENDBRANCH  18  19
BRANCH  18  29
ATOM     28  C   UNL     1      -6.060   4.697   3.700  0.00  0.00    +0.009 C 
ATOM     29  C   UNL     1      -4.567   4.624   4.024  0.00  0.00    +0.005 C 
ATOM     30  C   UNL     1      -4.103   5.966   4.595  0.00  0.00    +0.009 C 
ENDBRANCH  18  29
ENDBRANCH  17  18
ENDBRANCH   1  17
TORSDOF 6
