REMARK  Name = ZINC12473224
REMARK  11 active torsions:
REMARK  status: ('A' for Active; 'I' for Inactive)
REMARK    1  A    between atoms: C_1  and  C_2
REMARK    2  A    between atoms: C_5  and  N_9
REMARK    3  A    between atoms: C_6  and  C_8
REMARK    4  A    between atoms: N_9  and  C_10
REMARK    5  A    between atoms: C_10  and  C_12
REMARK    6  A    between atoms: C_10  and  C_19
REMARK    7  A    between atoms: N_21  and  C_22
REMARK    8  A    between atoms: C_22  and  C_23
REMARK    9  A    between atoms: C_29  and  C_31
REMARK   10  A    between atoms: C_32  and  N_39
REMARK   11  A    between atoms: C_33  and  C_36
REMARK                            x       y       z     vdW  Elec       q    Type
REMARK                         _______ _______ _______ _____ _____    ______ ____
ROOT
ATOM      1  N   UNL     1      -5.478   0.846   3.480  0.00  0.00    -0.251 N 
ATOM      2  C   UNL     1      -6.661   1.398   3.144  0.00  0.00    +0.262 C 
ATOM      3  O   UNL     1      -6.862   1.756   1.998  0.00  0.00    -0.269 OA
ENDROOT
BRANCH   1   8
ATOM      4  C   UNL     1      -4.540  -0.821   8.820  0.00  0.00    +0.044 C 
ATOM      5  C   UNL     1      -4.790  -0.378   7.401  0.00  0.00    -0.050 A 
ATOM      6  C   UNL     1      -4.558   0.936   7.038  0.00  0.00    +0.005 A 
ATOM      7  C   UNL     1      -4.781   1.344   5.738  0.00  0.00    +0.024 A 
ATOM      8  C   UNL     1      -5.247   0.435   4.796  0.00  0.00    +0.041 A 
ATOM      9  C   UNL     1      -5.478  -0.884   5.164  0.00  0.00    -0.029 A 
ATOM     10  C   UNL     1      -5.249  -1.286   6.466  0.00  0.00    +0.008 A 
ATOM     11  C   UNL     1      -5.979  -1.874   4.145  0.00  0.00    +0.045 C 
ENDBRANCH   1   8
BRANCH   2  12
ATOM     12  C   UNL     1      -7.704   1.566   4.157  0.00  0.00    +0.116 A 
ATOM     13  C   UNL     1      -8.985   2.107   4.027  0.00  0.00    +0.076 A 
ATOM     14  C   UNL     1      -9.694   2.096   5.228  0.00  0.00    +0.155 A 
ATOM     15  N   UNL     1      -9.123   1.608   6.307  0.00  0.00    -0.203 NA
ATOM     16  S   UNL     1      -7.682   1.130   5.883  0.00  0.00    +0.019 S 
BRANCH  14  17
ATOM     17  C   UNL     1     -11.068   2.627   5.287  0.00  0.00    +0.262 C 
ATOM     18  O   UNL     1     -11.589   3.077   4.285  0.00  0.00    -0.269 OA
ATOM     19  N   UNL     1     -11.746   2.614   6.452  0.00  0.00    -0.324 N 
ATOM     20  H   UNL     1     -11.330   2.255   7.251  0.00  0.00    +0.145 HD
ATOM     21  H   UNL     1     -12.650   2.963   6.491  0.00  0.00    +0.145 HD
ENDBRANCH  14  17
BRANCH  13  22
ATOM     22  N   UNL     1      -9.497   2.599   2.833  0.00  0.00    -0.355 N 
ATOM     23  H   UNL     1      -8.956   2.579   2.029  0.00  0.00    +0.142 HD
ATOM     24  H   UNL     1     -10.396   2.963   2.805  0.00  0.00    +0.142 HD
ENDBRANCH  13  22
ENDBRANCH   2  12
BRANCH   1  25
ATOM     25  C   UNL     1      -4.434   0.677   2.466  0.00  0.00    +0.197 C 
BRANCH  25  26
ATOM     26  C   UNL     1      -3.278  -0.088   3.058  0.00  0.00    -0.018 A 
ATOM     27  C   UNL     1      -2.580   0.435   4.130  0.00  0.00    +0.009 A 
ATOM     28  C   UNL     1      -1.523  -0.268   4.676  0.00  0.00    +0.038 A 
ATOM     29  C   UNL     1      -1.157  -1.492   4.143  0.00  0.00    +0.123 A 
ATOM     30  C   UNL     1      -1.854  -2.013   3.066  0.00  0.00    +0.038 A 
ATOM     31  C   UNL     1      -2.914  -1.310   2.524  0.00  0.00    +0.009 A 
ATOM     32  F   UNL     1      -0.121  -2.179   4.673  0.00  0.00    -0.205 F 
ENDBRANCH  25  26
BRANCH  25  33
ATOM     33  C   UNL     1      -3.957   2.031   2.006  0.00  0.00    +0.239 C 
ATOM     34  O   UNL     1      -4.441   3.037   2.478  0.00  0.00    -0.273 OA
ATOM     35  N   UNL     1      -2.992   2.123   1.070  0.00  0.00    -0.311 N 
ATOM     36  H   UNL     1      -2.604   1.318   0.692  0.00  0.00    +0.149 HD
BRANCH  35  37
ATOM     37  C   UNL     1      -2.528   3.439   0.622  0.00  0.00    +0.135 C 
BRANCH  37  38
ATOM     38  C   UNL     1      -1.438   3.262  -0.436  0.00  0.00    +0.135 C 
ATOM     39  C   UNL     1      -0.873   4.636  -0.860  0.00  0.00    +0.035 C 
ATOM     40  C   UNL     1      -0.613   4.484  -2.376  0.00  0.00    +0.031 C 
ATOM     41  C   UNL     1      -1.051   3.036  -2.688  0.00  0.00    +0.160 C 
ATOM     42  O   UNL     1      -1.994   2.703  -1.646  0.00  0.00    -0.375 OA
ENDBRANCH  37  38
ENDBRANCH  35  37
ENDBRANCH  25  33
ENDBRANCH   1  25
TORSDOF 9
