REMARK  Name = ZINC39357300
REMARK  5 active torsions:
REMARK  status: ('A' for Active; 'I' for Inactive)
REMARK    1  A    between atoms: C_1  and  C_2
REMARK    2  A    between atoms: C_8  and  C_29
REMARK    3  A    between atoms: N_16  and  C_17
REMARK    4  A    between atoms: C_17  and  C_18
REMARK    5  A    between atoms: C_18  and  C_19
REMARK                            x       y       z     vdW  Elec       q    Type
REMARK                         _______ _______ _______ _____ _____    ______ ____
ROOT
ATOM      1  C   UNL     1       0.197   1.547  -0.057  0.00  0.00    +0.024 C 
ATOM      2  C   UNL     1       0.159   0.018  -0.050  0.00  0.00    +0.062 C 
ATOM      3  C   UNL     1       0.887  -0.523  -1.288  0.00  0.00    +0.114 C 
ATOM      4  C   UNL     1       0.899  -2.029  -1.193  0.00  0.00    +0.221 C 
ATOM      5  O   UNL     1       0.999  -2.692  -2.204  0.00  0.00    -0.275 OA
ATOM      6  N   UNL     1       0.800  -2.642  -0.006  0.00  0.00    -0.245 N 
ATOM      7  C   UNL     1       0.675  -4.110   0.043  0.00  0.00    +0.206 C 
ATOM      8  N   UNL     1      -0.362  -4.472   1.007  0.00  0.00    -0.339 N 
ATOM      9  C   UNL     1      -0.840  -3.653   1.885  0.00  0.00    +0.158 C 
ATOM     10  N   UNL     1      -0.437  -2.341   1.980  0.00  0.00    -0.288 N 
ATOM     11  C   UNL     1       0.789  -1.934   1.274  0.00  0.00    +0.239 C 
ATOM     12  N   UNL     1       0.843  -0.487   1.145  0.00  0.00    -0.280 NA
ATOM     13  N   UNL     1      -1.793  -4.113   2.763  0.00  0.00    -0.318 N 
ATOM     14  H   UNL     1      -0.948  -1.700   2.500  0.00  0.00    +0.152 HD
ATOM     15  H   UNL     1      -2.093  -5.034   2.714  0.00  0.00    +0.149 HD
ATOM     16  H   UNL     1       1.796  -0.157   1.183  0.00  0.00    +0.125 HD
ATOM     17  H   UNL     1      -0.711  -5.377   0.987  0.00  0.00    +0.164 HD
ENDROOT
BRANCH   7  18
ATOM     18  C   UNL     1       0.299  -4.629  -1.321  0.00  0.00    -0.007 A 
ATOM     19  C   UNL     1       1.194  -5.402  -2.038  0.00  0.00    +0.007 A 
ATOM     20  C   UNL     1       0.849  -5.878  -3.289  0.00  0.00    +0.000 A 
ATOM     21  C   UNL     1      -0.391  -5.582  -3.823  0.00  0.00    +0.000 A 
ATOM     22  C   UNL     1      -1.286  -4.811  -3.106  0.00  0.00    +0.000 A 
ATOM     23  C   UNL     1      -0.943  -4.338  -1.853  0.00  0.00    +0.007 A 
ENDBRANCH   7  18
BRANCH  13  24
ATOM     24  C   UNL     1      -2.357  -3.212   3.771  0.00  0.00    +0.109 C 
BRANCH  24  25
ATOM     25  C   UNL     1      -3.388  -3.967   4.612  0.00  0.00    +0.056 C 
BRANCH  25  26
ATOM     26  C   UNL     1      -3.967  -3.040   5.649  0.00  0.00    -0.021 A 
ATOM     27  C   UNL     1      -3.552  -2.902   6.918  0.00  0.00    +0.087 A 
ATOM     28  N   UNL     1      -4.317  -1.968   7.561  0.00  0.00    -0.360 N 
ATOM     29  H   UNL     1      -4.206  -1.697   8.486  0.00  0.00    +0.165 HD
ATOM     30  C   UNL     1      -5.268  -1.468   6.699  0.00  0.00    +0.047 A 
ATOM     31  C   UNL     1      -5.086  -2.114   5.462  0.00  0.00    +0.003 A 
ATOM     32  C   UNL     1      -5.915  -1.799   4.384  0.00  0.00    +0.010 A 
ATOM     33  C   UNL     1      -6.898  -0.862   4.535  0.00  0.00    +0.001 A 
ATOM     34  C   UNL     1      -7.079  -0.219   5.752  0.00  0.00    +0.002 A 
ATOM     35  C   UNL     1      -6.278  -0.521   6.832  0.00  0.00    +0.026 A 
ENDBRANCH  25  26
ENDBRANCH  24  25
ENDBRANCH  13  24
TORSDOF 4
