REMARK  Name = ZINC12487477
REMARK  1 active torsions:
REMARK  status: ('A' for Active; 'I' for Inactive)
REMARK    1  A    between atoms: N_13  and  N_14
REMARK                            x       y       z     vdW  Elec       q    Type
REMARK                         _______ _______ _______ _____ _____    ______ ____
ROOT
ATOM      1  C   UNL     1      -0.017   1.390   0.010  0.00  0.00    +0.001 A 
ATOM      2  C   UNL     1       1.121   2.151   0.003  0.00  0.00    +0.008 A 
ATOM      3  C   UNL     1       2.370   1.508  -0.012  0.00  0.00    -0.015 A 
ATOM      4  C   UNL     1       3.619   2.153  -0.020  0.00  0.00    +0.008 A 
ATOM      5  C   UNL     1       4.752   1.385  -0.035  0.00  0.00    +0.002 A 
ATOM      6  C   UNL     1       4.728  -0.008  -0.043  0.00  0.00    +0.024 A 
ATOM      7  C   UNL     1       3.518  -0.680  -0.035  0.00  0.00    +0.041 A 
ATOM      8  C   UNL     1       2.373   0.111  -0.020  0.00  0.00    +0.014 A 
ATOM      9  C   UNL     1       1.213  -0.674  -0.014  0.00  0.00    +0.026 A 
ATOM     10  C   UNL     1       0.002  -0.004   0.002  0.00  0.00    +0.012 A 
ATOM     11  C   UNL     1       1.705  -2.059  -0.026  0.00  0.00    +0.149 C 
ATOM     12  N   UNL     1       3.105  -2.004  -0.040  0.00  0.00    -0.297 N 
ATOM     13  N   UNL     1       0.973  -3.141  -0.025  0.00  0.00    -0.163 NA
ATOM     14  H   UNL     1       3.695  -2.774  -0.050  0.00  0.00    +0.154 HD
ENDROOT
BRANCH  13  15
ATOM     15  N   UNL     1       1.585  -4.401  -0.038  0.00  0.00    -0.189 N 
ATOM     16  C   UNL     1       0.830  -5.517  -0.037  0.00  0.00    +0.317 C 
ATOM     17  O   UNL     1       1.361  -6.611  -0.048  0.00  0.00    -0.251 OA
ATOM     18  N   UNL     1      -0.514  -5.421  -0.025  0.00  0.00    -0.312 N 
ATOM     19  H   UNL     1       2.553  -4.470  -0.047  0.00  0.00    +0.179 HD
ATOM     20  H   UNL     1      -0.938  -4.548  -0.016  0.00  0.00    +0.147 HD
ATOM     21  H   UNL     1      -1.058  -6.224  -0.024  0.00  0.00    +0.147 HD
ENDBRANCH  13  15
TORSDOF 1
