REMARK  Name = ZINC66402059
REMARK  9 active torsions:
REMARK  status: ('A' for Active; 'I' for Inactive)
REMARK    1  A    between atoms: C_1  and  C_2
REMARK    2  A    between atoms: C_6  and  C_29
REMARK    3  A    between atoms: C_7  and  O_8
REMARK    4  A    between atoms: O_8  and  C_9
REMARK    5  A    between atoms: C_9  and  C_10
REMARK    6  A    between atoms: C_10  and  C_12
REMARK    7  A    between atoms: C_10  and  N_13
REMARK    8  A    between atoms: N_16  and  C_17
REMARK    9  A    between atoms: C_19  and  C_25
REMARK                            x       y       z     vdW  Elec       q    Type
REMARK                         _______ _______ _______ _____ _____    ______ ____
ROOT
ATOM      1  N   UNL     1      -0.522   0.052   5.252  0.00  0.00    -0.293 N 
ATOM      2  C   UNL     1      -0.669   0.253   6.577  0.00  0.00    +0.304 C 
ATOM      3  O   UNL     1      -1.473   1.070   6.982  0.00  0.00    -0.252 OA
ATOM      4  N   UNL     1       0.077  -0.451   7.451  0.00  0.00    -0.265 N 
ATOM      5  H   UNL     1       0.120  -0.599   4.928  0.00  0.00    +0.151 HD
ATOM      6  H   UNL     1       0.665  -1.153   7.133  0.00  0.00    +0.157 HD
ENDROOT
BRANCH   4   7
ATOM      7  C   UNL     1       0.002  -0.167   8.823  0.00  0.00    +0.100 A 
ATOM      8  C   UNL     1      -0.366  -1.140   9.711  0.00  0.00    +0.042 A 
ATOM      9  C   UNL     1      -0.432  -0.830  11.077  0.00  0.00    +0.073 A 
ATOM     10  C   UNL     1      -0.134   0.418  11.503  0.00  0.00    +0.098 A 
ATOM     11  N   UNL     1       0.232   1.387  10.622  0.00  0.00    -0.327 N 
ATOM     12  H   UNL     1       0.442   2.276  10.946  0.00  0.00    +0.168 HD
ATOM     13  C   UNL     1       0.311   1.124   9.303  0.00  0.00    +0.270 A 
ATOM     14  O   UNL     1       0.646   2.002   8.524  0.00  0.00    -0.266 OA
BRANCH   9  15
ATOM     15  C   UNL     1      -0.835  -1.889  12.071  0.00  0.00    +0.419 C 
ATOM     16  F   UNL     1      -0.828  -1.345  13.360  0.00  0.00    -0.166 F 
ATOM     17  F   UNL     1      -2.121  -2.349  11.766  0.00  0.00    -0.166 F 
ATOM     18  F   UNL     1       0.068  -2.955  12.009  0.00  0.00    -0.166 F 
ENDBRANCH   9  15
ENDBRANCH   4   7
BRANCH   1  19
ATOM     19  C   UNL     1      -1.332   0.817   4.301  0.00  0.00    +0.109 C 
ATOM     20  C   UNL     1      -0.658   2.162   4.023  0.00  0.00    +0.031 C 
BRANCH  19  21
ATOM     21  C   UNL     1      -1.462   0.032   2.994  0.00  0.00    +0.251 C 
BRANCH  21  22
ATOM     22  O   UNL     1      -0.176  -0.091   2.382  0.00  0.00    -0.490 OA
BRANCH  22  29
ATOM     23  C   UNL     1      -0.507   1.402   0.007  0.00  0.00    +0.047 C 
ATOM     24  C   UNL     1      -0.271  -0.087   0.005  0.00  0.00    -0.009 A 
ATOM     25  C   UNL     1      -0.202  -0.775  -1.191  0.00  0.00    +0.007 A 
ATOM     26  C   UNL     1       0.015  -2.140  -1.193  0.00  0.00    +0.001 A 
ATOM     27  C   UNL     1       0.164  -2.821   0.002  0.00  0.00    +0.007 A 
ATOM     28  C   UNL     1       0.097  -2.137   1.200  0.00  0.00    -0.009 A 
ATOM     29  C   UNL     1      -0.116  -0.766   1.205  0.00  0.00    +0.126 A 
ATOM     30  C   UNL     1       0.259  -2.880   2.502  0.00  0.00    +0.047 C 
ENDBRANCH  22  29
ENDBRANCH  21  22
ENDBRANCH  19  21
ENDBRANCH   1  19
TORSDOF 6
