REMARK  Name = ZINC48081283
REMARK  7 active torsions:
REMARK  status: ('A' for Active; 'I' for Inactive)
REMARK    1  A    between atoms: C_3  and  N_24
REMARK    2  A    between atoms: C_6  and  C_7
REMARK    3  A    between atoms: C_7  and  N_8
REMARK    4  A    between atoms: N_11  and  C_12
REMARK    5  A    between atoms: C_15  and  O_18
REMARK    6  A    between atoms: O_18  and  C_19
REMARK    7  A    between atoms: C_19  and  C_20
REMARK                            x       y       z     vdW  Elec       q    Type
REMARK                         _______ _______ _______ _____ _____    ______ ____
ROOT
ATOM      1  N   UNL     1      -1.729  -1.011  -1.368  0.00  0.00    -0.295 N 
ATOM      2  C   UNL     1      -2.867  -1.694  -1.607  0.00  0.00    +0.304 C 
ATOM      3  O   UNL     1      -3.534  -2.107  -0.679  0.00  0.00    -0.252 OA
ATOM      4  N   UNL     1      -3.264  -1.918  -2.876  0.00  0.00    -0.268 N 
ATOM      5  H   UNL     1      -1.197  -0.681  -2.109  0.00  0.00    +0.151 HD
ATOM      6  H   UNL     1      -2.769  -1.530  -3.615  0.00  0.00    +0.156 HD
ENDROOT
BRANCH   4   7
ATOM      7  C   UNL     1      -4.393  -2.710  -3.127  0.00  0.00    +0.053 A 
ATOM      8  C   UNL     1      -5.485  -2.677  -2.262  0.00  0.00    +0.030 A 
ATOM      9  C   UNL     1      -6.577  -3.476  -2.550  0.00  0.00    +0.069 A 
ATOM     10  C   UNL     1      -6.550  -4.278  -3.683  0.00  0.00    +0.215 A 
ATOM     11  N   UNL     1      -5.496  -4.285  -4.482  0.00  0.00    -0.219 NA
ATOM     12  C   UNL     1      -4.439  -3.533  -4.242  0.00  0.00    +0.138 A 
BRANCH  10  13
ATOM     13  O   UNL     1      -7.617  -5.066  -3.974  0.00  0.00    -0.467 OA
BRANCH  13  14
ATOM     14  C   UNL     1      -7.529  -5.868  -5.152  0.00  0.00    +0.343 C 
BRANCH  14  15
ATOM     15  C   UNL     1      -8.815  -6.681  -5.314  0.00  0.00    +0.424 C 
ATOM     16  F   UNL     1      -9.906  -5.811  -5.422  0.00  0.00    -0.167 F 
ATOM     17  F   UNL     1      -8.729  -7.467  -6.468  0.00  0.00    -0.167 F 
ATOM     18  F   UNL     1      -8.988  -7.507  -4.198  0.00  0.00    -0.167 F 
ENDBRANCH  14  15
ENDBRANCH  13  14
ENDBRANCH  10  13
ENDBRANCH   4   7
BRANCH   1  19
ATOM     19  C   UNL     1      -1.298  -0.768   0.010  0.00  0.00    +0.141 C 
BRANCH  19  25
ATOM     20  C   UNL     1      -0.033   1.392   0.011  0.00  0.00    +0.007 A 
ATOM     21  C   UNL     1       1.151   2.106   0.004  0.00  0.00    +0.033 A 
ATOM     22  C   UNL     1       2.361   1.437  -0.012  0.00  0.00    +0.126 A 
ATOM     23  C   UNL     1       2.387   0.055  -0.021  0.00  0.00    +0.033 A 
ATOM     24  C   UNL     1       1.203  -0.658  -0.012  0.00  0.00    +0.007 A 
ATOM     25  C   UNL     1      -0.007   0.010   0.003  0.00  0.00    -0.030 A 
BRANCH  22  26
ATOM     26  N   UNL     1       3.629   2.201  -0.021  0.00  0.00    +0.056 N 
ATOM     27  O   UNL     1       3.606   3.410  -0.014  0.00  0.00    -0.126 OA
ATOM     28  O   UNL     1       4.687   1.617  -0.035  0.00  0.00    -0.126 OA
ENDBRANCH  22  26
ENDBRANCH  19  25
ENDBRANCH   1  19
TORSDOF 7
