REMARK  Name = ZINC45555183
REMARK  7 active torsions:
REMARK  status: ('A' for Active; 'I' for Inactive)
REMARK    1  A    between atoms: C_1  and  C_2
REMARK    2  A    between atoms: C_7  and  S_28
REMARK    3  A    between atoms: C_12  and  C_14
REMARK    4  A    between atoms: C_14  and  O_15
REMARK    5  A    between atoms: O_15  and  C_16
REMARK    6  A    between atoms: C_16  and  C_18
REMARK    7  A    between atoms: S_28  and  N_31
REMARK                            x       y       z     vdW  Elec       q    Type
REMARK                         _______ _______ _______ _____ _____    ______ ____
ROOT
ATOM      1  C   UNL     1      -0.019   1.526   0.010  0.00  0.00    +0.029 C 
ATOM      2  C   UNL     1       0.002  -0.004   0.002  0.00  0.00    +0.083 C 
ATOM      3  C   UNL     1       0.748  -0.520  -1.239  0.00  0.00    +0.059 C 
ATOM      4  C   UNL     1       1.916  -1.304  -0.683  0.00  0.00    -0.022 A 
ATOM      5  C   UNL     1       2.929  -1.995  -1.320  0.00  0.00    +0.034 A 
ATOM      6  C   UNL     1       3.899  -2.643  -0.580  0.00  0.00    +0.105 A 
ATOM      7  C   UNL     1       3.854  -2.599   0.802  0.00  0.00    +0.030 A 
ATOM      8  C   UNL     1       2.846  -1.911   1.442  0.00  0.00    +0.026 A 
ATOM      9  C   UNL     1       1.862  -1.253   0.700  0.00  0.00    +0.040 A 
ATOM     10  N   UNL     1       0.764  -0.508   1.148  0.00  0.00    -0.265 N 
ATOM     11  C   UNL     1       0.453  -0.286   2.440  0.00  0.00    +0.258 C 
ATOM     12  O   UNL     1      -0.523   0.376   2.724  0.00  0.00    -0.272 OA
ENDROOT
BRANCH   6  13
ATOM     13  S   UNL     1       5.190  -3.524  -1.394  0.00  0.00    +0.056 S 
ATOM     14  O   UNL     1       5.661  -4.498  -0.472  0.00  0.00    -0.153 OA
ATOM     15  O   UNL     1       4.697  -3.869  -2.681  0.00  0.00    -0.153 OA
BRANCH  13  16
ATOM     16  N   UNL     1       6.434  -2.458  -1.634  0.00  0.00    -0.204 NA
ATOM     17  H   UNL     1       6.350  -1.539  -1.335  0.00  0.00    +0.144 HD
ATOM     18  H   UNL     1       7.248  -2.753  -2.073  0.00  0.00    +0.144 HD
ENDBRANCH  13  16
ENDBRANCH   6  13
BRANCH  11  19
ATOM     19  C   UNL     1       1.317  -0.861   3.533  0.00  0.00    +0.328 C 
BRANCH  19  20
ATOM     20  O   UNL     1       0.786  -0.489   4.806  0.00  0.00    -0.455 OA
BRANCH  20  21
ATOM     21  C   UNL     1       1.444  -0.924   5.892  0.00  0.00    +0.311 C 
ATOM     22  O   UNL     1       2.439  -1.598   5.765  0.00  0.00    -0.251 OA
BRANCH  21  23
ATOM     23  C   UNL     1       0.943  -0.572   7.269  0.00  0.00    +0.104 C 
ATOM     24  C   UNL     1       0.926   0.949   7.432  0.00  0.00    +0.004 C 
ATOM     25  C   UNL     1       2.342   1.497   7.249  0.00  0.00    +0.008 C 
ATOM     26  C   UNL     1       3.267   0.882   8.302  0.00  0.00    -0.010 C 
ATOM     27  C   UNL     1       2.758   1.239   9.699  0.00  0.00    +0.007 C 
ATOM     28  C   UNL     1       1.341   0.691   9.882  0.00  0.00    -0.010 C 
ATOM     29  C   UNL     1       0.416   1.306   8.829  0.00  0.00    +0.008 C 
ATOM     30  C   UNL     1       1.358  -0.830   9.719  0.00  0.00    +0.008 C 
ATOM     31  C   UNL     1       1.867  -1.188   8.321  0.00  0.00    +0.004 C 
ATOM     32  C   UNL     1       3.284  -0.639   8.139  0.00  0.00    +0.008 C 
ENDBRANCH  21  23
ENDBRANCH  20  21
ENDBRANCH  19  20
ENDBRANCH  11  19
TORSDOF 6
