REMARK  Name = ZINC21981131
REMARK  12 active torsions:
REMARK  status: ('A' for Active; 'I' for Inactive)
REMARK    1  A    between atoms: C_1  and  C_2
REMARK    2  A    between atoms: C_3  and  C_34
REMARK    3  A    between atoms: C_11  and  C_13
REMARK    4  A    between atoms: C_13  and  C_15
REMARK    5  A    between atoms: C_13  and  S_16
REMARK    6  A    between atoms: S_16  and  C_17
REMARK    7  A    between atoms: C_20  and  C_27
REMARK    8  A    between atoms: N_21  and  C_22
REMARK    9  A    between atoms: C_22  and  C_23
REMARK   10  A    between atoms: C_23  and  C_24
REMARK   11  A    between atoms: C_24  and  O_25
REMARK   12  A    between atoms: O_25  and  C_26
REMARK                            x       y       z     vdW  Elec       q    Type
REMARK                         _______ _______ _______ _____ _____    ______ ____
ROOT
ATOM      1  C   UNL     1      -0.888  -5.837   5.639  0.00  0.00    +0.193 A 
ATOM      2  N   UNL     1      -0.287  -5.514   6.763  0.00  0.00    -0.122 NA
ATOM      3  N   UNL     1      -0.477  -6.431   7.644  0.00  0.00    -0.128 NA
ATOM      4  C   UNL     1      -1.210  -7.395   7.137  0.00  0.00    +0.166 A 
ATOM      5  N   UNL     1      -1.501  -7.041   5.839  0.00  0.00    -0.302 N 
ENDROOT
BRANCH   4   6
ATOM      6  C   UNL     1      -1.647  -8.625   7.831  0.00  0.00    +0.038 A 
ATOM      7  C   UNL     1      -2.982  -9.025   7.775  0.00  0.00    +0.013 A 
ATOM      8  C   UNL     1      -3.383 -10.174   8.425  0.00  0.00    +0.001 A 
ATOM      9  C   UNL     1      -2.464 -10.930   9.132  0.00  0.00    +0.001 A 
ATOM     10  C   UNL     1      -1.139 -10.539   9.192  0.00  0.00    +0.021 A 
ATOM     11  C   UNL     1      -0.723  -9.394   8.542  0.00  0.00    +0.052 A 
ATOM     12 CL   UNL     1       0.942  -8.908   8.613  0.00  0.00    -0.083 Cl
ENDBRANCH   4   6
BRANCH   1  13
ATOM     13  S   UNL     1      -0.907  -4.889   4.154  0.00  0.00    -0.075 S 
BRANCH  13  14
ATOM     14  C   UNL     1       0.083  -3.423   4.557  0.00  0.00    +0.117 C 
ATOM     15  C   UNL     1       1.529  -3.842   4.827  0.00  0.00    +0.027 C 
BRANCH  14  26
ATOM     16  C   UNL     1      -0.061   1.557   0.071  0.00  0.00    +0.045 C 
ATOM     17  C   UNL     1      -0.058   0.050   0.048  0.00  0.00    -0.026 A 
ATOM     18  C   UNL     1      -0.085  -0.611  -1.121  0.00  0.00    -0.008 A 
ATOM     19  S   UNL     1      -0.068  -2.324  -0.625  0.00  0.00    -0.073 S 
ATOM     20  C   UNL     1      -0.025  -2.101   1.134  0.00  0.00    +0.116 A 
ATOM     21  C   UNL     1      -0.019  -0.703   1.287  0.00  0.00    +0.075 A 
ATOM     22  C   UNL     1       0.019  -0.228   2.639  0.00  0.00    +0.260 A 
ATOM     23  O   UNL     1       0.022   0.968   2.875  0.00  0.00    -0.267 OA
ATOM     24  N   UNL     1       0.051  -1.123   3.643  0.00  0.00    -0.309 N 
ATOM     25  H   UNL     1       0.076  -0.808   4.560  0.00  0.00    +0.170 HD
ATOM     26  C   UNL     1       0.047  -2.459   3.399  0.00  0.00    +0.124 A 
ATOM     27  N   UNL     1       0.003  -2.923   2.179  0.00  0.00    -0.225 NA
ATOM     28  C   UNL     1      -0.122  -0.043  -2.515  0.00  0.00    +0.052 C 
ENDBRANCH  14  26
ENDBRANCH  13  14
ENDBRANCH   1  13
BRANCH   5  29
ATOM     29  C   UNL     1      -2.298  -7.800   4.873  0.00  0.00    +0.128 C 
BRANCH  29  30
ATOM     30  C   UNL     1      -1.409  -8.833   4.177  0.00  0.00    +0.050 C 
BRANCH  30  31
ATOM     31  C   UNL     1      -2.242  -9.626   3.168  0.00  0.00    +0.161 C 
BRANCH  31  32
ATOM     32  O   UNL     1      -1.412 -10.591   2.518  0.00  0.00    -0.383 OA
ATOM     33  C   UNL     1      -2.096 -11.389   1.550  0.00  0.00    +0.193 C 
ENDBRANCH  31  32
ENDBRANCH  30  31
ENDBRANCH  29  30
ENDBRANCH   5  29
TORSDOF 8
