REMARK  Name = ZINC38776689
REMARK  7 active torsions:
REMARK  status: ('A' for Active; 'I' for Inactive)
REMARK    1  A    between atoms: C_1  and  S_2
REMARK    2  A    between atoms: S_2  and  C_3
REMARK    3  A    between atoms: C_3  and  C_4
REMARK    4  A    between atoms: C_4  and  C_5
REMARK    5  A    between atoms: C_5  and  C_7
REMARK    6  A    between atoms: C_5  and  N_24
REMARK    7  A    between atoms: C_25  and  C_27
REMARK                            x       y       z     vdW  Elec       q    Type
REMARK                         _______ _______ _______ _____ _____    ______ ____
ROOT
ATOM      1  C   UNL     1       1.623  -3.815   3.115  0.00  0.00    +0.236 C 
ATOM      2  O   UNL     1       2.616  -4.502   3.235  0.00  0.00    -0.274 OA
ATOM      3  N   UNL     1       0.401  -4.382   3.167  0.00  0.00    -0.300 N 
ATOM      4  C   UNL     1      -0.805  -3.583   2.909  0.00  0.00    +0.106 C 
ATOM      5  C   UNL     1      -1.624  -4.269   1.811  0.00  0.00    +0.009 C 
ATOM      6  C   UNL     1      -1.901  -5.718   2.216  0.00  0.00    -0.037 C 
ATOM      7  C   UNL     1      -0.581  -6.472   2.379  0.00  0.00    +0.009 C 
ATOM      8  C   UNL     1       0.251  -5.810   3.476  0.00  0.00    +0.106 C 
ATOM      9  C   UNL     1      -2.754  -6.397   1.143  0.00  0.00    +0.140 C 
ATOM     10  C   UNL     1      -4.090  -5.660   1.152  0.00  0.00    +0.042 C 
ATOM     11  N   UNL     1      -4.274  -5.247  -0.041  0.00  0.00    -0.243 NA
ATOM     12  C   UNL     1      -3.209  -5.518  -0.835  0.00  0.00    +0.216 C 
ATOM     13  N   UNL     1      -2.252  -6.175  -0.213  0.00  0.00    -0.264 NA
ATOM     14  C   UNL     1      -4.855  -5.434   2.431  0.00  0.00    +0.034 C 
ATOM     15  C   UNL     1      -3.833  -4.887   3.445  0.00  0.00    -0.076 C 
ATOM     16  N   UNL     1      -2.644  -5.742   3.484  0.00  0.00    +0.385 N 
ATOM     17  H   UNL     1      -2.929  -6.691   3.679  0.00  0.00    -0.085 HD
ATOM     18  H   UNL     1      -2.037  -5.426   4.226  0.00  0.00    -0.085 HD
ENDROOT
BRANCH   1  19
ATOM     19  C   UNL     1       1.757  -2.329   2.909  0.00  0.00    +0.160 C 
BRANCH  19  20
ATOM     20  N   UNL     1       3.017  -1.865   3.495  0.00  0.00    -0.300 N 
ATOM     21  C   UNL     1       3.144  -0.583   3.891  0.00  0.00    +0.245 C 
ATOM     22  O   UNL     1       2.214   0.189   3.761  0.00  0.00    -0.270 OA
ATOM     23  H   UNL     1       3.759  -2.481   3.599  0.00  0.00    +0.150 HD
BRANCH  21  24
ATOM     24  C   UNL     1       4.415  -0.116   4.483  0.00  0.00    +0.037 A 
ATOM     25  C   UNL     1       5.487  -0.999   4.628  0.00  0.00    +0.016 A 
ATOM     26  C   UNL     1       6.670  -0.558   5.181  0.00  0.00    +0.039 A 
ATOM     27  C   UNL     1       6.796   0.760   5.593  0.00  0.00    +0.123 A 
ATOM     28  C   UNL     1       5.735   1.641   5.450  0.00  0.00    +0.039 A 
ATOM     29  C   UNL     1       4.550   1.212   4.893  0.00  0.00    +0.016 A 
ATOM     30  F   UNL     1       7.958   1.188   6.135  0.00  0.00    -0.205 F 
ENDBRANCH  21  24
ENDBRANCH  19  20
BRANCH  19  31
ATOM     31  C   UNL     1       1.748  -2.019   1.410  0.00  0.00    +0.042 C 
BRANCH  31  32
ATOM     32  C   UNL     1       1.739  -0.503   1.203  0.00  0.00    +0.071 C 
BRANCH  32  34
ATOM     33  C   UNL     1       1.718   1.676  -0.647  0.00  0.00    +0.084 C 
ATOM     34  S   UNL     1       1.728  -0.136  -0.574  0.00  0.00    -0.164 S 
ENDBRANCH  32  34
ENDBRANCH  31  32
ENDBRANCH  19  31
ENDBRANCH   1  19
TORSDOF 6
