REMARK  Name = ZINC01973551
REMARK  14 active torsions:
REMARK  status: ('A' for Active; 'I' for Inactive)
REMARK    1  A    between atoms: C_1  and  C_2
REMARK    2  A    between atoms: C_2  and  C_3
REMARK    3  A    between atoms: C_3  and  C_5
REMARK    4  A    between atoms: C_3  and  N_6
REMARK    5  A    between atoms: C_12  and  C_17
REMARK    6  A    between atoms: C_17  and  O_19
REMARK    7  A    between atoms: O_19  and  C_20
REMARK    8  A    between atoms: C_20  and  C_21
REMARK    9  A    between atoms: N_23  and  C_24
REMARK   10  A    between atoms: C_25  and  C_35
REMARK   11  A    between atoms: C_30  and  C_34
REMARK   12  A    between atoms: C_35  and  O_37
REMARK   13  A    between atoms: O_37  and  C_38
REMARK   14  A    between atoms: C_38  and  C_39
REMARK                            x       y       z     vdW  Elec       q    Type
REMARK                         _______ _______ _______ _____ _____    ______ ____
ROOT
ATOM      1  C   UNL     1       1.206   4.142  -4.925  0.00  0.00    +0.328 C 
ENDROOT
BRANCH   1   2
ATOM      2  C   UNL     1       1.240   4.657  -3.509  0.00  0.00    +0.255 C 
ATOM      3  O   UNL     1       1.288   5.851  -3.300  0.00  0.00    -0.272 OA
ATOM      4  N   UNL     1       1.217   3.792  -2.476  0.00  0.00    -0.277 N 
ATOM      5  H   UNL     1       1.179   2.837  -2.644  0.00  0.00    +0.155 HD
BRANCH   4   6
ATOM      6  C   UNL     1       1.249   4.266  -1.174  0.00  0.00    +0.086 A 
ATOM      7  C   UNL     1       1.232   3.540   0.009  0.00  0.00    +0.091 A 
ATOM      8  C   UNL     1       1.268   4.287   1.256  0.00  0.00    -0.021 A 
ATOM      9  C   UNL     1       1.324   5.629   1.120  0.00  0.00    -0.004 A 
ATOM     10  S   UNL     1       1.317   5.909  -0.628  0.00  0.00    -0.077 S 
ATOM     11  C   UNL     1       1.375   6.646   2.218  0.00  0.00    +0.046 C 
ATOM     12  C   UNL     1       1.724   5.929   3.528  0.00  0.00    -0.009 C 
ATOM     13  C   UNL     1       0.839   4.687   3.667  0.00  0.00    +0.008 C 
ATOM     14  C   UNL     1       1.249   3.637   2.634  0.00  0.00    +0.037 C 
ATOM     15  C   UNL     1       1.479   6.869   4.711  0.00  0.00    +0.008 C 
BRANCH   7  16
ATOM     16  C   UNL     1       1.176   2.076   0.002  0.00  0.00    +0.342 C 
ATOM     17  O   UNL     1       2.205   1.428  -0.011  0.00  0.00    -0.245 OA
BRANCH  16  18
ATOM     18  O   UNL     1      -0.018   1.448   0.010  0.00  0.00    -0.461 OA
BRANCH  18  19
ATOM     19  C   UNL     1       0.002  -0.004   0.002  0.00  0.00    +0.229 C 
ATOM     20  C   UNL     1      -1.433  -0.534   0.013  0.00  0.00    +0.048 C 
ENDBRANCH  18  19
ENDBRANCH  16  18
ENDBRANCH   7  16
ENDBRANCH   4   6
ENDBRANCH   1   2
BRANCH   1  21
ATOM     21  O   UNL     1       1.240   5.261  -5.849  0.00  0.00    -0.452 OA
BRANCH  21  22
ATOM     22  C   UNL     1       1.216   4.970  -7.164  0.00  0.00    +0.340 C 
ATOM     23  O   UNL     1       1.168   3.813  -7.529  0.00  0.00    -0.245 OA
BRANCH  22  30
ATOM     24  N   UNL     1       1.288   8.120 -12.321  0.00  0.00    -0.231 N 
ATOM     25  C   UNL     1       1.329   8.943 -11.258  0.00  0.00    +0.254 C 
ATOM     26  O   UNL     1       1.375  10.155 -11.301  0.00  0.00    -0.270 OA
ATOM     27  C   UNL     1       1.309   8.122 -10.025  0.00  0.00    +0.049 A 
ATOM     28  C   UNL     1       1.333   8.415  -8.671  0.00  0.00    +0.014 A 
ATOM     29  C   UNL     1       1.303   7.389  -7.742  0.00  0.00    +0.016 A 
ATOM     30  C   UNL     1       1.248   6.060  -8.163  0.00  0.00    +0.060 A 
ATOM     31  C   UNL     1       1.228   5.756  -9.528  0.00  0.00    +0.028 A 
ATOM     32  C   UNL     1       1.254   6.781 -10.457  0.00  0.00    +0.050 A 
ATOM     33  C   UNL     1       1.242   6.832 -11.935  0.00  0.00    +0.254 C 
ATOM     34  O   UNL     1       1.198   5.871 -12.676  0.00  0.00    -0.270 OA
BRANCH  24  35
ATOM     35  C   UNL     1       1.293   8.567 -13.716  0.00  0.00    +0.081 C 
ATOM     36  C   UNL     1       0.074   9.457 -13.970  0.00  0.00    +0.028 C 
BRANCH  35  38
ATOM     37  C   UNL     1       3.784   8.438 -13.859  0.00  0.00    +0.006 C 
ATOM     38  C   UNL     1       2.571   9.361 -13.992  0.00  0.00    +0.019 C 
ENDBRANCH  35  38
ENDBRANCH  24  35
ENDBRANCH  22  30
ENDBRANCH  21  22
ENDBRANCH   1  21
TORSDOF 10
