REMARK  Name = ZINC38547305
REMARK  5 active torsions:
REMARK  status: ('A' for Active; 'I' for Inactive)
REMARK    1  A    between atoms: N_7  and  C_8
REMARK    2  A    between atoms: C_8  and  C_10
REMARK    3  A    between atoms: C_8  and  C_17
REMARK    4  A    between atoms: C_21  and  N_22
REMARK    5  A    between atoms: C_23  and  C_25
REMARK                            x       y       z     vdW  Elec       q    Type
REMARK                         _______ _______ _______ _____ _____    ______ ____
ROOT
ATOM      1  C   UNL     1      -0.183  -3.943   0.645  0.00  0.00    +0.009 A 
ATOM      2  C   UNL     1      -0.912  -4.064   1.829  0.00  0.00    -0.030 A 
ATOM      3  C   UNL     1      -0.589  -5.108   2.639  0.00  0.00    -0.005 A 
ATOM      4  S   UNL     1       0.721  -5.930   1.773  0.00  0.00    -0.078 S 
ATOM      5  C   UNL     1       0.788  -4.848   0.353  0.00  0.00    +0.078 A 
ATOM      6  C   UNL     1      -1.204  -5.466   3.954  0.00  0.00    +0.043 C 
ATOM      7  C   UNL     1      -2.023  -4.263   4.447  0.00  0.00    +0.005 C 
ATOM      8  C   UNL     1      -2.895  -3.758   3.294  0.00  0.00    +0.005 C 
ATOM      9  C   UNL     1      -2.021  -3.095   2.228  0.00  0.00    +0.036 C 
ENDROOT
BRANCH   5  10
ATOM     10  N   UNL     1       1.621  -4.915  -0.766  0.00  0.00    -0.273 N 
ATOM     11  C   UNL     1       2.444  -5.969  -0.932  0.00  0.00    +0.284 C 
ATOM     12  O   UNL     1       2.460  -6.864  -0.107  0.00  0.00    -0.266 OA
ATOM     13  H   UNL     1       1.608  -4.201  -1.423  0.00  0.00    +0.156 HD
BRANCH  11  14
ATOM     14  C   UNL     1       3.319  -6.038  -2.106  0.00  0.00    +0.189 A 
ATOM     15  C   UNL     1       4.192  -7.047  -2.398  0.00  0.00    +0.054 A 
ATOM     16  C   UNL     1       4.817  -6.703  -3.607  0.00  0.00    +0.042 A 
ATOM     17  C   UNL     1       4.304  -5.514  -3.995  0.00  0.00    +0.196 A 
ATOM     18  O   UNL     1       3.398  -5.119  -3.091  0.00  0.00    -0.458 OA
ENDBRANCH  11  14
ENDBRANCH   5  10
BRANCH   1  19
ATOM     19  C   UNL     1      -0.477  -2.815  -0.309  0.00  0.00    +0.135 C 
BRANCH  19  26
ATOM     20  C   UNL     1      -0.452   0.783  -2.468  0.00  0.00    +0.005 A 
ATOM     21  C   UNL     1       0.766   1.323  -2.860  0.00  0.00    +0.018 A 
ATOM     22  C   UNL     1       1.934   0.665  -2.531  0.00  0.00    +0.084 A 
ATOM     23  N   UNL     1       1.905  -0.466  -1.851  0.00  0.00    -0.350 N 
ATOM     24  C   UNL     1       0.765  -1.012  -1.460  0.00  0.00    +0.097 A 
ATOM     25  C   UNL     1      -0.451  -0.403  -1.756  0.00  0.00    +0.041 A 
ATOM     26  N   UNL     1       0.781  -2.205  -0.746  0.00  0.00    -0.320 N 
ATOM     27  H   UNL     1       1.626  -2.633  -0.536  0.00  0.00    +0.148 HD
ATOM     28  H   UNL     1       2.741  -0.908  -1.633  0.00  0.00    +0.166 HD
ENDBRANCH  19  26
BRANCH  19  29
ATOM     29  C   UNL     1      -1.218  -3.350  -1.508  0.00  0.00    -0.023 A 
ATOM     30  C   UNL     1      -0.515  -3.791  -2.614  0.00  0.00    +0.007 A 
ATOM     31  C   UNL     1      -1.194  -4.282  -3.713  0.00  0.00    +0.020 A 
ATOM     32  C   UNL     1      -2.576  -4.333  -3.706  0.00  0.00    +0.041 A 
ATOM     33  C   UNL     1      -3.279  -3.893  -2.598  0.00  0.00    +0.020 A 
ATOM     34  C   UNL     1      -2.599  -3.407  -1.498  0.00  0.00    +0.007 A 
ATOM     35 CL   UNL     1      -3.430  -4.950  -5.087  0.00  0.00    -0.084 Cl
ENDBRANCH  19  29
ENDBRANCH   1  19
TORSDOF 5
