REMARK  Name = ZINC09238551
REMARK  5 active torsions:
REMARK  status: ('A' for Active; 'I' for Inactive)
REMARK    1  A    between atoms: C_4  and  C_7
REMARK    2  A    between atoms: C_13  and  C_27
REMARK    3  A    between atoms: C_15  and  C_18
REMARK    4  A    between atoms: N_20  and  C_21
REMARK    5  A    between atoms: C_21  and  C_22
REMARK                            x       y       z     vdW  Elec       q    Type
REMARK                         _______ _______ _______ _____ _____    ______ ____
ROOT
ATOM      1  C   UNL     1       0.002  -0.004   0.002  0.00  0.00    +0.182 A 
ATOM      2  N   UNL     1       1.263  -0.372  -0.042  0.00  0.00    -0.127 NA
ATOM      3  N   UNL     1       2.026   0.666  -0.028  0.00  0.00    -0.121 NA
ATOM      4  C   UNL     1       1.296   1.748   0.022  0.00  0.00    +0.210 A 
ATOM      5  N   UNL     1      -0.016   1.369   0.051  0.00  0.00    -0.221 N 
ATOM      6  N   UNL     1      -1.102   2.181   0.123  0.00  0.00    -0.272 N 
ATOM      7  C   UNL     1      -0.846   3.547  -0.335  0.00  0.00    +0.140 C 
ATOM      8  C   UNL     1       0.260   4.197   0.507  0.00  0.00    +0.166 C 
ATOM      9  S   UNL     1       1.840   3.428   0.042  0.00  0.00    -0.069 S 
ATOM     10  H   UNL     1      -1.888   1.778  -0.363  0.00  0.00    +0.167 HD
ENDROOT
BRANCH   7  11
ATOM     11  C   UNL     1      -2.109   4.359  -0.211  0.00  0.00    -0.024 A 
ATOM     12  C   UNL     1      -2.919   4.211   0.899  0.00  0.00    +0.008 A 
ATOM     13  C   UNL     1      -4.075   4.959   1.017  0.00  0.00    +0.038 A 
ATOM     14  C   UNL     1      -4.428   5.849   0.017  0.00  0.00    +0.123 A 
ATOM     15  C   UNL     1      -3.618   5.993  -1.097  0.00  0.00    +0.038 A 
ATOM     16  C   UNL     1      -2.460   5.248  -1.210  0.00  0.00    +0.008 A 
ATOM     17  F   UNL     1      -5.561   6.577   0.128  0.00  0.00    -0.205 F 
ENDBRANCH   7  11
BRANCH   1  21
ATOM     18  C   UNL     1      -3.379  -2.575  -0.007  0.00  0.00    +0.000 A 
ATOM     19  C   UNL     1      -2.149  -3.054  -0.422  0.00  0.00    +0.001 A 
ATOM     20  C   UNL     1      -1.047  -2.224  -0.422  0.00  0.00    +0.011 A 
ATOM     21  C   UNL     1      -1.175  -0.899  -0.002  0.00  0.00    +0.021 A 
ATOM     22  C   UNL     1      -2.418  -0.424   0.421  0.00  0.00    +0.011 A 
ATOM     23  C   UNL     1      -3.513  -1.263   0.411  0.00  0.00    +0.001 A 
ENDBRANCH   1  21
BRANCH   8  24
ATOM     24  C   UNL     1       0.311   5.677   0.227  0.00  0.00    +0.229 C 
ATOM     25  O   UNL     1      -0.036   6.102  -0.854  0.00  0.00    -0.275 OA
ATOM     26  N   UNL     1       0.743   6.528   1.179  0.00  0.00    -0.307 N 
ATOM     27  H   UNL     1       1.021   6.188   2.043  0.00  0.00    +0.149 HD
BRANCH  26  28
ATOM     28  C   UNL     1       0.793   7.967   0.906  0.00  0.00    +0.178 C 
BRANCH  28  29
ATOM     29  C   UNL     1       1.308   8.691   2.123  0.00  0.00    +0.122 A 
ATOM     30  C   UNL     1       2.598   8.963   2.389  0.00  0.00    +0.046 A 
ATOM     31  C   UNL     1       2.625   9.650   3.625  0.00  0.00    +0.041 A 
ATOM     32  C   UNL     1       1.350   9.756   4.040  0.00  0.00    +0.195 A 
ATOM     33  O   UNL     1       0.556   9.178   3.124  0.00  0.00    -0.466 OA
ENDBRANCH  28  29
ENDBRANCH  26  28
ENDBRANCH   8  24
TORSDOF 5
