REMARK  Name = ZINC40837709
REMARK  6 active torsions:
REMARK  status: ('A' for Active; 'I' for Inactive)
REMARK    1  A    between atoms: C_1  and  C_2
REMARK    2  A    between atoms: C_2  and  N_3
REMARK    3  A    between atoms: N_3  and  C_4
REMARK    4  A    between atoms: C_10  and  C_12
REMARK    5  A    between atoms: C_12  and  C_13
REMARK    6  A    between atoms: C_13  and  N_14
REMARK                            x       y       z     vdW  Elec       q    Type
REMARK                         _______ _______ _______ _____ _____    ______ ____
ROOT
ATOM      1  N   UNL     1      -1.466  -1.009   4.842  0.00  0.00    -0.303 N 
ATOM      2  C   UNL     1      -0.517  -1.850   5.395  0.00  0.00    +0.070 A 
ATOM      3  C   UNL     1      -0.081  -2.970   4.694  0.00  0.00    +0.028 A 
ATOM      4  C   UNL     1       0.866  -3.803   5.251  0.00  0.00    +0.002 A 
ATOM      5  C   UNL     1       1.388  -3.533   6.508  0.00  0.00    +0.002 A 
ATOM      6  C   UNL     1       0.974  -2.440   7.213  0.00  0.00    +0.030 A 
ATOM      7  C   UNL     1       0.012  -1.577   6.668  0.00  0.00    +0.090 A 
ATOM      8  N   UNL     1      -0.397  -0.496   7.365  0.00  0.00    -0.225 NA
ATOM      9  C   UNL     1      -1.293   0.322   6.876  0.00  0.00    +0.188 A 
ATOM     10  C   UNL     1      -1.869   0.075   5.541  0.00  0.00    +0.292 A 
ATOM     11  O   UNL     1      -2.699   0.834   5.077  0.00  0.00    -0.264 OA
ATOM     12  N   UNL     1      -1.696   1.423   7.610  0.00  0.00    -0.311 N 
ATOM     13  C   UNL     1      -2.821   2.254   7.157  0.00  0.00    +0.106 C 
ATOM     14  C   UNL     1      -3.840   2.368   8.295  0.00  0.00    +0.019 C 
ATOM     15  C   UNL     1      -3.139   2.890   9.551  0.00  0.00    +0.003 C 
ATOM     16  C   UNL     1      -2.049   1.905   9.976  0.00  0.00    +0.019 C 
ATOM     17  C   UNL     1      -1.013   1.782   8.860  0.00  0.00    +0.106 C 
ENDROOT
BRANCH   1  18
ATOM     18  C   UNL     1      -2.022  -1.286   3.515  0.00  0.00    +0.135 C 
BRANCH  18  19
ATOM     19  C   UNL     1      -1.163  -0.602   2.450  0.00  0.00    +0.118 C 
BRANCH  19  21
ATOM     20  N   UNL     1      -1.140  -0.384  -0.014  0.00  0.00    -0.272 N 
ATOM     21  C   UNL     1      -1.735  -0.887   1.085  0.00  0.00    +0.221 C 
ATOM     22  O   UNL     1      -2.732  -1.571   0.976  0.00  0.00    -0.275 OA
BRANCH  20  23
ATOM     23  C   UNL     1      -1.730  -0.555  -1.271  0.00  0.00    +0.036 A 
ATOM     24  C   UNL     1      -2.917   0.098  -1.577  0.00  0.00    +0.023 A 
ATOM     25  C   UNL     1      -3.497  -0.074  -2.819  0.00  0.00    +0.002 A 
ATOM     26  C   UNL     1      -2.897  -0.895  -3.757  0.00  0.00    +0.000 A 
ATOM     27  C   UNL     1      -1.716  -1.546  -3.454  0.00  0.00    +0.002 A 
ATOM     28  C   UNL     1      -1.128  -1.375  -2.216  0.00  0.00    +0.023 A 
ENDBRANCH  20  23
BRANCH  20  30
ATOM     29  C   UNL     1      -0.160   1.832   0.322  0.00  0.00    +0.025 C 
ATOM     30  C   UNL     1       0.126   0.344   0.107  0.00  0.00    +0.110 C 
ENDBRANCH  20  30
ENDBRANCH  19  21
ENDBRANCH  18  19
ENDBRANCH   1  18
TORSDOF 5
