REMARK  Name = ZINC23294095
REMARK  7 active torsions:
REMARK  status: ('A' for Active; 'I' for Inactive)
REMARK    1  A    between atoms: C_1  and  C_2
REMARK    2  A    between atoms: C_3  and  C_32
REMARK    3  A    between atoms: C_11  and  C_13
REMARK    4  A    between atoms: C_13  and  S_14
REMARK    5  A    between atoms: S_14  and  C_15
REMARK    6  A    between atoms: C_19  and  C_22
REMARK    7  A    between atoms: N_30  and  N_31
REMARK                            x       y       z     vdW  Elec       q    Type
REMARK                         _______ _______ _______ _____ _____    ______ ____
ROOT
ATOM      1  C   UNL     1       0.134  -6.118   5.400  0.00  0.00    +0.190 A 
ATOM      2  N   UNL     1       0.131  -5.526   6.577  0.00  0.00    -0.215 NA
ATOM      3  C   UNL     1       0.150  -6.238   7.698  0.00  0.00    +0.117 A 
ATOM      4  C   UNL     1       0.175  -7.643   7.688  0.00  0.00    +0.081 A 
ATOM      5  C   UNL     1       0.194  -8.269   9.007  0.00  0.00    +0.004 A 
ATOM      6  C   UNL     1       0.188  -7.477  10.104  0.00  0.00    +0.056 A 
ATOM      7  S   UNL     1       0.154  -5.829   9.425  0.00  0.00    -0.076 S 
ATOM      8  C   UNL     1       0.178  -8.257   6.398  0.00  0.00    +0.280 A 
ATOM      9  O   UNL     1       0.198  -9.472   6.293  0.00  0.00    -0.265 OA
ATOM     10  N   UNL     1       0.151  -7.479   5.301  0.00  0.00    -0.209 N 
ENDROOT
BRANCH   5  11
ATOM     11  C   UNL     1       0.221  -9.745   9.142  0.00  0.00    -0.017 A 
ATOM     12  C   UNL     1      -0.691 -10.528   8.435  0.00  0.00    +0.008 A 
ATOM     13  C   UNL     1      -0.661 -11.902   8.564  0.00  0.00    +0.001 A 
ATOM     14  C   UNL     1       0.270 -12.502   9.393  0.00  0.00    +0.000 A 
ATOM     15  C   UNL     1       1.177 -11.729  10.097  0.00  0.00    +0.001 A 
ATOM     16  C   UNL     1       1.161 -10.355   9.971  0.00  0.00    +0.008 A 
ENDBRANCH   5  11
BRANCH  10  17
ATOM     17  N   UNL     1       0.148  -8.061   4.065  0.00  0.00    -0.293 N 
ATOM     18  H   UNL     1       0.132  -7.364   3.337  0.00  0.00    +0.163 HD
ATOM     19  H   UNL     1       0.937  -8.681   3.955  0.00  0.00    +0.163 HD
ENDBRANCH  10  17
BRANCH   1  20
ATOM     20  S   UNL     1       0.108  -5.139   3.935  0.00  0.00    -0.078 S 
BRANCH  20  21
ATOM     21  C   UNL     1       0.090  -3.432   4.547  0.00  0.00    +0.151 C 
BRANCH  21  32
ATOM     22  C   UNL     1      -0.018   1.503   0.010  0.00  0.00    +0.045 C 
ATOM     23  C   UNL     1       0.002  -0.004   0.002  0.00  0.00    -0.026 A 
ATOM     24  C   UNL     1       0.006  -0.677  -1.160  0.00  0.00    -0.008 A 
ATOM     25  S   UNL     1       0.032  -2.385  -0.648  0.00  0.00    -0.073 S 
ATOM     26  C   UNL     1       0.037  -2.144   1.110  0.00  0.00    +0.116 A 
ATOM     27  C   UNL     1       0.024  -0.745   1.250  0.00  0.00    +0.075 A 
ATOM     28  C   UNL     1       0.029  -0.257   2.597  0.00  0.00    +0.260 A 
ATOM     29  O   UNL     1       0.014   0.942   2.821  0.00  0.00    -0.267 OA
ATOM     30  N   UNL     1       0.051  -1.142   3.611  0.00  0.00    -0.310 N 
ATOM     31  H   UNL     1       0.054  -0.817   4.525  0.00  0.00    +0.170 HD
ATOM     32  C   UNL     1       0.067  -2.480   3.380  0.00  0.00    +0.121 A 
ATOM     33  N   UNL     1       0.053  -2.956   2.163  0.00  0.00    -0.226 NA
ATOM     34  C   UNL     1      -0.009  -0.122  -2.561  0.00  0.00    +0.052 C 
ENDBRANCH  21  32
ENDBRANCH  20  21
ENDBRANCH   1  20
TORSDOF 5
