REMARK  Name = ZINC31874448
REMARK  8 active torsions:
REMARK  status: ('A' for Active; 'I' for Inactive)
REMARK    1  A    between atoms: C_1  and  C_2
REMARK    2  A    between atoms: C_5  and  S_23
REMARK    3  A    between atoms: C_7  and  N_8
REMARK    4  A    between atoms: C_9  and  C_11
REMARK    5  A    between atoms: N_13  and  C_16
REMARK    6  A    between atoms: S_23  and  N_26
REMARK    7  A    between atoms: N_26  and  C_27
REMARK    8  A    between atoms: N_26  and  C_28
REMARK                            x       y       z     vdW  Elec       q    Type
REMARK                         _______ _______ _______ _____ _____    ______ ____
ROOT
ATOM      1  N   UNL     1      -0.043   0.016  -2.410  0.00  0.00    -0.280 N 
ATOM      2  C   UNL     1      -0.547  -0.564  -3.518  0.00  0.00    +0.270 C 
ATOM      3  O   UNL     1      -1.070  -1.660  -3.446  0.00  0.00    -0.268 OA
ATOM      4  H   UNL     1       0.344   1.045  -2.456  0.00  0.00    +0.155 HD
ENDROOT
BRANCH   1  11
ATOM      5  C   UNL     1      -0.003   1.503   0.015  0.00  0.00    +0.045 C 
ATOM      6  C   UNL     1       0.009  -0.004   0.004  0.00  0.00    -0.029 A 
ATOM      7  C   UNL     1       0.035  -0.705   1.194  0.00  0.00    +0.007 A 
ATOM      8  C   UNL     1       0.045  -2.087   1.184  0.00  0.00    +0.029 A 
ATOM      9  C   UNL     1       0.029  -2.773  -0.016  0.00  0.00    +0.107 A 
ATOM     10  C   UNL     1       0.004  -2.079  -1.210  0.00  0.00    +0.052 A 
ATOM     11  C   UNL     1      -0.011  -0.690  -1.203  0.00  0.00    +0.038 A 
BRANCH   9  12
ATOM     12  S   UNL     1       0.042  -4.535  -0.023  0.00  0.00    +0.060 S 
ATOM     13  O   UNL     1       0.575  -4.933  -1.279  0.00  0.00    -0.153 OA
ATOM     14  O   UNL     1       0.618  -4.942   1.211  0.00  0.00    -0.153 OA
BRANCH  12  15
ATOM     15  N   UNL     1      -1.536  -5.037   0.002  0.00  0.00    -0.183 NA
ATOM     16  C   UNL     1      -2.256  -5.254  -1.255  0.00  0.00    +0.131 C 
ATOM     17  C   UNL     1      -2.212  -5.263   1.282  0.00  0.00    +0.131 C 
ENDBRANCH  12  15
ENDBRANCH   9  12
ENDBRANCH   1  11
BRANCH   2  18
ATOM     18  C   UNL     1      -0.464   0.130  -4.816  0.00  0.00    +0.168 A 
ATOM     19  C   UNL     1      -0.934  -0.347  -6.008  0.00  0.00    +0.149 A 
ATOM     20  N   UNL     1      -0.659   0.592  -6.939  0.00  0.00    -0.218 N 
ATOM     21  N   UNL     1      -0.012   1.644  -6.275  0.00  0.00    -0.060 NA
ATOM     22  N   UNL     1       0.081   1.340  -5.027  0.00  0.00    -0.124 NA
BRANCH  20  23
ATOM     23  C   UNL     1      -0.963   0.527  -8.307  0.00  0.00    +0.081 A 
ATOM     24  C   UNL     1      -0.796  -0.663  -9.001  0.00  0.00    +0.029 A 
ATOM     25  C   UNL     1      -1.096  -0.724 -10.347  0.00  0.00    +0.002 A 
ATOM     26  C   UNL     1      -1.562   0.399 -11.005  0.00  0.00    +0.001 A 
ATOM     27  C   UNL     1      -1.730   1.587 -10.318  0.00  0.00    +0.017 A 
ATOM     28  C   UNL     1      -1.436   1.653  -8.969  0.00  0.00    +0.043 A 
ATOM     29 BR   UNL     1      -1.672   3.276  -8.027  0.00  0.00    -0.048 Br
ENDBRANCH  20  23
ENDBRANCH   2  18
TORSDOF 5
