REMARK  Name = ZINC47863876
REMARK  5 active torsions:
REMARK  status: ('A' for Active; 'I' for Inactive)
REMARK    1  A    between atoms: C_1  and  N_2
REMARK    2  A    between atoms: C_7  and  N_12
REMARK    3  A    between atoms: N_15  and  C_16
REMARK    4  A    between atoms: C_21  and  S_22
REMARK    5  A    between atoms: S_22  and  C_23
REMARK                            x       y       z     vdW  Elec       q    Type
REMARK                         _______ _______ _______ _____ _____    ______ ____
ROOT
ATOM      1  N   UNL     1      -0.902  -4.294  -1.122  0.00  0.00    -0.292 N 
ATOM      2  C   UNL     1      -0.512  -5.176  -0.181  0.00  0.00    +0.304 C 
ATOM      3  O   UNL     1       0.621  -5.134   0.260  0.00  0.00    -0.252 OA
ATOM      4  N   UNL     1      -1.377  -6.105   0.272  0.00  0.00    -0.268 N 
ATOM      5  H   UNL     1      -1.805  -4.327  -1.473  0.00  0.00    +0.151 HD
ATOM      6  H   UNL     1      -2.302  -6.088  -0.018  0.00  0.00    +0.156 HD
ENDROOT
BRANCH   1  13
ATOM      7  C   UNL     1      -0.026   1.460  -0.045  0.00  0.00    +0.172 C 
ATOM      8  N   UNL     1      -0.004  -0.005  -0.041  0.00  0.00    -0.271 N 
ATOM      9  C   UNL     1       0.008  -0.799  -1.125  0.00  0.00    +0.044 A 
ATOM     10  C   UNL     1       0.025  -2.087  -0.696  0.00  0.00    +0.013 A 
ATOM     11  C   UNL     1       0.025  -2.077   0.697  0.00  0.00    +0.140 A 
ATOM     12  N   UNL     1       0.013  -0.828   1.095  0.00  0.00    -0.179 NA
ATOM     13  C   UNL     1       0.038  -3.284  -1.614  0.00  0.00    +0.108 C 
ATOM     14  C   UNL     1      -0.383  -2.824  -3.015  0.00  0.00    +0.027 C 
ATOM     15  C   UNL     1       0.439  -1.597  -3.419  0.00  0.00    +0.008 C 
ATOM     16  C   UNL     1       0.006  -0.390  -2.576  0.00  0.00    +0.055 C 
ENDBRANCH   1  13
BRANCH   4  17
ATOM     17  C   UNL     1      -0.939  -7.096   1.162  0.00  0.00    +0.048 A 
ATOM     18  C   UNL     1       0.397  -7.462   1.191  0.00  0.00    +0.024 A 
ATOM     19  C   UNL     1       0.827  -8.440   2.069  0.00  0.00    +0.002 A 
ATOM     20  C   UNL     1      -0.073  -9.056   2.920  0.00  0.00    +0.001 A 
ATOM     21  C   UNL     1      -1.407  -8.697   2.898  0.00  0.00    +0.017 A 
ATOM     22  C   UNL     1      -1.847  -7.712   2.024  0.00  0.00    +0.037 A 
BRANCH  22  23
ATOM     23  S   UNL     1      -3.546  -7.247   1.998  0.00  0.00    -0.014 S 
BRANCH  23  24
ATOM     24  C   UNL     1      -4.308  -8.299   3.264  0.00  0.00    +0.448 C 
ATOM     25  F   UNL     1      -3.711  -8.045   4.503  0.00  0.00    -0.160 F 
ATOM     26  F   UNL     1      -5.677  -8.020   3.340  0.00  0.00    -0.160 F 
ATOM     27  F   UNL     1      -4.125  -9.644   2.925  0.00  0.00    -0.160 F 
ENDBRANCH  23  24
ENDBRANCH  22  23
ENDBRANCH   4  17
TORSDOF 4
