REMARK  Name = ZINC39948176
REMARK  11 active torsions:
REMARK  status: ('A' for Active; 'I' for Inactive)
REMARK    1  A    between atoms: C_1  and  C_2
REMARK    2  A    between atoms: C_5  and  C_40
REMARK    3  A    between atoms: C_6  and  O_8
REMARK    4  A    between atoms: O_8  and  C_9
REMARK    5  A    between atoms: C_9  and  C_10
REMARK    6  A    between atoms: C_16  and  S_20
REMARK    7  A    between atoms: S_20  and  N_23
REMARK    8  A    between atoms: N_23  and  C_24
REMARK    9  A    between atoms: C_26  and  C_39
REMARK   10  A    between atoms: N_28  and  C_38
REMARK   11  A    between atoms: N_29  and  C_32
REMARK                            x       y       z     vdW  Elec       q    Type
REMARK                         _______ _______ _______ _____ _____    ______ ____
ROOT
ATOM      1  C   UNL     1       0.491  -1.505   5.029  0.00  0.00    +0.146 A 
ATOM      2  N   UNL     1       0.338  -2.825   4.736  0.00  0.00    -0.339 N 
ATOM      3  H   UNL     1       0.303  -3.217   3.850  0.00  0.00    +0.167 HD
ATOM      4  C   UNL     1       0.241  -3.503   5.935  0.00  0.00    +0.066 A 
ATOM      5  C   UNL     1       0.077  -4.838   6.280  0.00  0.00    +0.030 A 
ATOM      6  C   UNL     1       0.017  -5.197   7.610  0.00  0.00    +0.030 A 
ATOM      7  C   UNL     1       0.118  -4.233   8.604  0.00  0.00    +0.107 A 
ATOM      8  C   UNL     1       0.279  -2.915   8.283  0.00  0.00    +0.058 A 
ATOM      9  C   UNL     1       0.344  -2.528   6.942  0.00  0.00    +0.091 A 
ATOM     10  N   UNL     1       0.500  -1.332   6.319  0.00  0.00    -0.229 NA
ENDROOT
BRANCH   7  11
ATOM     11  S   UNL     1       0.037  -4.715  10.296  0.00  0.00    +0.059 S 
ATOM     12  O   UNL     1      -0.392  -3.572  11.024  0.00  0.00    -0.153 OA
ATOM     13  O   UNL     1      -0.666  -5.950  10.334  0.00  0.00    -0.153 OA
BRANCH  11  14
ATOM     14  N   UNL     1       1.585  -5.036  10.789  0.00  0.00    -0.176 NA
ATOM     15  H   UNL     1       1.835  -5.937  11.047  0.00  0.00    +0.149 HD
BRANCH  14  16
ATOM     16  C   UNL     1       2.578  -3.959  10.835  0.00  0.00    +0.182 C 
ATOM     17  C   UNL     1       3.593  -4.195  11.979  0.00  0.00    +0.101 C 
ATOM     18  N   UNL     1       4.691  -4.894  11.273  0.00  0.00    -0.218 NA
ATOM     19  N   UNL     1       4.651  -4.520   9.962  0.00  0.00    -0.201 N 
ATOM     20  C   UNL     1       3.463  -3.987   9.602  0.00  0.00    +0.254 C 
ATOM     21  O   UNL     1       3.156  -3.599   8.495  0.00  0.00    -0.272 OA
ATOM     22  C   UNL     1       4.561  -6.351  11.409  0.00  0.00    +0.128 C 
ATOM     23  C   UNL     1       2.991  -5.082  13.071  0.00  0.00    +0.028 C 
BRANCH  19  24
ATOM     24  C   UNL     1       5.727  -4.671   9.082  0.00  0.00    +0.053 A 
ATOM     25  C   UNL     1       7.002  -4.276   9.466  0.00  0.00    +0.025 A 
ATOM     26  C   UNL     1       8.062  -4.427   8.594  0.00  0.00    +0.002 A 
ATOM     27  C   UNL     1       7.856  -4.970   7.340  0.00  0.00    +0.000 A 
ATOM     28  C   UNL     1       6.588  -5.364   6.953  0.00  0.00    +0.002 A 
ATOM     29  C   UNL     1       5.524  -5.222   7.823  0.00  0.00    +0.025 A 
ENDBRANCH  19  24
ENDBRANCH  14  16
ENDBRANCH  11  14
ENDBRANCH   7  11
BRANCH   1  30
ATOM     30  C   UNL     1       0.635  -0.406   4.009  0.00  0.00    +0.303 C 
BRANCH  30  31
ATOM     31  O   UNL     1       0.580  -0.964   2.695  0.00  0.00    -0.484 OA
BRANCH  31  37
ATOM     32  C   UNL     1       1.154   3.606   1.083  0.00  0.00    +0.044 C 
ATOM     33  C   UNL     1       0.977   2.132   0.827  0.00  0.00    -0.047 A 
ATOM     34  C   UNL     1       0.931   1.657  -0.471  0.00  0.00    +0.004 A 
ATOM     35  C   UNL     1       0.768   0.304  -0.709  0.00  0.00    +0.007 A 
ATOM     36  C   UNL     1       0.650  -0.575   0.349  0.00  0.00    -0.009 A 
ATOM     37  C   UNL     1       0.696  -0.101   1.652  0.00  0.00    +0.124 A 
ATOM     38  C   UNL     1       0.865   1.256   1.889  0.00  0.00    +0.049 A 
ATOM     39  C   UNL     1       0.472  -2.049   0.089  0.00  0.00    +0.047 C 
ENDBRANCH  31  37
ENDBRANCH  30  31
ENDBRANCH   1  30
TORSDOF 7
