REMARK  Name = ZINC20841438
REMARK  7 active torsions:
REMARK  status: ('A' for Active; 'I' for Inactive)
REMARK    1  A    between atoms: C_3  and  N_9
REMARK    2  A    between atoms: C_10  and  C_12
REMARK    3  A    between atoms: C_12  and  C_13
REMARK    4  A    between atoms: C_13  and  S_14
REMARK    5  A    between atoms: S_14  and  C_15
REMARK    6  A    between atoms: C_18  and  C_21
REMARK    7  A    between atoms: N_19  and  N_20
REMARK                            x       y       z     vdW  Elec       q    Type
REMARK                         _______ _______ _______ _____ _____    ______ ____
ROOT
ATOM      1  C   UNL     1      -0.661   4.021   0.004  0.00  0.00    +0.086 C 
ENDROOT
BRANCH   1   2
ATOM      2  C   UNL     1      -1.740   5.106   0.020  0.00  0.00    +0.107 C 
BRANCH   2   4
ATOM      3  N   UNL     1      -1.846   7.577   0.052  0.00  0.00    -0.284 N 
ATOM      4  C   UNL     1      -1.087   6.464   0.036  0.00  0.00    +0.218 C 
ATOM      5  O   UNL     1       0.123   6.555   0.034  0.00  0.00    -0.275 OA
ATOM      6  H   UNL     1      -2.941   7.497  -0.020  0.00  0.00    +0.155 HD
BRANCH   3   9
ATOM      7  C   UNL     1       0.583  10.312  -0.325  0.00  0.00    +0.022 A 
ATOM      8  C   UNL     1      -0.011   9.070  -0.434  0.00  0.00    +0.026 A 
ATOM      9  C   UNL     1      -1.242   8.835   0.162  0.00  0.00    +0.052 A 
ATOM     10  C   UNL     1      -1.877   9.854   0.863  0.00  0.00    +0.064 A 
ATOM     11  C   UNL     1      -1.276  11.093   0.973  0.00  0.00    +0.041 A 
ATOM     12  C   UNL     1      -0.048  11.323   0.378  0.00  0.00    +0.042 A 
ATOM     13 CL   UNL     1       0.701  12.883   0.512  0.00  0.00    -0.083 Cl
ATOM     14 CL   UNL     1      -3.421   9.567   1.604  0.00  0.00    -0.082 Cl
ENDBRANCH   3   9
ENDBRANCH   2   4
ENDBRANCH   1   2
BRANCH   1  15
ATOM     15  S   UNL     1      -1.445   2.390  -0.016  0.00  0.00    -0.084 S 
BRANCH  15  16
ATOM     16  C   UNL     1      -0.014   1.362  -0.032  0.00  0.00    +0.209 A 
ATOM     17  N   UNL     1       1.236   1.764  -0.036  0.00  0.00    -0.121 NA
ATOM     18  N   UNL     1       2.021   0.747  -0.054  0.00  0.00    -0.123 NA
ATOM     19  C   UNL     1       1.326  -0.355  -0.064  0.00  0.00    +0.255 A 
ATOM     20  N   UNL     1       0.005  -0.003  -0.050  0.00  0.00    -0.220 N 
BRANCH  19  21
ATOM     21  C   UNL     1       1.877  -1.757  -0.086  0.00  0.00    +0.454 C 
ATOM     22  F   UNL     1       3.236  -1.730   0.247  0.00  0.00    -0.163 F 
ATOM     23  F   UNL     1       1.185  -2.544   0.842  0.00  0.00    -0.163 F 
ATOM     24  F   UNL     1       1.720  -2.300  -1.366  0.00  0.00    -0.163 F 
ENDBRANCH  19  21
BRANCH  20  25
ATOM     25  N   UNL     1      -1.072  -0.843  -0.053  0.00  0.00    -0.295 N 
ATOM     26  H   UNL     1      -0.920  -1.932  -0.068  0.00  0.00    +0.163 HD
ATOM     27  H   UNL     1      -2.092  -0.430  -0.041  0.00  0.00    +0.163 HD
ENDBRANCH  20  25
ENDBRANCH  15  16
ENDBRANCH   1  15
TORSDOF 7
