REMARK  Name = ZINC00706034
REMARK  7 active torsions:
REMARK  status: ('A' for Active; 'I' for Inactive)
REMARK    1  A    between atoms: C_7  and  C_18
REMARK    2  A    between atoms: N_9  and  C_10
REMARK    3  A    between atoms: C_10  and  C_11
REMARK    4  A    between atoms: N_19  and  N_20
REMARK    5  A    between atoms: C_21  and  C_23
REMARK    6  A    between atoms: C_23  and  N_24
REMARK    7  A    between atoms: C_32  and  C_33
REMARK                            x       y       z     vdW  Elec       q    Type
REMARK                         _______ _______ _______ _____ _____    ______ ____
ROOT
ATOM      1  N   UNL     1      -5.495   3.495  -1.597  0.00  0.00    -0.206 N 
ATOM      2  C   UNL     1      -4.189   3.732  -1.361  0.00  0.00    +0.252 C 
ATOM      3  O   UNL     1      -3.422   3.879  -2.289  0.00  0.00    -0.272 OA
ATOM      4  H   UNL     1      -6.109   3.378  -0.854  0.00  0.00    +0.177 HD
ENDROOT
BRANCH   1   6
ATOM      5  C   UNL     1      -7.225   3.190  -3.141  0.00  0.00    +0.140 C 
ATOM      6  N   UNL     1      -5.966   3.418  -2.914  0.00  0.00    -0.188 NA
BRANCH   5  13
ATOM      7  C   UNL     1      -5.135   3.601  -7.312  0.00  0.00    +0.001 A 
ATOM      8  C   UNL     1      -6.025   3.446  -8.366  0.00  0.00    +0.002 A 
ATOM      9  C   UNL     1      -7.359   3.201  -8.129  0.00  0.00    +0.026 A 
ATOM     10  C   UNL     1      -7.825   3.107  -6.821  0.00  0.00    +0.050 A 
ATOM     11  C   UNL     1      -6.925   3.270  -5.755  0.00  0.00    +0.009 A 
ATOM     12  C   UNL     1      -5.577   3.512  -6.011  0.00  0.00    +0.010 A 
ATOM     13  C   UNL     1      -7.720   3.110  -4.524  0.00  0.00    +0.020 A 
ATOM     14  C   UNL     1      -9.002   2.879  -4.917  0.00  0.00    +0.096 A 
ATOM     15  N   UNL     1      -9.072   2.876  -6.278  0.00  0.00    -0.342 N 
BRANCH  15  16
ATOM     16  C   UNL     1     -10.296   2.659  -7.054  0.00  0.00    +0.157 C 
BRANCH  16  17
ATOM     17  C   UNL     1     -10.397   1.204  -7.435  0.00  0.00    -0.028 A 
ATOM     18  C   UNL     1      -9.848   0.761  -8.624  0.00  0.00    +0.007 A 
ATOM     19  C   UNL     1      -9.936  -0.574  -8.971  0.00  0.00    +0.020 A 
ATOM     20  C   UNL     1     -10.584  -1.464  -8.134  0.00  0.00    +0.041 A 
ATOM     21  C   UNL     1     -11.139  -1.020  -6.947  0.00  0.00    +0.020 A 
ATOM     22  C   UNL     1     -11.045   0.315  -6.598  0.00  0.00    +0.007 A 
ATOM     23 CL   UNL     1     -10.701  -3.140  -8.573  0.00  0.00    -0.084 Cl
ENDBRANCH  16  17
ENDBRANCH  15  16
ENDBRANCH   5  13
ENDBRANCH   1   6
BRANCH   2  24
ATOM     24  C   UNL     1      -3.682   3.814   0.056  0.00  0.00    +0.221 C 
BRANCH  24  25
ATOM     25  N   UNL     1      -2.241   4.078   0.044  0.00  0.00    -0.313 N 
ATOM     26  C   UNL     1      -1.236   3.132   0.030  0.00  0.00    +0.070 A 
ATOM     27  C   UNL     1      -1.218   1.744   0.017  0.00  0.00    +0.028 A 
ATOM     28  C   UNL     1      -0.013   1.076   0.008  0.00  0.00    +0.002 A 
ATOM     29  C   UNL     1       1.183   1.781   0.000  0.00  0.00    +0.002 A 
ATOM     30  C   UNL     1       1.187   3.147   0.007  0.00  0.00    +0.030 A 
ATOM     31  C   UNL     1      -0.025   3.847   0.022  0.00  0.00    +0.090 A 
ATOM     32  N   UNL     1      -0.338   5.165   0.032  0.00  0.00    -0.226 NA
ATOM     33  C   UNL     1      -1.640   5.307   0.045  0.00  0.00    +0.168 A 
BRANCH  33  34
ATOM     34  C   UNL     1      -2.354   6.603   0.059  0.00  0.00    +0.190 A 
ATOM     35  C   UNL     1      -1.789   7.973   0.067  0.00  0.00    +0.191 A 
ATOM     36  N   UNL     1      -2.865   8.725   0.077  0.00  0.00    -0.033 NA
ATOM     37  O   UNL     1      -3.848   8.022   0.083  0.00  0.00    -0.240 OA
ATOM     38  N   UNL     1      -3.650   6.830   0.074  0.00  0.00    -0.044 NA
ATOM     39  N   UNL     1      -0.457   8.364   0.064  0.00  0.00    -0.339 N 
ATOM     40  H   UNL     1       0.245   7.694   0.054  0.00  0.00    +0.144 HD
ATOM     41  H   UNL     1      -0.227   9.306   0.070  0.00  0.00    +0.144 HD
ENDBRANCH  33  34
ENDBRANCH  24  25
ENDBRANCH   2  24
TORSDOF 7
