REMARK  Name = ZINC36640399
REMARK  10 active torsions:
REMARK  status: ('A' for Active; 'I' for Inactive)
REMARK    1  A    between atoms: C_1  and  C_2
REMARK    2  A    between atoms: C_2  and  N_3
REMARK    3  A    between atoms: N_3  and  C_4
REMARK    4  A    between atoms: N_3  and  C_6
REMARK    5  A    between atoms: C_4  and  C_5
REMARK    6  A    between atoms: C_6  and  C_7
REMARK    7  A    between atoms: C_7  and  N_8
REMARK    8  A    between atoms: C_13  and  C_19
REMARK    9  A    between atoms: C_15  and  C_18
REMARK   10  A    between atoms: C_20  and  C_22
REMARK                            x       y       z     vdW  Elec       q    Type
REMARK                         _______ _______ _______ _____ _____    ______ ____
ROOT
ATOM      1  N   UNL     1       0.902  -4.105  -1.955  0.00  0.00    -0.248 N 
ATOM      2  C   UNL     1      -0.097  -4.987  -2.330  0.00  0.00    +0.168 A 
ATOM      3  N   UNL     1      -1.389  -4.776  -2.427  0.00  0.00    -0.224 NA
ATOM      4  C   UNL     1      -2.255  -5.739  -2.809  0.00  0.00    +0.081 A 
ATOM      5  C   UNL     1      -3.659  -5.644  -2.953  0.00  0.00    +0.032 A 
ATOM      6  C   UNL     1      -4.397  -6.727  -3.353  0.00  0.00    -0.048 A 
ATOM      7  C   UNL     1      -3.800  -7.948  -3.630  0.00  0.00    +0.008 A 
ATOM      8  C   UNL     1      -2.429  -8.077  -3.500  0.00  0.00    -0.034 A 
ATOM      9  C   UNL     1      -1.682  -6.998  -3.100  0.00  0.00    +0.044 A 
ATOM     10  S   UNL     1       0.046  -6.703  -2.811  0.00  0.00    -0.052 S 
ATOM     11  C   UNL     1      -1.760  -9.395  -3.795  0.00  0.00    +0.045 C 
ATOM     12  C   UNL     1      -5.890  -6.588  -3.495  0.00  0.00    +0.044 C 
ATOM     13  C   UNL     1       2.186  -4.514  -1.923  0.00  0.00    +0.259 C 
ATOM     14  O   UNL     1       2.547  -5.438  -2.626  0.00  0.00    -0.269 OA
ENDROOT
BRANCH  13  15
ATOM     15  C   UNL     1       3.149  -3.843  -1.037  0.00  0.00    +0.122 A 
ATOM     16  C   UNL     1       4.212  -4.537  -0.460  0.00  0.00    +0.032 A 
ATOM     17  C   UNL     1       5.074  -3.830   0.401  0.00  0.00    +0.026 A 
ATOM     18  C   UNL     1       6.327  -4.429   0.867  0.00  0.00    -0.007 A 
ATOM     19  C   UNL     1       6.704  -5.721   0.495  0.00  0.00    +0.009 A 
ATOM     20  C   UNL     1       7.881  -6.239   0.952  0.00  0.00    +0.001 A 
ATOM     21  C   UNL     1       8.711  -5.497   1.786  0.00  0.00    +0.001 A 
ATOM     22  C   UNL     1       8.371  -4.233   2.168  0.00  0.00    +0.008 A 
ATOM     23  C   UNL     1       7.168  -3.670   1.715  0.00  0.00    -0.017 A 
ATOM     24  C   UNL     1       6.785  -2.366   2.088  0.00  0.00    +0.012 A 
ATOM     25  C   UNL     1       5.617  -1.827   1.656  0.00  0.00    +0.047 A 
ATOM     26  C   UNL     1       4.744  -2.534   0.825  0.00  0.00    +0.140 A 
ATOM     27  O   UNL     1       3.569  -1.978   0.445  0.00  0.00    -0.422 OA
ATOM     28  C   UNL     1       3.036  -2.408  -0.725  0.00  0.00    +0.350 A 
ATOM     29  O   UNL     1       2.482  -1.639  -1.488  0.00  0.00    -0.244 OA
ENDBRANCH  13  15
BRANCH   1  30
ATOM     30  C   UNL     1       0.563  -2.726  -1.595  0.00  0.00    +0.097 C 
BRANCH  30  31
ATOM     31  C   UNL     1       0.584  -1.851  -2.850  0.00  0.00    -0.059 C 
BRANCH  31  32
ATOM     32  N   UNL     1      -0.537  -2.222  -3.724  0.00  0.00    +0.380 N 
ATOM     33  H   UNL     1      -0.522  -3.217  -3.887  0.00  0.00    -0.082 HD
BRANCH  32  35
ATOM     34  C   UNL     1      -2.974  -2.349  -3.930  0.00  0.00    -0.017 C 
ATOM     35  C   UNL     1      -1.804  -1.851  -3.079  0.00  0.00    -0.082 C 
ENDBRANCH  32  35
BRANCH  32  36
ATOM     36  C   UNL     1      -0.415  -1.514  -5.005  0.00  0.00    -0.082 C 
ATOM     37  C   UNL     1       0.825  -2.015  -5.748  0.00  0.00    -0.017 C 
ENDBRANCH  32  36
ENDBRANCH  31  32
ENDBRANCH  30  31
ENDBRANCH   1  30
TORSDOF 6
