REMARK  Name = ZINC36802018
REMARK  7 active torsions:
REMARK  status: ('A' for Active; 'I' for Inactive)
REMARK    1  A    between atoms: C_1  and  C_2
REMARK    2  A    between atoms: C_2  and  C_4
REMARK    3  A    between atoms: C_2  and  S_14
REMARK    4  A    between atoms: S_14  and  C_15
REMARK    5  A    between atoms: C_18  and  C_27
REMARK    6  A    between atoms: N_19  and  C_20
REMARK    7  A    between atoms: C_20  and  C_21
REMARK                            x       y       z     vdW  Elec       q    Type
REMARK                         _______ _______ _______ _____ _____    ______ ____
ROOT
ATOM      1  C   UNL     1      -0.632   0.087   2.776  0.00  0.00    +0.193 A 
ATOM      2  N   UNL     1      -1.827   0.595   2.580  0.00  0.00    -0.122 NA
ATOM      3  N   UNL     1      -2.428   0.756   3.705  0.00  0.00    -0.128 NA
ATOM      4  C   UNL     1      -1.653   0.361   4.689  0.00  0.00    +0.167 A 
ATOM      5  N   UNL     1      -0.480  -0.085   4.124  0.00  0.00    -0.300 N 
ENDROOT
BRANCH   4   6
ATOM      6  C   UNL     1      -1.980   0.386   6.128  0.00  0.00    +0.044 A 
ATOM      7  C   UNL     1      -1.789  -0.619   7.021  0.00  0.00    +0.095 A 
ATOM      8  N   UNL     1      -2.214  -0.224   8.257  0.00  0.00    -0.360 N 
ATOM      9  H   UNL     1      -2.178  -0.772   9.057  0.00  0.00    +0.165 HD
ATOM     10  C   UNL     1      -2.700   1.065   8.204  0.00  0.00    +0.047 A 
ATOM     11  C   UNL     1      -2.572   1.508   6.877  0.00  0.00    +0.010 A 
ATOM     12  C   UNL     1      -2.983   2.793   6.528  0.00  0.00    +0.011 A 
ATOM     13  C   UNL     1      -3.512   3.625   7.490  0.00  0.00    +0.001 A 
ATOM     14  C   UNL     1      -3.635   3.189   8.802  0.00  0.00    +0.002 A 
ATOM     15  C   UNL     1      -3.240   1.919   9.160  0.00  0.00    +0.026 A 
ENDBRANCH   4   6
BRANCH   1  16
ATOM     16  S   UNL     1       0.553  -0.305   1.532  0.00  0.00    -0.074 S 
BRANCH  16  18
ATOM     17  C   UNL     1      -0.487   1.675  -0.042  0.00  0.00    +0.029 C 
ATOM     18  C   UNL     1      -0.267   0.162  -0.018  0.00  0.00    +0.137 C 
BRANCH  18  19
ATOM     19  C   UNL     1       0.599  -0.239  -1.185  0.00  0.00    +0.231 C 
ATOM     20  O   UNL     1       1.783  -0.442  -1.019  0.00  0.00    -0.274 OA
ATOM     21  N   UNL     1       0.057  -0.371  -2.412  0.00  0.00    -0.269 N 
ATOM     22  C   UNL     1       0.875  -0.638  -3.509  0.00  0.00    +0.125 A 
ATOM     23  C   UNL     1       0.326  -0.663  -4.787  0.00  0.00    +0.045 A 
ATOM     24  C   UNL     1       1.147  -0.929  -5.867  0.00  0.00    +0.025 A 
ATOM     25  C   UNL     1       2.497  -1.163  -5.632  0.00  0.00    +0.059 A 
ATOM     26  C   UNL     1       2.974  -1.123  -4.336  0.00  0.00    +0.132 A 
ATOM     27  N   UNL     1       2.166  -0.861  -3.326  0.00  0.00    -0.239 NA
ATOM     28 CL   UNL     1       3.571  -1.502  -6.953  0.00  0.00    -0.082 Cl
ATOM     29  H   UNL     1      -0.901  -0.281  -2.531  0.00  0.00    +0.156 HD
ENDBRANCH  18  19
ENDBRANCH  16  18
ENDBRANCH   1  16
BRANCH   5  30
ATOM     30  C   UNL     1       0.688  -0.628   4.822  0.00  0.00    +0.157 C 
BRANCH  30  31
ATOM     31  C   UNL     1       1.706   0.489   5.057  0.00  0.00    +0.138 C 
ATOM     32  C   UNL     1       2.991  -0.097   5.683  0.00  0.00    +0.035 C 
ATOM     33  C   UNL     1       3.384   0.997   6.712  0.00  0.00    +0.031 C 
ATOM     34  C   UNL     1       1.987   1.493   7.163  0.00  0.00    +0.160 C 
ATOM     35  O   UNL     1       1.172   1.447   5.978  0.00  0.00    -0.375 OA
ENDBRANCH  30  31
ENDBRANCH   5  30
TORSDOF 6
