REMARK  Name = ZINC02072837
REMARK  13 active torsions:
REMARK  status: ('A' for Active; 'I' for Inactive)
REMARK    1  A    between atoms: C_1  and  C_2
REMARK    2  A    between atoms: C_3  and  C_32
REMARK    3  A    between atoms: C_4  and  C_25
REMARK    4  A    between atoms: C_10  and  C_15
REMARK    5  A    between atoms: C_18  and  O_23
REMARK    6  A    between atoms: C_19  and  O_21
REMARK    7  A    between atoms: O_21  and  C_22
REMARK    8  A    between atoms: O_23  and  C_24
REMARK    9  A    between atoms: C_32  and  O_34
REMARK   10  A    between atoms: O_34  and  C_35
REMARK   11  A    between atoms: C_35  and  C_36
REMARK   12  A    between atoms: C_36  and  O_37
REMARK   13  A    between atoms: O_37  and  C_38
REMARK                            x       y       z     vdW  Elec       q    Type
REMARK                         _______ _______ _______ _____ _____    ______ ____
ROOT
ATOM      1  C   UNL     1      -1.367   1.920  -0.492  0.00  0.00    +0.061 C 
ATOM      2  C   UNL     1      -0.033   1.270  -0.234  0.00  0.00    +0.016 C 
ATOM      3  C   UNL     1       0.029  -0.049   0.019  0.00  0.00    +0.065 C 
ATOM      4  C   UNL     1       1.342  -0.733   0.268  0.00  0.00    +0.092 C 
ATOM      5  C   UNL     1       2.416   0.267   0.616  0.00  0.00    +0.024 C 
ATOM      6  C   UNL     1       2.256   1.577   0.332  0.00  0.00    +0.016 C 
ATOM      7  N   UNL     1       1.107   2.024  -0.265  0.00  0.00    -0.321 N 
ATOM      8  C   UNL     1       3.331   2.581   0.666  0.00  0.00    +0.059 C 
ATOM      9  C   UNL     1       4.094   2.122   1.911  0.00  0.00    +0.032 C 
ATOM     10  C   UNL     1       4.690   0.739   1.633  0.00  0.00    +0.088 C 
ATOM     11  C   UNL     1       3.583  -0.202   1.243  0.00  0.00    +0.162 C 
ATOM     12  O   UNL     1       3.700  -1.389   1.475  0.00  0.00    -0.292 OA
ATOM     13  H   UNL     1       1.108   2.999  -0.772  0.00  0.00    +0.152 HD
ENDROOT
BRANCH   4  14
ATOM     14  C   UNL     1       1.750  -1.484  -0.973  0.00  0.00    -0.034 A 
ATOM     15  C   UNL     1       1.937  -0.805  -2.163  0.00  0.00    +0.004 A 
ATOM     16  C   UNL     1       2.317  -1.493  -3.300  0.00  0.00    +0.002 A 
ATOM     17  C   UNL     1       2.500  -2.862  -3.251  0.00  0.00    +0.020 A 
ATOM     18  C   UNL     1       2.308  -3.543  -2.062  0.00  0.00    +0.041 A 
ATOM     19  C   UNL     1       1.933  -2.853  -0.923  0.00  0.00    +0.024 A 
ATOM     20 CL   UNL     1       2.537  -5.263  -2.000  0.00  0.00    -0.084 Cl
ENDBRANCH   4  14
BRANCH   9  21
ATOM     21  C   UNL     1       5.200   3.099   2.215  0.00  0.00    -0.040 A 
ATOM     22  C   UNL     1       6.183   3.344   1.274  0.00  0.00    +0.008 A 
ATOM     23  C   UNL     1       7.200   4.239   1.548  0.00  0.00    +0.049 A 
ATOM     24  C   UNL     1       7.237   4.893   2.769  0.00  0.00    +0.161 A 
ATOM     25  C   UNL     1       6.248   4.646   3.717  0.00  0.00    +0.162 A 
ATOM     26  C   UNL     1       5.228   3.752   3.433  0.00  0.00    +0.053 A 
BRANCH  25  27
ATOM     27  O   UNL     1       6.280   5.286   4.917  0.00  0.00    -0.491 OA
ATOM     28  C   UNL     1       5.232   4.984   5.841  0.00  0.00    +0.277 C 
ENDBRANCH  25  27
BRANCH  24  29
ATOM     29  O   UNL     1       8.237   5.773   3.041  0.00  0.00    -0.491 OA
ATOM     30  C   UNL     1       9.217   5.976   2.021  0.00  0.00    +0.277 C 
ENDBRANCH  24  29
ENDBRANCH   9  21
BRANCH   3  31
ATOM     31  C   UNL     1      -1.165  -0.806   0.053  0.00  0.00    +0.338 C 
ATOM     32  O   UNL     1      -2.243  -0.246  -0.024  0.00  0.00    -0.245 OA
BRANCH  31  33
ATOM     33  O   UNL     1      -1.109  -2.149   0.170  0.00  0.00    -0.459 OA
BRANCH  33  34
ATOM     34  C   UNL     1      -2.354  -2.850   0.197  0.00  0.00    +0.260 C 
BRANCH  34  35
ATOM     35  C   UNL     1      -2.091  -4.351   0.334  0.00  0.00    +0.200 C 
BRANCH  35  36
ATOM     36  O   UNL     1      -1.481  -4.615   1.599  0.00  0.00    -0.380 OA
ATOM     37  C   UNL     1      -1.192  -5.996   1.828  0.00  0.00    +0.194 C 
ENDBRANCH  35  36
ENDBRANCH  34  35
ENDBRANCH  33  34
ENDBRANCH  31  33
ENDBRANCH   3  31
TORSDOF 9
