REMARK  Name = ZINC08766277
REMARK  6 active torsions:
REMARK  status: ('A' for Active; 'I' for Inactive)
REMARK    1  A    between atoms: C_1  and  C_2
REMARK    2  A    between atoms: N_13  and  C_16
REMARK    3  A    between atoms: C_16  and  C_17
REMARK    4  A    between atoms: N_19  and  N_20
REMARK    5  A    between atoms: C_21  and  C_22
REMARK    6  A    between atoms: N_24  and  C_31
REMARK                            x       y       z     vdW  Elec       q    Type
REMARK                         _______ _______ _______ _____ _____    ______ ____
ROOT
ATOM      1  C   UNL     1       2.412   1.197  -0.013  0.00  0.00    +0.223 C 
ENDROOT
BRANCH   1  13
ATOM      2  C   UNL     1      -6.736   0.079   0.131  0.00  0.00    +0.008 C 
ATOM      3  C   UNL     1      -5.291   0.496   0.414  0.00  0.00    -0.009 C 
ATOM      4  C   UNL     1      -4.336  -0.351  -0.432  0.00  0.00    +0.008 C 
ATOM      5  C   UNL     1      -2.894  -0.118   0.020  0.00  0.00    +0.037 C 
ATOM      6  C   UNL     1      -2.616   1.383   0.024  0.00  0.00    -0.023 A 
ATOM      7  C   UNL     1      -3.631   2.272   0.033  0.00  0.00    -0.004 A 
ATOM      8  S   UNL     1      -2.849   3.863   0.045  0.00  0.00    -0.073 S 
ATOM      9  C   UNL     1      -1.157   3.327   0.028  0.00  0.00    +0.116 A 
ATOM     10  C   UNL     1      -1.259   1.927   0.018  0.00  0.00    +0.076 A 
ATOM     11  C   UNL     1      -0.015   1.215   0.009  0.00  0.00    +0.263 A 
ATOM     12  O   UNL     1       0.002  -0.004   0.002  0.00  0.00    -0.267 OA
ATOM     13  N   UNL     1       1.135   1.915   0.002  0.00  0.00    -0.290 N 
ATOM     14  C   UNL     1       1.136   3.273   0.008  0.00  0.00    +0.203 A 
ATOM     15  N   UNL     1       0.018   3.949   0.020  0.00  0.00    -0.230 NA
ATOM     16  C   UNL     1      -5.100   1.974   0.041  0.00  0.00    +0.046 C 
ENDBRANCH   1  13
BRANCH   1  17
ATOM     17  C   UNL     1       2.837   0.957  -1.439  0.00  0.00    +0.252 C 
ATOM     18  O   UNL     1       2.142   1.347  -2.353  0.00  0.00    -0.272 OA
ATOM     19  N   UNL     1       3.990   0.309  -1.698  0.00  0.00    -0.206 N 
ATOM     20  H   UNL     1       4.546  -0.003  -0.967  0.00  0.00    +0.177 HD
BRANCH  19  21
ATOM     21  N   UNL     1       4.386   0.086  -3.024  0.00  0.00    -0.188 NA
ATOM     22  C   UNL     1       5.497  -0.539  -3.274  0.00  0.00    +0.140 C 
BRANCH  22  23
ATOM     23  C   UNL     1       5.912  -0.773  -4.666  0.00  0.00    +0.020 A 
ATOM     24  C   UNL     1       7.041  -1.409  -5.082  0.00  0.00    +0.096 A 
ATOM     25  N   UNL     1       7.080  -1.431  -6.444  0.00  0.00    -0.349 N 
ATOM     26  C   UNL     1       5.967  -0.805  -6.964  0.00  0.00    +0.049 A 
ATOM     27  C   UNL     1       5.183  -0.371  -5.882  0.00  0.00    +0.008 A 
ATOM     28  C   UNL     1       3.989   0.308  -6.113  0.00  0.00    +0.010 A 
ATOM     29  C   UNL     1       3.576   0.540  -7.407  0.00  0.00    +0.001 A 
ATOM     30  C   UNL     1       4.345   0.106  -8.477  0.00  0.00    +0.002 A 
ATOM     31  C   UNL     1       5.532  -0.561  -8.263  0.00  0.00    +0.026 A 
ATOM     32  C   UNL     1       8.151  -2.034  -7.241  0.00  0.00    +0.149 C 
ENDBRANCH  22  23
ENDBRANCH  19  21
ENDBRANCH   1  17
TORSDOF 4
