REMARK  Name = ZINC63213323
REMARK  5 active torsions:
REMARK  status: ('A' for Active; 'I' for Inactive)
REMARK    1  A    between atoms: C_1  and  C_2
REMARK    2  A    between atoms: C_3  and  S_9
REMARK    3  A    between atoms: S_9  and  N_12
REMARK    4  A    between atoms: N_12  and  C_13
REMARK    5  A    between atoms: C_20  and  N_22
REMARK                            x       y       z     vdW  Elec       q    Type
REMARK                         _______ _______ _______ _____ _____    ______ ____
ROOT
ATOM      1  N   UNL     1      -3.443  -0.496  -1.469  0.00  0.00    -0.188 NA
ATOM      2  H   UNL     1      -3.712   0.224  -2.060  0.00  0.00    +0.148 HD
ENDROOT
BRANCH   1   3
ATOM      3  C   UNL     1      -3.606  -1.890  -1.890  0.00  0.00    +0.062 C 
ATOM      4  C   UNL     1      -2.364  -2.317  -2.695  0.00  0.00    +0.019 C 
ATOM      5  C   UNL     1      -2.604  -3.585  -3.537  0.00  0.00    +0.001 C 
ATOM      6  C   UNL     1      -3.389  -4.630  -2.792  0.00  0.00    -0.000 C 
ATOM      7  C   UNL     1      -4.882  -4.463  -3.140  0.00  0.00    -0.002 C 
ATOM      8  C   UNL     1      -5.511  -3.388  -2.387  0.00  0.00    -0.015 C 
ATOM      9  C   UNL     1      -4.877  -2.012  -2.686  0.00  0.00    -0.056 C 
BRANCH   9  10
ATOM     10  N   UNL     1      -5.808  -0.945  -2.297  0.00  0.00    +0.381 N 
ATOM     11  H   UNL     1      -5.385  -0.047  -2.477  0.00  0.00    -0.090 HD
ATOM     12  H   UNL     1      -6.659  -1.029  -2.833  0.00  0.00    -0.090 HD
ATOM     13  H   UNL     1      -6.020  -1.026  -1.314  0.00  0.00    -0.090 HD
ENDBRANCH   9  10
ENDBRANCH   1   3
BRANCH   1  14
ATOM     14  S   UNL     1      -2.797  -0.150   0.016  0.00  0.00    +0.067 S 
ATOM     15  O   UNL     1      -3.492  -0.955   0.959  0.00  0.00    -0.152 OA
ATOM     16  O   UNL     1      -2.745   1.266   0.116  0.00  0.00    -0.152 OA
BRANCH  14  19
ATOM     17  C   UNL     1      -0.018   1.503   0.010  0.00  0.00    +0.066 C 
ATOM     18  C   UNL     1       0.002  -0.004   0.002  0.00  0.00    +0.050 A 
ATOM     19  C   UNL     1      -1.129  -0.716   0.004  0.00  0.00    +0.166 A 
ATOM     20  S   UNL     1      -0.508  -2.388  -0.008  0.00  0.00    -0.007 S 
ATOM     21  C   UNL     1       1.138  -2.048  -0.015  0.00  0.00    +0.290 A 
ATOM     22  O   UNL     1       2.072  -2.830  -0.024  0.00  0.00    -0.260 OA
ATOM     23  N   UNL     1       1.176  -0.699  -0.013  0.00  0.00    -0.318 N 
ATOM     24  H   UNL     1       2.025  -0.230  -0.020  0.00  0.00    +0.169 HD
ENDBRANCH  14  19
ENDBRANCH   1  14
TORSDOF 4
