REMARK  Name = ZINC09060283
REMARK  7 active torsions:
REMARK  status: ('A' for Active; 'I' for Inactive)
REMARK    1  A    between atoms: C_1  and  C_2
REMARK    2  A    between atoms: C_3  and  C_4
REMARK    3  A    between atoms: C_4  and  N_5
REMARK    4  A    between atoms: C_14  and  C_23
REMARK    5  A    between atoms: N_15  and  C_16
REMARK    6  A    between atoms: C_21  and  N_22
REMARK    7  A    between atoms: N_24  and  C_27
REMARK                            x       y       z     vdW  Elec       q    Type
REMARK                         _______ _______ _______ _____ _____    ______ ____
ROOT
ATOM      1  N   UNL     1      -6.509  -1.410   3.305  0.00  0.00    -0.255 N 
ATOM      2  C   UNL     1      -6.110  -1.162   2.041  0.00  0.00    +0.283 A 
ATOM      3  O   UNL     1      -6.777  -1.549   1.097  0.00  0.00    -0.265 OA
ATOM      4  C   UNL     1      -4.917  -0.453   1.823  0.00  0.00    +0.157 A 
ATOM      5  C   UNL     1      -4.172  -0.021   2.920  0.00  0.00    +0.170 A 
ATOM      6  N   UNL     1      -3.102   0.617   2.453  0.00  0.00    -0.193 NA
ATOM      7  C   UNL     1      -3.118   0.619   1.129  0.00  0.00    +0.223 A 
ATOM      8  N   UNL     1      -4.228  -0.035   0.694  0.00  0.00    -0.277 N 
ATOM      9  C   UNL     1      -4.222  -0.020  -0.689  0.00  0.00    +0.116 A 
ATOM     10  C   UNL     1      -3.138   0.633  -1.097  0.00  0.00    +0.041 A 
ATOM     11  N   UNL     1      -2.429   1.037   0.019  0.00  0.00    -0.281 N 
ATOM     12  C   UNL     1      -2.746   0.885  -2.530  0.00  0.00    +0.065 C 
ATOM     13  N   UNL     1      -4.636  -0.307   4.195  0.00  0.00    -0.279 N 
ATOM     14  C   UNL     1      -5.785  -0.990   4.357  0.00  0.00    +0.334 A 
ATOM     15  O   UNL     1      -6.178  -1.233   5.482  0.00  0.00    -0.246 OA
ATOM     16  C   UNL     1      -3.876   0.133   5.367  0.00  0.00    +0.155 C 
ENDROOT
BRANCH  11  17
ATOM     17  C   UNL     1      -1.223   1.753   0.017  0.00  0.00    +0.070 A 
ATOM     18  C   UNL     1      -0.013   1.076   0.008  0.00  0.00    +0.028 A 
ATOM     19  C   UNL     1       1.175   1.783   0.000  0.00  0.00    +0.002 A 
ATOM     20  C   UNL     1       1.161   3.166   0.007  0.00  0.00    +0.002 A 
ATOM     21  C   UNL     1      -0.040   3.849   0.023  0.00  0.00    +0.025 A 
ATOM     22  C   UNL     1      -1.237   3.147   0.031  0.00  0.00    +0.049 A 
BRANCH  22  23
ATOM     23  N   UNL     1      -2.454   3.836   0.046  0.00  0.00    -0.356 N 
ATOM     24  H   UNL     1      -2.462   4.806   0.051  0.00  0.00    +0.142 HD
ATOM     25  H   UNL     1      -3.290   3.344   0.052  0.00  0.00    +0.142 HD
ENDBRANCH  22  23
ENDBRANCH  11  17
BRANCH   1  26
ATOM     26  C   UNL     1      -7.753  -2.149   3.535  0.00  0.00    +0.157 C 
BRANCH  26  29
ATOM     27  C   UNL     1     -11.094  -0.355   2.930  0.00  0.00    +0.035 C 
ATOM     28  C   UNL     1      -9.944  -1.324   2.841  0.00  0.00    -0.033 C 
ATOM     29  C   UNL     1      -8.904  -1.180   3.625  0.00  0.00    -0.010 C 
ENDBRANCH  26  29
ENDBRANCH   1  26
TORSDOF 4
