REMARK  Name = ZINC58004888
REMARK  8 active torsions:
REMARK  status: ('A' for Active; 'I' for Inactive)
REMARK    1  A    between atoms: C_1  and  C_2
REMARK    2  A    between atoms: C_2  and  C_3
REMARK    3  A    between atoms: C_3  and  C_23
REMARK    4  A    between atoms: N_5  and  C_14
REMARK    5  A    between atoms: C_7  and  N_13
REMARK    6  A    between atoms: C_14  and  C_16
REMARK    7  A    between atoms: C_14  and  C_17
REMARK    8  A    between atoms: C_23  and  C_24
REMARK                            x       y       z     vdW  Elec       q    Type
REMARK                         _______ _______ _______ _____ _____    ______ ____
ROOT
ATOM      1  C   UNL     1      -1.208  -0.926   0.225  0.00  0.00    +0.126 C 
ATOM      2  C   UNL     1      -1.200  -2.459   0.307  0.00  0.00    +0.153 C 
ATOM      3  N   UNL     1      -2.601  -2.913   0.287  0.00  0.00    -0.315 N 
ATOM      4  C   UNL     1      -3.481  -2.277  -0.609  0.00  0.00    +0.093 A 
ATOM      5  C   UNL     1      -4.724  -2.838  -0.882  0.00  0.00    +0.050 A 
ATOM      6  C   UNL     1      -5.589  -2.204  -1.764  0.00  0.00    +0.025 A 
ATOM      7  C   UNL     1      -5.212  -1.018  -2.367  0.00  0.00    +0.005 A 
ATOM      8  C   UNL     1      -3.977  -0.460  -2.098  0.00  0.00    +0.048 A 
ATOM      9  C   UNL     1      -3.104  -1.087  -1.219  0.00  0.00    +0.144 A 
ATOM     10  O   UNL     1      -1.888  -0.532  -0.969  0.00  0.00    -0.482 OA
ENDROOT
BRANCH   5  11
ATOM     11  N   UNL     1      -5.103  -4.040  -0.270  0.00  0.00    -0.356 N 
ATOM     12  H   UNL     1      -5.985  -4.127   0.124  0.00  0.00    +0.142 HD
ATOM     13  H   UNL     1      -4.482  -4.785  -0.239  0.00  0.00    +0.142 HD
ENDBRANCH   5  11
BRANCH   1  15
ATOM     14  C   UNL     1       0.961  -1.005  -1.014  0.00  0.00    +0.008 C 
ATOM     15  C   UNL     1       0.231  -0.407   0.190  0.00  0.00    +0.046 C 
ENDBRANCH   1  15
BRANCH   3  16
ATOM     16  C   UNL     1      -3.062  -3.988   1.168  0.00  0.00    +0.101 C 
ATOM     17  C   UNL     1      -2.648  -3.680   2.608  0.00  0.00    +0.033 C 
BRANCH  16  18
ATOM     18  C   UNL     1      -2.443  -5.293   0.735  0.00  0.00    -0.027 A 
ATOM     19  C   UNL     1      -1.091  -5.357   0.456  0.00  0.00    +0.005 A 
ATOM     20  C   UNL     1      -0.523  -6.553   0.059  0.00  0.00    +0.000 A 
ATOM     21  C   UNL     1      -1.308  -7.685  -0.058  0.00  0.00    +0.000 A 
ATOM     22  C   UNL     1      -2.660  -7.621   0.222  0.00  0.00    +0.000 A 
ATOM     23  C   UNL     1      -3.227  -6.426   0.623  0.00  0.00    +0.005 A 
ENDBRANCH  16  18
ENDBRANCH   3  16
BRANCH   1  24
ATOM     24  C   UNL     1      -1.932  -0.348   1.442  0.00  0.00    +0.046 C 
ATOM     25  C   UNL     1      -1.970   1.178   1.337  0.00  0.00    +0.008 C 
ENDBRANCH   1  24
TORSDOF 5
