REMARK  Name = ZINC54805227
REMARK  9 active torsions:
REMARK  status: ('A' for Active; 'I' for Inactive)
REMARK    1  A    between atoms: C_1  and  C_2
REMARK    2  A    between atoms: N_7  and  C_9
REMARK    3  A    between atoms: C_9  and  C_10
REMARK    4  A    between atoms: C_9  and  C_11
REMARK    5  A    between atoms: C_9  and  C_12
REMARK    6  A    between atoms: C_12  and  N_13
REMARK    7  A    between atoms: N_16  and  N_17
REMARK    8  A    between atoms: C_18  and  C_20
REMARK    9  A    between atoms: N_22  and  C_29
REMARK                            x       y       z     vdW  Elec       q    Type
REMARK                         _______ _______ _______ _____ _____    ______ ____
ROOT
ATOM      1  N   UNL     1       2.234  -4.377   1.177  0.00  0.00    -0.300 N 
ATOM      2  C   UNL     1       2.304  -5.671   0.808  0.00  0.00    +0.316 C 
ATOM      3  O   UNL     1       1.695  -6.516   1.435  0.00  0.00    -0.251 OA
ATOM      4  N   UNL     1       3.050  -6.029  -0.256  0.00  0.00    -0.218 N 
ATOM      5  H   UNL     1       2.720  -3.702   0.677  0.00  0.00    +0.150 HD
ATOM      6  H   UNL     1       3.101  -6.960  -0.522  0.00  0.00    +0.174 HD
ENDROOT
BRANCH   4   7
ATOM      7  N   UNL     1       3.752  -5.055  -0.979  0.00  0.00    -0.229 N 
ATOM      8  C   UNL     1       4.497  -5.412  -2.043  0.00  0.00    +0.262 C 
ATOM      9  O   UNL     1       4.561  -6.581  -2.376  0.00  0.00    -0.269 OA
ATOM     10  H   UNL     1       3.701  -4.123  -0.713  0.00  0.00    +0.173 HD
BRANCH   8  11
ATOM     11  C   UNL     1       5.233  -4.391  -2.800  0.00  0.00    +0.063 A 
ATOM     12  C   UNL     1       5.265  -3.052  -2.547  0.00  0.00    +0.099 A 
ATOM     13  N   UNL     1       6.051  -2.431  -3.460  0.00  0.00    -0.349 N 
ATOM     14  C   UNL     1       6.568  -3.347  -4.353  0.00  0.00    +0.050 A 
ATOM     15  C   UNL     1       6.088  -4.614  -3.981  0.00  0.00    +0.012 A 
ATOM     16  C   UNL     1       6.457  -5.741  -4.710  0.00  0.00    +0.011 A 
ATOM     17  C   UNL     1       7.296  -5.608  -5.795  0.00  0.00    +0.001 A 
ATOM     18  C   UNL     1       7.773  -4.358  -6.161  0.00  0.00    +0.002 A 
ATOM     19  C   UNL     1       7.410  -3.233  -5.453  0.00  0.00    +0.026 A 
ATOM     20  C   UNL     1       6.314  -0.990  -3.494  0.00  0.00    +0.149 C 
ENDBRANCH   8  11
ENDBRANCH   4   7
BRANCH   1  21
ATOM     21  C   UNL     1       1.423  -3.988   2.334  0.00  0.00    +0.093 C 
BRANCH  21  22
ATOM     22  C   UNL     1       1.615  -2.496   2.613  0.00  0.00    -0.055 C 
ATOM     23  C   UNL     1       0.834  -2.107   3.870  0.00  0.00    -0.008 C 
ATOM     24  C   UNL     1       1.102  -1.684   1.422  0.00  0.00    -0.008 C 
BRANCH  22  30
ATOM     25  C   UNL     1       4.900   1.012   3.547  0.00  0.00    +0.005 C 
ATOM     26  C   UNL     1       4.715  -0.476   3.242  0.00  0.00    -0.031 C 
ATOM     27  C   UNL     1       5.305  -1.309   4.384  0.00  0.00    -0.001 C 
ATOM     28  C   UNL     1       5.045  -2.793   4.107  0.00  0.00    -0.018 C 
ATOM     29  C   UNL     1       3.541  -3.019   3.941  0.00  0.00    -0.078 C 
ATOM     30  N   UNL     1       3.043  -2.216   2.818  0.00  0.00    +0.384 N 
ATOM     31  C   UNL     1       3.223  -0.788   3.107  0.00  0.00    -0.075 C 
ATOM     32  H   UNL     1       3.554  -2.455   1.981  0.00  0.00    -0.081 HD
ENDBRANCH  22  30
ENDBRANCH  21  22
ENDBRANCH   1  21
TORSDOF 5
