REMARK  Name = ZINC38551179
REMARK  5 active torsions:
REMARK  status: ('A' for Active; 'I' for Inactive)
REMARK    1  A    between atoms: C_4  and  C_7
REMARK    2  A    between atoms: C_7  and  C_8
REMARK    3  A    between atoms: N_16  and  C_17
REMARK    4  A    between atoms: C_17  and  C_18
REMARK    5  A    between atoms: C_17  and  C_24
REMARK                            x       y       z     vdW  Elec       q    Type
REMARK                         _______ _______ _______ _____ _____    ______ ____
ROOT
ATOM      1  C   UNL     1       4.164  -0.959   1.377  0.00  0.00    +0.223 A 
ATOM      2  N   UNL     1       3.888  -2.007   2.098  0.00  0.00    -0.111 NA
ATOM      3  N   UNL     1       4.438  -1.890   3.255  0.00  0.00    -0.092 NA
ATOM      4  C   UNL     1       5.089  -0.755   3.313  0.00  0.00    +0.315 A 
ATOM      5  O   UNL     1       4.934  -0.144   2.124  0.00  0.00    -0.409 OA
ATOM      6  N   UNL     1       5.808  -0.274   4.397  0.00  0.00    -0.222 N 
ATOM      7  C   UNL     1       5.883  -0.998   5.531  0.00  0.00    +0.308 C 
ATOM      8  O   UNL     1       5.321  -2.073   5.604  0.00  0.00    -0.252 OA
ATOM      9  N   UNL     1       6.582  -0.530   6.584  0.00  0.00    -0.288 N 
ATOM     10  H   UNL     1       6.258   0.584   4.339  0.00  0.00    +0.161 HD
ATOM     11  H   UNL     1       7.032   0.327   6.526  0.00  0.00    +0.151 HD
ENDROOT
BRANCH   1  12
ATOM     12  C   UNL     1       3.711  -0.707  -0.038  0.00  0.00    +0.132 C 
BRANCH  12  16
ATOM     13  C   UNL     1      -0.017   1.378   0.010  0.00  0.00    +0.000 A 
ATOM     14  C   UNL     1       1.171   2.086   0.002  0.00  0.00    +0.000 A 
ATOM     15  C   UNL     1       2.377   1.411  -0.013  0.00  0.00    +0.004 A 
ATOM     16  C   UNL     1       2.396   0.029  -0.020  0.00  0.00    -0.038 A 
ATOM     17  C   UNL     1       1.208  -0.679  -0.012  0.00  0.00    +0.004 A 
ATOM     18  C   UNL     1       0.002  -0.004   0.002  0.00  0.00    +0.000 A 
ENDBRANCH  12  16
ENDBRANCH   1  12
BRANCH   9  19
ATOM     19  C   UNL     1       6.664  -1.318   7.817  0.00  0.00    +0.135 C 
BRANCH  19  20
ATOM     20  C   UNL     1       7.785  -2.318   7.701  0.00  0.00    -0.023 A 
ATOM     21  C   UNL     1       8.978  -1.953   7.106  0.00  0.00    +0.006 A 
ATOM     22  C   UNL     1      10.007  -2.870   6.999  0.00  0.00    +0.000 A 
ATOM     23  C   UNL     1       9.842  -4.153   7.489  0.00  0.00    +0.000 A 
ATOM     24  C   UNL     1       8.650  -4.518   8.085  0.00  0.00    +0.000 A 
ATOM     25  C   UNL     1       7.623  -3.599   8.195  0.00  0.00    +0.006 A 
ENDBRANCH  19  20
BRANCH  19  26
ATOM     26  C   UNL     1       6.928  -0.400   8.983  0.00  0.00    -0.023 A 
ATOM     27  C   UNL     1       7.806   0.659   8.843  0.00  0.00    +0.006 A 
ATOM     28  C   UNL     1       8.048   1.501   9.912  0.00  0.00    +0.000 A 
ATOM     29  C   UNL     1       7.413   1.284  11.121  0.00  0.00    +0.000 A 
ATOM     30  C   UNL     1       6.535   0.226  11.260  0.00  0.00    +0.000 A 
ATOM     31  C   UNL     1       6.289  -0.614  10.190  0.00  0.00    +0.006 A 
ENDBRANCH  19  26
ENDBRANCH   9  19
TORSDOF 5
