REMARK  Name = ZINC06204118
REMARK  8 active torsions:
REMARK  status: ('A' for Active; 'I' for Inactive)
REMARK    1  A    between atoms: C_1  and  C_2
REMARK    2  A    between atoms: C_2  and  C_3
REMARK    3  A    between atoms: C_3  and  C_4
REMARK    4  A    between atoms: C_4  and  C_5
REMARK    5  A    between atoms: C_5  and  C_7
REMARK    6  A    between atoms: C_5  and  C_9
REMARK    7  A    between atoms: C_7  and  C_8
REMARK    8  A    between atoms: C_15  and  C_17
REMARK                            x       y       z     vdW  Elec       q    Type
REMARK                         _______ _______ _______ _____ _____    ______ ____
ROOT
ATOM      1  C   UNL     1      -1.482   5.436   2.618  0.00  0.00    +0.220 C 
ATOM      2  O   UNL     1      -0.967   6.069   1.721  0.00  0.00    -0.275 OA
ATOM      3  N   UNL     1      -2.081   6.079   3.640  0.00  0.00    -0.282 N 
ATOM      4  C   UNL     1      -2.719   5.359   4.739  0.00  0.00    +0.120 C 
ATOM      5  C   UNL     1      -2.611   6.172   6.066  0.00  0.00    +0.090 C 
ATOM      6  S   UNL     1      -2.883   7.862   5.367  0.00  0.00    -0.129 S 
ATOM      7  C   UNL     1      -2.136   7.551   3.711  0.00  0.00    +0.200 C 
ENDROOT
BRANCH   7   8
ATOM      8  C   UNL     1      -3.013   8.105   2.618  0.00  0.00    +0.135 A 
ATOM      9  C   UNL     1      -2.872   9.305   2.028  0.00  0.00    +0.047 A 
ATOM     10  C   UNL     1      -3.901   9.412   1.065  0.00  0.00    +0.041 A 
ATOM     11  C   UNL     1      -4.615   8.273   1.129  0.00  0.00    +0.195 A 
ATOM     12  O   UNL     1      -4.073   7.485   2.072  0.00  0.00    -0.465 OA
ENDBRANCH   7   8
BRANCH   1  13
ATOM     13  C   UNL     1      -1.451   3.929   2.590  0.00  0.00    +0.075 C 
BRANCH  13  14
ATOM     14  C   UNL     1      -2.883   3.390   2.578  0.00  0.00    +0.009 C 
ATOM     15  C   UNL     1      -2.855   1.865   2.690  0.00  0.00    +0.004 C 
ENDBRANCH  13  14
BRANCH  13  16
ATOM     16  C   UNL     1      -0.718   3.457   1.334  0.00  0.00    +0.013 C 
BRANCH  16  17
ATOM     17  C   UNL     1       0.756   3.857   1.423  0.00  0.00    +0.000 C 
BRANCH  17  19
ATOM     18  C   UNL     1       2.990   3.675   0.319  0.00  0.00    +0.004 C 
ATOM     19  C   UNL     1       1.516   3.275   0.230  0.00  0.00    -0.003 C 
ENDBRANCH  17  19
ENDBRANCH  16  17
ENDBRANCH  13  16
ENDBRANCH   1  13
TORSDOF 6
