REMARK  Name = ZINC22053752
REMARK  15 active torsions:
REMARK  status: ('A' for Active; 'I' for Inactive)
REMARK    1  A    between atoms: C_1  and  C_2
REMARK    2  A    between atoms: C_2  and  C_3
REMARK    3  A    between atoms: C_2  and  C_4
REMARK    4  A    between atoms: C_5  and  C_18
REMARK    5  A    between atoms: C_6  and  C_11
REMARK    6  A    between atoms: C_19  and  C_20
REMARK    7  A    between atoms: C_23  and  C_30
REMARK    8  A    between atoms: C_26  and  C_28
REMARK    9  A    between atoms: C_26  and  C_29
REMARK   10  A    between atoms: C_30  and  C_31
REMARK   11  A    between atoms: C_31  and  O_33
REMARK   12  A    between atoms: O_33  and  C_34
REMARK   13  A    between atoms: C_34  and  C_35
REMARK   14  A    between atoms: C_34  and  C_36
REMARK   15  A    between atoms: C_34  and  C_37
REMARK                            x       y       z     vdW  Elec       q    Type
REMARK                         _______ _______ _______ _____ _____    ______ ____
ROOT
ATOM      1  C   UNL     1      -1.617  -2.877  -1.344  0.00  0.00    +0.057 A 
ATOM      2  C   UNL     1      -0.465  -2.144  -1.047  0.00  0.00    +0.022 A 
ATOM      3  C   UNL     1       0.717  -2.854  -0.749  0.00  0.00    +0.083 A 
ATOM      4  N   UNL     1       0.687  -4.184  -0.768  0.00  0.00    -0.214 NA
ATOM      5  C   UNL     1      -0.429  -4.832  -1.062  0.00  0.00    +0.213 A 
ATOM      6  N   UNL     1      -1.558  -4.197  -1.347  0.00  0.00    -0.219 NA
ATOM      7  N   UNL     1      -0.418  -6.216  -1.072  0.00  0.00    -0.327 N 
ATOM      8  H   UNL     1      -1.336  -6.771  -1.314  0.00  0.00    +0.145 HD
ATOM      9  H   UNL     1       0.509  -6.760  -0.839  0.00  0.00    +0.145 HD
ENDROOT
BRANCH   3  10
ATOM     10  C   UNL     1       1.967  -2.133  -0.420  0.00  0.00    +0.001 A 
ATOM     11  C   UNL     1       2.266  -0.926  -1.053  0.00  0.00    +0.013 A 
ATOM     12  C   UNL     1       3.429  -0.255  -0.740  0.00  0.00    +0.039 A 
ATOM     13  C   UNL     1       4.307  -0.784   0.194  0.00  0.00    +0.123 A 
ATOM     14  C   UNL     1       4.018  -1.986   0.820  0.00  0.00    +0.039 A 
ATOM     15  C   UNL     1       2.854  -2.661   0.518  0.00  0.00    +0.013 A 
ATOM     16  F   UNL     1       5.448  -0.126   0.493  0.00  0.00    -0.205 F 
ENDBRANCH   3  10
BRANCH   1  18
ATOM     17  C   UNL     1      -3.367  -2.557  -3.072  0.00  0.00    +0.014 C 
ATOM     18  C   UNL     1      -2.909  -2.170  -1.664  0.00  0.00    +0.032 C 
ATOM     19  C   UNL     1      -3.979  -2.579  -0.650  0.00  0.00    +0.014 C 
ENDBRANCH   1  18
BRANCH   2  20
ATOM     20  C   UNL     1      -0.484  -0.668  -1.038  0.00  0.00    +0.010 C 
ATOM     21  C   UNL     1       0.002  -0.004   0.002  0.00  0.00    +0.005 C 
BRANCH  21  22
ATOM     22  C   UNL     1      -0.018   1.503   0.010  0.00  0.00    +0.147 C 
ATOM     23  C   UNL     1      -0.740   1.999   1.268  0.00  0.00    +0.068 C 
ATOM     24  C   UNL     1      -0.878   3.524   1.190  0.00  0.00    +0.135 C 
ATOM     25  O   UNL     1      -1.520   3.871  -0.041  0.00  0.00    -0.345 OA
ATOM     26  C   UNL     1      -0.831   3.403  -1.203  0.00  0.00    +0.166 C 
ATOM     27  O   UNL     1      -0.714   1.979  -1.146  0.00  0.00    -0.342 OA
ATOM     28  C   UNL     1       0.566   4.027  -1.254  0.00  0.00    +0.074 C 
ATOM     29  C   UNL     1      -1.613   3.801  -2.456  0.00  0.00    +0.074 C 
BRANCH  24  30
ATOM     30  C   UNL     1      -1.721   4.023   2.365  0.00  0.00    +0.152 C 
BRANCH  30  31
ATOM     31  C   UNL     1      -1.763   5.529   2.350  0.00  0.00    +0.310 C 
ATOM     32  O   UNL     1      -1.178   6.141   1.487  0.00  0.00    -0.251 OA
BRANCH  31  33
ATOM     33  O   UNL     1      -2.449   6.191   3.294  0.00  0.00    -0.459 OA
BRANCH  33  34
ATOM     34  C   UNL     1      -2.445   7.641   3.217  0.00  0.00    +0.105 C 
ATOM     35  C   UNL     1      -3.051   8.083   1.884  0.00  0.00    +0.055 C 
ATOM     36  C   UNL     1      -3.273   8.215   4.369  0.00  0.00    +0.055 C 
ATOM     37  C   UNL     1      -1.007   8.154   3.319  0.00  0.00    +0.055 C 
ENDBRANCH  33  34
ENDBRANCH  31  33
ENDBRANCH  30  31
ENDBRANCH  24  30
ENDBRANCH  21  22
ENDBRANCH   2  20
TORSDOF 8
