REMARK  Name = ZINC08622969
REMARK  12 active torsions:
REMARK  status: ('A' for Active; 'I' for Inactive)
REMARK    1  A    between atoms: C_1  and  C_2
REMARK    2  A    between atoms: C_4  and  C_26
REMARK    3  A    between atoms: C_6  and  C_8
REMARK    4  A    between atoms: C_16  and  C_18
REMARK    5  A    between atoms: C_18  and  N_19
REMARK    6  A    between atoms: N_22  and  C_23
REMARK    7  A    between atoms: C_23  and  C_24
REMARK    8  A    between atoms: C_23  and  C_25
REMARK    9  A    between atoms: C_29  and  O_34
REMARK   10  A    between atoms: C_30  and  O_32
REMARK   11  A    between atoms: O_32  and  C_33
REMARK   12  A    between atoms: O_34  and  C_35
REMARK                            x       y       z     vdW  Elec       q    Type
REMARK                         _______ _______ _______ _____ _____    ______ ____
ROOT
ATOM      1  C   UNL     1      -0.498   1.586   1.123  0.00  0.00    +0.024 C 
ATOM      2  C   UNL     1       0.225   1.090  -0.132  0.00  0.00    -0.068 C 
ATOM      3  C   UNL     1      -0.605   2.966  -1.420  0.00  0.00    -0.078 C 
ATOM      4  C   UNL     1      -1.353   3.516  -0.202  0.00  0.00    -0.015 C 
ATOM      5  C   UNL     1      -1.764   2.343   0.698  0.00  0.00    -0.007 C 
ATOM      6  C   UNL     1      -2.653   1.393  -0.114  0.00  0.00    -0.010 C 
ATOM      7  C   UNL     1      -1.869   0.903  -1.334  0.00  0.00    -0.051 C 
ATOM      8  N   UNL     1      -0.514   1.492  -1.348  0.00  0.00    +0.383 N 
ATOM      9  H   UNL     1      -0.009   1.149  -2.174  0.00  0.00    -0.081 HD
ENDROOT
BRANCH   1  15
ATOM     10  C   UNL     1       0.274  -3.035   2.522  0.00  0.00    +0.088 C 
ATOM     11  C   UNL     1      -0.525  -1.764   2.650  0.00  0.00    +0.127 A 
ATOM     12  N   UNL     1      -1.526  -1.722   3.506  0.00  0.00    -0.232 NA
ATOM     13  C   UNL     1      -2.254  -0.615   3.646  0.00  0.00    +0.075 A 
ATOM     14  C   UNL     1      -1.935   0.505   2.872  0.00  0.00    +0.052 A 
ATOM     15  C   UNL     1      -0.879   0.410   1.984  0.00  0.00    +0.047 A 
ATOM     16  N   UNL     1      -0.204  -0.727   1.903  0.00  0.00    -0.237 NA
BRANCH  13  17
ATOM     17  C   UNL     1      -3.379  -0.570   4.609  0.00  0.00    +0.004 A 
ATOM     18  C   UNL     1      -4.262   0.509   4.602  0.00  0.00    +0.014 A 
ATOM     19  C   UNL     1      -5.308   0.551   5.500  0.00  0.00    +0.050 A 
ATOM     20  C   UNL     1      -5.485  -0.480   6.411  0.00  0.00    +0.162 A 
ATOM     21  C   UNL     1      -4.606  -1.561   6.423  0.00  0.00    +0.162 A 
ATOM     22  C   UNL     1      -3.559  -1.610   5.521  0.00  0.00    +0.059 A 
BRANCH  21  23
ATOM     23  O   UNL     1      -4.781  -2.570   7.317  0.00  0.00    -0.491 OA
ATOM     24  C   UNL     1      -3.842  -3.647   7.273  0.00  0.00    +0.277 C 
ENDBRANCH  21  23
BRANCH  20  25
ATOM     25  O   UNL     1      -6.518  -0.436   7.293  0.00  0.00    -0.491 OA
ATOM     26  C   UNL     1      -7.380   0.702   7.226  0.00  0.00    +0.277 C 
ENDBRANCH  20  25
ENDBRANCH  13  17
ENDBRANCH   1  15
BRANCH   7  27
ATOM     27  C   UNL     1      -1.748  -0.622  -1.285  0.00  0.00    +0.090 C 
BRANCH  27  28
ATOM     28  N   UNL     1      -0.891  -1.079  -2.382  0.00  0.00    -0.301 N 
ATOM     29  C   UNL     1      -0.557  -2.381  -2.478  0.00  0.00    +0.300 C 
ATOM     30  O   UNL     1      -1.040  -3.191  -1.710  0.00  0.00    -0.253 OA
ATOM     31  N   UNL     1       0.311  -2.786  -3.426  0.00  0.00    -0.297 N 
ATOM     32  H   UNL     1      -0.564  -0.445  -3.039  0.00  0.00    +0.150 HD
ATOM     33  H   UNL     1       0.696  -2.140  -4.039  0.00  0.00    +0.150 HD
BRANCH  31  34
ATOM     34  C   UNL     1       0.674  -4.202  -3.531  0.00  0.00    +0.068 C 
ATOM     35  C   UNL     1       1.122  -4.509  -4.961  0.00  0.00    +0.027 C 
ATOM     36  C   UNL     1       1.816  -4.509  -2.561  0.00  0.00    +0.027 C 
ENDBRANCH  31  34
ENDBRANCH  27  28
ENDBRANCH   7  27
TORSDOF 7
