REMARK  Name = ZINC64652833
REMARK  5 active torsions:
REMARK  status: ('A' for Active; 'I' for Inactive)
REMARK    1  A    between atoms: C_7  and  C_10
REMARK    2  A    between atoms: C_10  and  C_11
REMARK    3  A    between atoms: C_11  and  N_12
REMARK    4  A    between atoms: C_13  and  C_15
REMARK    5  A    between atoms: C_15  and  C_16
REMARK                            x       y       z     vdW  Elec       q    Type
REMARK                         _______ _______ _______ _____ _____    ______ ____
ROOT
ATOM      1  N   UNL     1      -0.330  -4.896  -1.466  0.00  0.00    -0.315 N 
ATOM      2  C   UNL     1      -0.693  -5.485  -2.622  0.00  0.00    +0.215 C 
ATOM      3  O   UNL     1      -0.167  -5.153  -3.663  0.00  0.00    -0.276 OA
ATOM      4  H   UNL     1      -0.750  -5.162  -0.633  0.00  0.00    +0.149 HD
ENDROOT
BRANCH   1   5
ATOM      5  C   UNL     1       0.700  -3.854  -1.466  0.00  0.00    +0.108 C 
BRANCH   5   6
ATOM      6  C   UNL     1       0.922  -3.356  -0.037  0.00  0.00    +0.052 C 
BRANCH   6  13
ATOM      7  C   UNL     1       0.697   1.225  -0.197  0.00  0.00    +0.001 A 
ATOM      8  C   UNL     1       1.951   1.850  -0.177  0.00  0.00    +0.002 A 
ATOM      9  C   UNL     1       3.110   1.159  -0.116  0.00  0.00    +0.026 A 
ATOM     10  C   UNL     1       3.097  -0.262  -0.068  0.00  0.00    +0.043 A 
ATOM     11  N   UNL     1       4.067  -1.142  -0.007  0.00  0.00    -0.380 N 
ATOM     12  C   UNL     1       3.479  -2.486   0.018  0.00  0.00    +0.144 C 
ATOM     13  C   UNL     1       1.981  -2.284  -0.037  0.00  0.00    -0.040 C 
ATOM     14  C   UNL     1       1.785  -0.947  -0.088  0.00  0.00    -0.001 A 
ATOM     15  C   UNL     1       0.573  -0.121  -0.156  0.00  0.00    +0.010 A 
ATOM     16  H   UNL     1       5.015  -0.938   0.017  0.00  0.00    +0.160 HD
ENDBRANCH   6  13
ENDBRANCH   5   6
ENDBRANCH   1   5
BRANCH   2  17
ATOM     17  C   UNL     1      -1.752  -6.557  -2.622  0.00  0.00    +0.119 C 
BRANCH  17  18
ATOM     18  C   UNL     1      -2.084  -6.947  -4.064  0.00  0.00    +0.098 C 
ATOM     19  C   UNL     1      -2.633  -5.697  -4.793  0.00  0.00    +0.095 C 
ATOM     20  S   UNL     1      -4.441  -6.081  -4.773  0.00  0.00    -0.117 S 
ATOM     21  C   UNL     1      -4.259  -7.915  -4.796  0.00  0.00    +0.222 C 
ATOM     22  N   UNL     1      -2.992  -8.083  -4.035  0.00  0.00    -0.266 N 
ATOM     23  C   UNL     1      -2.764  -9.246  -3.368  0.00  0.00    +0.246 C 
ATOM     24  O   UNL     1      -1.649  -9.515  -2.958  0.00  0.00    -0.270 OA
ATOM     25  C   UNL     1      -3.848 -10.144  -3.156  0.00  0.00    +0.031 C 
ATOM     26  C   UNL     1      -5.102  -9.764  -3.457  0.00  0.00    +0.014 C 
ATOM     27  N   UNL     1      -5.329  -8.514  -3.990  0.00  0.00    -0.320 N 
ATOM     28  C   UNL     1      -6.303 -10.646  -3.249  0.00  0.00    +0.051 C 
ATOM     29  C   UNL     1      -5.878 -12.103  -3.078  0.00  0.00    +0.006 C 
ATOM     30  C   UNL     1      -4.777 -12.158  -2.010  0.00  0.00    +0.005 C 
ATOM     31  C   UNL     1      -3.524 -11.498  -2.582  0.00  0.00    +0.042 C 
ATOM     32  H   UNL     1      -6.160  -8.041  -3.828  0.00  0.00    +0.148 HD
ENDBRANCH  17  18
ENDBRANCH   2  17
TORSDOF 5
