REMARK  Name = ZINC46643458
REMARK  9 active torsions:
REMARK  status: ('A' for Active; 'I' for Inactive)
REMARK    1  A    between atoms: C_1  and  S_2
REMARK    2  A    between atoms: S_2  and  C_3
REMARK    3  A    between atoms: C_3  and  C_4
REMARK    4  A    between atoms: C_4  and  C_5
REMARK    5  A    between atoms: C_5  and  C_7
REMARK    6  A    between atoms: C_5  and  N_22
REMARK    7  A    between atoms: N_9  and  C_10
REMARK    8  A    between atoms: C_13  and  S_16
REMARK    9  A    between atoms: S_16  and  C_17
REMARK                            x       y       z     vdW  Elec       q    Type
REMARK                         _______ _______ _______ _____ _____    ______ ____
ROOT
ATOM      1  C   UNL     1      -3.861  -3.691   2.309  0.00  0.00    +0.238 C 
ATOM      2  O   UNL     1      -4.421  -4.192   3.261  0.00  0.00    -0.273 OA
ATOM      3  N   UNL     1      -3.348  -4.475   1.340  0.00  0.00    -0.284 N 
ATOM      4  H   UNL     1      -2.968  -4.074   0.543  0.00  0.00    +0.155 HD
ENDROOT
BRANCH   3   5
ATOM      5  C   UNL     1      -3.363  -5.869   1.485  0.00  0.00    +0.034 A 
ATOM      6  C   UNL     1      -3.508  -6.681   0.367  0.00  0.00    +0.024 A 
ATOM      7  C   UNL     1      -3.523  -8.053   0.509  0.00  0.00    +0.016 A 
ATOM      8  C   UNL     1      -3.392  -8.623   1.770  0.00  0.00    +0.008 A 
ATOM      9  C   UNL     1      -3.247  -7.810   2.887  0.00  0.00    +0.016 A 
ATOM     10  C   UNL     1      -3.227  -6.438   2.744  0.00  0.00    +0.024 A 
BRANCH   8  11
ATOM     11  S   UNL     1      -3.412 -10.376   1.951  0.00  0.00    -0.122 S 
BRANCH  11  12
ATOM     12  C   UNL     1      -3.215 -10.634   3.736  0.00  0.00    +0.051 C 
ATOM     13  C   UNL     1      -1.803 -10.199   4.180  0.00  0.00    +0.014 C 
ATOM     14  C   UNL     1      -1.409 -11.235   5.262  0.00  0.00    +0.001 C 
ATOM     15  C   UNL     1      -1.997 -12.554   4.703  0.00  0.00    +0.001 C 
ATOM     16  C   UNL     1      -3.338 -12.132   4.068  0.00  0.00    +0.014 C 
ENDBRANCH  11  12
ENDBRANCH   8  11
ENDBRANCH   3   5
BRANCH   1  17
ATOM     17  C   UNL     1      -3.738  -2.192   2.211  0.00  0.00    +0.161 C 
BRANCH  17  18
ATOM     18  N   UNL     1      -3.919  -1.599   3.538  0.00  0.00    -0.288 N 
ATOM     19  C   UNL     1      -5.072  -1.788   4.209  0.00  0.00    +0.298 C 
ATOM     20  O   UNL     1      -5.963  -2.451   3.713  0.00  0.00    -0.253 OA
ATOM     21  N   UNL     1      -5.239  -1.242   5.430  0.00  0.00    -0.313 N 
ATOM     22  H   UNL     1      -3.209  -1.070   3.933  0.00  0.00    +0.151 HD
ATOM     23  H   UNL     1      -4.528  -0.713   5.826  0.00  0.00    +0.146 HD
ATOM     24  H   UNL     1      -6.069  -1.378   5.913  0.00  0.00    +0.146 HD
ENDBRANCH  17  18
BRANCH  17  25
ATOM     25  C   UNL     1      -4.811  -1.655   1.261  0.00  0.00    +0.042 C 
BRANCH  25  26
ATOM     26  C   UNL     1      -4.609  -0.151   1.063  0.00  0.00    +0.071 C 
BRANCH  26  28
ATOM     27  C   UNL     1      -5.506   2.257  -0.190  0.00  0.00    +0.084 C 
ATOM     28  S   UNL     1      -5.881   0.487  -0.062  0.00  0.00    -0.164 S 
ENDBRANCH  26  28
ENDBRANCH  25  26
ENDBRANCH  17  25
ENDBRANCH   1  17
TORSDOF 8
