REMARK  Name = ZINC09670353
REMARK  8 active torsions:
REMARK  status: ('A' for Active; 'I' for Inactive)
REMARK    1  A    between atoms: C_1  and  N_56
REMARK    2  A    between atoms: N_4  and  S_7
REMARK    3  A    between atoms: S_7  and  C_10
REMARK    4  A    between atoms: C_13  and  N_19
REMARK    5  A    between atoms: C_14  and  N_16
REMARK    6  A    between atoms: N_19  and  C_20
REMARK    7  A    between atoms: C_20  and  C_21
REMARK    8  A    between atoms: C_21  and  C_22
REMARK                            x       y       z     vdW  Elec       q    Type
REMARK                         _______ _______ _______ _____ _____    ______ ____
ROOT
ATOM      1  C   UNL     1       0.270   0.319   3.496  0.00  0.00    +0.108 A 
ATOM      2  C   UNL     1       1.338  -0.559   3.447  0.00  0.00    +0.030 A 
ATOM      3  C   UNL     1       2.346  -0.475   4.387  0.00  0.00    +0.027 A 
ATOM      4  C   UNL     1       2.282   0.486   5.388  0.00  0.00    +0.058 A 
ATOM      5  C   UNL     1       1.206   1.363   5.437  0.00  0.00    +0.149 A 
ATOM      6  C   UNL     1       0.203   1.277   4.491  0.00  0.00    +0.063 A 
ENDROOT
BRANCH   1   7
ATOM      7  S   UNL     1      -1.011   0.212   2.291  0.00  0.00    +0.061 S 
ATOM      8  O   UNL     1      -2.171   0.785   2.880  0.00  0.00    -0.153 OA
ATOM      9  O   UNL     1      -0.989  -1.118   1.791  0.00  0.00    -0.153 OA
BRANCH   7  13
ATOM     10  C   UNL     1      -1.258   2.926  -2.736  0.00  0.00    -0.096 C 
ATOM     11  C   UNL     1      -0.493   1.055  -1.403  0.00  0.00    -0.062 C 
ATOM     12  C   UNL     1       0.212   0.683  -0.094  0.00  0.00    +0.091 C 
ATOM     13  N   UNL     1      -0.583   1.198   1.032  0.00  0.00    -0.180 NA
ATOM     14  C   UNL     1      -0.991   2.612   1.006  0.00  0.00    +0.091 C 
ATOM     15  C   UNL     1      -1.648   2.908  -0.347  0.00  0.00    -0.062 C 
ATOM     16  N   UNL     1      -0.713   2.518  -1.425  0.00  0.00    +0.380 N 
ATOM     17  H   UNL     1       0.185   2.992  -1.274  0.00  0.00    -0.082 HD
ENDBRANCH   7  13
ENDBRANCH   1   7
BRANCH   5  18
ATOM     18  N   UNL     1       1.133   2.388   6.502  0.00  0.00    +0.058 N 
ATOM     19  O   UNL     1       0.251   3.227   6.481  0.00  0.00    -0.126 OA
ATOM     20  O   UNL     1       1.957   2.394   7.399  0.00  0.00    -0.126 OA
ENDBRANCH   5  18
BRANCH   4  21
ATOM     21  N   UNL     1       3.297   0.570   6.343  0.00  0.00    -0.342 N 
ATOM     22  H   UNL     1       3.212   1.184   7.090  0.00  0.00    +0.146 HD
BRANCH  21  23
ATOM     23  C   UNL     1       4.492  -0.269   6.219  0.00  0.00    +0.106 C 
BRANCH  23  24
ATOM     24  C   UNL     1       5.439   0.016   7.386  0.00  0.00    +0.056 C 
BRANCH  24  25
ATOM     25  C   UNL     1       6.668  -0.847   7.258  0.00  0.00    -0.021 A 
ATOM     26  C   UNL     1       6.876  -2.033   7.851  0.00  0.00    +0.087 A 
ATOM     27  N   UNL     1       8.104  -2.522   7.499  0.00  0.00    -0.360 N 
ATOM     28  H   UNL     1       8.476  -3.365   7.801  0.00  0.00    +0.165 HD
ATOM     29  C   UNL     1       8.736  -1.636   6.655  0.00  0.00    +0.047 A 
ATOM     30  C   UNL     1       7.864  -0.548   6.467  0.00  0.00    +0.003 A 
ATOM     31  C   UNL     1       8.245   0.516   5.648  0.00  0.00    +0.010 A 
ATOM     32  C   UNL     1       9.464   0.495   5.032  0.00  0.00    +0.001 A 
ATOM     33  C   UNL     1      10.329  -0.575   5.214  0.00  0.00    +0.002 A 
ATOM     34  C   UNL     1       9.973  -1.636   6.018  0.00  0.00    +0.026 A 
ENDBRANCH  24  25
ENDBRANCH  23  24
ENDBRANCH  21  23
ENDBRANCH   4  21
TORSDOF 7
