REMARK  Name = ZINC36306830
REMARK  16 active torsions:
REMARK  status: ('A' for Active; 'I' for Inactive)
REMARK    1  A    between atoms: C_1  and  C_2
REMARK    2  A    between atoms: C_2  and  C_3
REMARK    3  A    between atoms: C_2  and  O_4
REMARK    4  A    between atoms: O_4  and  C_5
REMARK    5  A    between atoms: C_5  and  C_6
REMARK    6  A    between atoms: C_6  and  C_8
REMARK    7  A    between atoms: C_6  and  O_38
REMARK    8  A    between atoms: C_8  and  N_9
REMARK    9  A    between atoms: N_9  and  C_10
REMARK   10  A    between atoms: N_9  and  C_31
REMARK   11  A    between atoms: C_10  and  C_11
REMARK   12  A    between atoms: C_12  and  C_25
REMARK   13  A    between atoms: N_14  and  C_24
REMARK   14  A    between atoms: C_15  and  O_16
REMARK   15  A    between atoms: O_16  and  C_17
REMARK   16  A    between atoms: C_31  and  C_32
REMARK                            x       y       z     vdW  Elec       q    Type
REMARK                         _______ _______ _______ _____ _____    ______ ____
ROOT
ATOM      1  C   UNL     1      -0.679  -3.931   6.160  0.00  0.00    +0.025 A 
ATOM      2  C   UNL     1      -1.956  -3.958   5.568  0.00  0.00    +0.098 A 
ATOM      3  N   UNL     1      -2.266  -5.213   5.321  0.00  0.00    -0.168 NA
ATOM      4  N   UNL     1      -1.203  -6.020   5.745  0.00  0.00    -0.235 N 
ATOM      5  C   UNL     1      -0.237  -5.212   6.251  0.00  0.00    +0.221 A 
ATOM      6  C   UNL     1      -1.142  -7.481   5.652  0.00  0.00    +0.176 C 
ENDROOT
BRANCH   2   7
ATOM      7  C   UNL     1      -2.805  -2.776   5.275  0.00  0.00    +0.002 A 
ATOM      8  C   UNL     1      -2.923  -1.750   6.211  0.00  0.00    +0.010 A 
ATOM      9  C   UNL     1      -3.713  -0.654   5.933  0.00  0.00    +0.001 A 
ATOM     10  C   UNL     1      -4.388  -0.572   4.728  0.00  0.00    +0.000 A 
ATOM     11  C   UNL     1      -4.275  -1.588   3.796  0.00  0.00    +0.001 A 
ATOM     12  C   UNL     1      -3.482  -2.686   4.061  0.00  0.00    +0.010 A 
ENDBRANCH   2   7
BRANCH   1  13
ATOM     13  C   UNL     1       0.067  -2.700   6.607  0.00  0.00    -0.035 C 
BRANCH  13  14
ATOM     14  N   UNL     1       1.005  -2.287   5.554  0.00  0.00    +0.386 N 
ATOM     15  H   UNL     1       1.587  -3.070   5.295  0.00  0.00    -0.081 HD
BRANCH  14  16
ATOM     16  C   UNL     1       0.251  -1.828   4.379  0.00  0.00    -0.044 C 
BRANCH  16  17
ATOM     17  C   UNL     1       1.219  -1.558   3.226  0.00  0.00    +0.124 C 
BRANCH  17  18
ATOM     18  O   UNL     1       2.050  -0.443   3.552  0.00  0.00    -0.391 OA
ATOM     19  H   UNL     1       1.562   0.377   3.713  0.00  0.00    +0.210 HD
ENDBRANCH  17  18
BRANCH  17  20
ATOM     20  C   UNL     1       0.425  -1.249   1.955  0.00  0.00    +0.189 C 
BRANCH  20  21
ATOM     21  O   UNL     1       1.323  -1.111   0.853  0.00  0.00    -0.375 OA
BRANCH  21  23
ATOM     22  C   UNL     1       0.567   0.697  -0.561  0.00  0.00    +0.037 C 
ATOM     23  C   UNL     1       0.680  -0.820  -0.389  0.00  0.00    +0.112 C 
ATOM     24  C   UNL     1       1.502  -1.403  -1.539  0.00  0.00    +0.037 C 
ENDBRANCH  21  23
ENDBRANCH  20  21
ENDBRANCH  17  20
ENDBRANCH  16  17
ENDBRANCH  14  16
BRANCH  14  25
ATOM     25  C   UNL     1       1.849  -1.193   6.052  0.00  0.00    -0.046 C 
BRANCH  25  26
ATOM     26  C   UNL     1       0.984   0.042   6.310  0.00  0.00    +0.102 C 
ATOM     27  C   UNL     1       1.878   1.232   6.720  0.00  0.00    +0.032 C 
ATOM     28  C   UNL     1       1.030   1.916   7.826  0.00  0.00    +0.030 C 
ATOM     29  C   UNL     1       0.350   0.686   8.479  0.00  0.00    +0.160 C 
ATOM     30  O   UNL     1       0.080  -0.215   7.391  0.00  0.00    -0.378 OA
ENDBRANCH  25  26
ENDBRANCH  14  25
ENDBRANCH  13  14
ENDBRANCH   1  13
BRANCH   5  31
ATOM     31  O   UNL     1       0.956  -5.612   6.760  0.00  0.00    -0.435 OA
BRANCH  31  32
ATOM     32  C   UNL     1       1.007  -5.953   8.075  0.00  0.00    +0.165 A 
ATOM     33  C   UNL     1      -0.157  -5.987   8.829  0.00  0.00    +0.049 A 
ATOM     34  C   UNL     1      -0.103  -6.334  10.166  0.00  0.00    +0.004 A 
ATOM     35  C   UNL     1       1.110  -6.647  10.752  0.00  0.00    +0.003 A 
ATOM     36  C   UNL     1       2.272  -6.614  10.004  0.00  0.00    +0.042 A 
ATOM     37  C   UNL     1       2.223  -6.274   8.665  0.00  0.00    +0.165 A 
ATOM     38  F   UNL     1       3.358  -6.247   7.932  0.00  0.00    -0.202 F 
ENDBRANCH  31  32
ENDBRANCH   5  31
TORSDOF 13
