REMARK  Name = ZINC40286573
REMARK  8 active torsions:
REMARK  status: ('A' for Active; 'I' for Inactive)
REMARK    1  A    between atoms: C_1  and  C_2
REMARK    2  A    between atoms: C_2  and  C_3
REMARK    3  A    between atoms: C_2  and  C_4
REMARK    4  A    between atoms: C_4  and  C_5
REMARK    5  A    between atoms: C_11  and  C_13
REMARK    6  A    between atoms: C_17  and  O_20
REMARK    7  A    between atoms: O_20  and  C_21
REMARK    8  A    between atoms: C_21  and  C_22
REMARK                            x       y       z     vdW  Elec       q    Type
REMARK                         _______ _______ _______ _____ _____    ______ ____
ROOT
ATOM      1  C   UNL     1      -1.349  -8.353  -0.905  0.00  0.00    +0.193 A 
ATOM      2  C   UNL     1      -1.311  -9.403  -0.044  0.00  0.00    +0.106 A 
ATOM      3  C   UNL     1      -1.308 -10.724  -0.570  0.00  0.00    +0.227 A 
ATOM      4  O   UNL     1      -1.275 -11.694   0.170  0.00  0.00    -0.284 OA
ATOM      5  C   UNL     1      -1.347 -10.883  -1.981  0.00  0.00    +0.202 A 
ATOM      6  C   UNL     1      -1.383  -9.780  -2.767  0.00  0.00    +0.245 A 
ATOM      7  O   UNL     1      -1.389  -8.553  -2.233  0.00  0.00    -0.454 OA
ENDROOT
BRANCH   1  14
ATOM      8  C   UNL     1      -1.416  -2.035  -0.119  0.00  0.00    +0.104 A 
ATOM      9  N   UNL     1      -1.372  -2.967   0.812  0.00  0.00    -0.145 NA
ATOM     10  N   UNL     1      -1.363  -4.196   0.532  0.00  0.00    -0.126 NA
ATOM     11  C   UNL     1      -1.398  -4.628  -0.721  0.00  0.00    +0.188 A 
ATOM     12  S   UNL     1      -1.457  -3.061  -1.586  0.00  0.00    -0.035 S 
ATOM     13  N   UNL     1      -1.395  -5.925  -1.220  0.00  0.00    -0.257 N 
ATOM     14  C   UNL     1      -1.352  -6.973  -0.374  0.00  0.00    +0.285 C 
ATOM     15  O   UNL     1      -1.316  -6.783   0.826  0.00  0.00    -0.266 OA
ATOM     16  H   UNL     1      -1.424  -6.076  -2.178  0.00  0.00    +0.157 HD
BRANCH   8  17
ATOM     17  C   UNL     1      -1.433  -0.534   0.013  0.00  0.00    +0.068 C 
BRANCH  17  19
ATOM     18  C   UNL     1      -0.019   1.526   0.010  0.00  0.00    +0.007 C 
ATOM     19  C   UNL     1       0.002  -0.004   0.002  0.00  0.00    -0.011 C 
ATOM     20  C   UNL     1       0.742  -0.511   1.242  0.00  0.00    +0.007 C 
ENDBRANCH  17  19
ENDBRANCH   8  17
ENDBRANCH   1  14
BRANCH   5  21
ATOM     21  O   UNL     1      -1.346 -12.125  -2.535  0.00  0.00    -0.481 OA
BRANCH  21  22
ATOM     22  C   UNL     1      -1.385 -12.199  -3.962  0.00  0.00    +0.267 C 
BRANCH  22  23
ATOM     23  C   UNL     1      -1.378 -13.644  -4.390  0.00  0.00    +0.025 A 
ATOM     24  C   UNL     1      -1.344 -14.647  -3.440  0.00  0.00    +0.010 A 
ATOM     25  C   UNL     1      -1.337 -15.972  -3.833  0.00  0.00    +0.001 A 
ATOM     26  C   UNL     1      -1.365 -16.296  -5.176  0.00  0.00    +0.003 A 
ATOM     27  C   UNL     1      -1.400 -15.295  -6.128  0.00  0.00    +0.039 A 
ATOM     28  C   UNL     1      -1.412 -13.967  -5.736  0.00  0.00    +0.130 A 
ATOM     29  F   UNL     1      -1.451 -12.988  -6.666  0.00  0.00    -0.205 F 
ENDBRANCH  22  23
ENDBRANCH  21  22
ENDBRANCH   5  21
TORSDOF 6
