REMARK  Name = ZINC66123402
REMARK  10 active torsions:
REMARK  status: ('A' for Active; 'I' for Inactive)
REMARK    1  A    between atoms: C_1  and  C_2
REMARK    2  A    between atoms: C_5  and  C_7
REMARK    3  A    between atoms: C_10  and  C_12
REMARK    4  A    between atoms: N_14  and  N_15
REMARK    5  A    between atoms: N_15  and  C_16
REMARK    6  A    between atoms: C_16  and  N_18
REMARK    7  A    between atoms: N_18  and  C_19
REMARK    8  A    between atoms: C_24  and  C_25
REMARK    9  A    between atoms: C_25  and  C_26
REMARK   10  A    between atoms: C_25  and  C_27
REMARK                            x       y       z     vdW  Elec       q    Type
REMARK                         _______ _______ _______ _____ _____    ______ ____
ROOT
ATOM      1  N   UNL     1      -3.037  -7.499   2.365  0.00  0.00    -0.246 N 
ATOM      2  H   UNL     1      -2.444  -8.093   1.879  0.00  0.00    +0.172 HD
ENDROOT
BRANCH   1   5
ATOM      3  C   UNL     1      -1.979  -5.602   1.390  0.00  0.00    +0.233 C 
ATOM      4  O   UNL     1      -1.237  -6.345   0.783  0.00  0.00    -0.274 OA
ATOM      5  N   UNL     1      -2.918  -6.111   2.212  0.00  0.00    -0.235 N 
ATOM      6  H   UNL     1      -3.511  -5.517   2.698  0.00  0.00    +0.173 HD
BRANCH   3   9
ATOM      7  C   UNL     1      -0.766  -3.593   0.279  0.00  0.00    +0.038 C 
ATOM      8  C   UNL     1      -0.595  -3.441   1.792  0.00  0.00    +0.022 C 
ATOM      9  C   UNL     1      -1.851  -4.109   1.226  0.00  0.00    +0.085 C 
BRANCH   7  14
ATOM     10  C   UNL     1      -2.017   1.516  -1.824  0.00  0.00    +0.051 C 
ATOM     11  C   UNL     1      -1.666   0.083  -1.517  0.00  0.00    -0.013 A 
ATOM     12  C   UNL     1      -1.413  -0.936  -2.373  0.00  0.00    +0.011 A 
ATOM     13  C   UNL     1      -1.107  -2.183  -1.860  0.00  0.00    +0.012 A 
ATOM     14  C   UNL     1      -1.070  -2.349  -0.516  0.00  0.00    -0.006 A 
ATOM     15  S   UNL     1      -1.468  -0.711   0.070  0.00  0.00    -0.098 S 
ENDBRANCH   7  14
ENDBRANCH   3   9
ENDBRANCH   1   5
BRANCH   1  16
ATOM     16  C   UNL     1      -3.976  -8.008   3.187  0.00  0.00    +0.151 C 
ATOM     17  S   UNL     1      -4.121  -9.704   3.373  0.00  0.00    -0.017 S 
BRANCH  16  18
ATOM     18  N   UNL     1      -4.800  -7.183   3.862  0.00  0.00    -0.296 N 
ATOM     19  H   UNL     1      -4.667  -6.223   3.819  0.00  0.00    +0.154 HD
BRANCH  18  20
ATOM     20  C   UNL     1      -5.847  -7.710   4.625  0.00  0.00    +0.036 A 
ATOM     21  C   UNL     1      -6.645  -8.723   4.106  0.00  0.00    +0.023 A 
ATOM     22  C   UNL     1      -7.678  -9.242   4.862  0.00  0.00    +0.002 A 
ATOM     23  C   UNL     1      -7.919  -8.754   6.133  0.00  0.00    +0.000 A 
ATOM     24  C   UNL     1      -7.128  -7.746   6.652  0.00  0.00    +0.006 A 
ATOM     25  C   UNL     1      -6.089  -7.227   5.904  0.00  0.00    -0.024 A 
BRANCH  25  26
ATOM     26  C   UNL     1      -5.222  -6.133   6.473  0.00  0.00    +0.015 C 
ATOM     27  C   UNL     1      -6.084  -4.905   6.774  0.00  0.00    +0.012 C 
ATOM     28  C   UNL     1      -4.564  -6.623   7.763  0.00  0.00    +0.012 C 
ENDBRANCH  25  26
ENDBRANCH  18  20
ENDBRANCH  16  18
ENDBRANCH   1  16
TORSDOF 7
