REMARK  Name = ZINC39934527
REMARK  11 active torsions:
REMARK  status: ('A' for Active; 'I' for Inactive)
REMARK    1  A    between atoms: C_1  and  C_2
REMARK    2  A    between atoms: C_3  and  C_32
REMARK    3  A    between atoms: C_4  and  C_31
REMARK    4  A    between atoms: C_7  and  C_8
REMARK    5  A    between atoms: C_8  and  C_10
REMARK    6  A    between atoms: C_10  and  C_12
REMARK    7  A    between atoms: C_10  and  S_13
REMARK    8  A    between atoms: S_13  and  C_14
REMARK    9  A    between atoms: C_18  and  C_26
REMARK   10  A    between atoms: N_19  and  C_20
REMARK   11  A    between atoms: C_32  and  C_34
REMARK                            x       y       z     vdW  Elec       q    Type
REMARK                         _______ _______ _______ _____ _____    ______ ____
ROOT
ATOM      1  C   UNL     1       0.135  -2.772   5.884  0.00  0.00    +0.242 C 
ATOM      2  N   UNL     1      -1.064  -3.619   6.006  0.00  0.00    -0.237 N 
ATOM      3  N   UNL     1      -0.605  -4.938   6.111  0.00  0.00    -0.168 NA
ATOM      4  C   UNL     1       0.688  -4.995   6.070  0.00  0.00    +0.159 C 
ATOM      5  N   UNL     1       1.256  -3.725   5.934  0.00  0.00    -0.254 N 
ATOM      6  H   UNL     1      -1.987  -3.323   6.011  0.00  0.00    +0.171 HD
ENDROOT
BRANCH   5   7
ATOM      7  C   UNL     1       2.617  -3.419   5.859  0.00  0.00    +0.038 A 
ATOM      8  C   UNL     1       3.273  -3.461   4.635  0.00  0.00    +0.023 A 
ATOM      9  C   UNL     1       4.619  -3.158   4.565  0.00  0.00    +0.002 A 
ATOM     10  C   UNL     1       5.312  -2.813   5.710  0.00  0.00    +0.000 A 
ATOM     11  C   UNL     1       4.662  -2.770   6.930  0.00  0.00    +0.002 A 
ATOM     12  C   UNL     1       3.316  -3.067   7.007  0.00  0.00    +0.023 A 
ENDBRANCH   5   7
BRANCH   4  13
ATOM     13  C   UNL     1       1.464  -6.242   6.158  0.00  0.00    +0.054 A 
ATOM     14  C   UNL     1       1.018  -7.527   6.340  0.00  0.00    +0.019 A 
ATOM     15  C   UNL     1       1.942  -8.546   6.390  0.00  0.00    +0.008 A 
ATOM     16  C   UNL     1       3.261  -8.251   6.258  0.00  0.00    +0.046 A 
ATOM     17  S   UNL     1       3.230  -6.479   6.046  0.00  0.00    -0.094 S 
ENDBRANCH   4  13
BRANCH   1  18
ATOM     18  S   UNL     1       0.127  -1.882   4.304  0.00  0.00    -0.107 S 
BRANCH  18  19
ATOM     19  C   UNL     1       0.006  -3.197   3.060  0.00  0.00    +0.119 C 
ATOM     20  C   UNL     1      -1.339  -3.912   3.202  0.00  0.00    +0.027 C 
BRANCH  19  21
ATOM     21  C   UNL     1       0.114  -2.596   1.682  0.00  0.00    +0.192 C 
ATOM     22  O   UNL     1      -0.194  -1.436   1.500  0.00  0.00    -0.289 OA
BRANCH  21  29
ATOM     23  C   UNL     1       0.419  -1.588  -1.241  0.00  0.00    +0.047 C 
ATOM     24  C   UNL     1       0.717  -2.964  -0.704  0.00  0.00    -0.012 A 
ATOM     25  C   UNL     1       1.205  -4.069  -1.438  0.00  0.00    +0.041 A 
ATOM     26  C   UNL     1       1.333  -5.126  -0.549  0.00  0.00    +0.024 A 
ATOM     27  N   UNL     1       0.950  -4.712   0.666  0.00  0.00    -0.355 N 
ATOM     28  H   UNL     1       0.943  -5.257   1.468  0.00  0.00    +0.166 HD
ATOM     29  C   UNL     1       0.573  -3.385   0.600  0.00  0.00    +0.087 A 
ATOM     30  C   UNL     1       1.821  -6.509  -0.893  0.00  0.00    +0.064 C 
BRANCH  25  31
ATOM     31  C   UNL     1       1.517  -4.093  -2.871  0.00  0.00    +0.162 C 
ATOM     32  O   UNL     1       0.647  -4.348  -3.677  0.00  0.00    -0.292 OA
ATOM     33  C   UNL     1       2.919  -3.801  -3.342  0.00  0.00    +0.091 C 
ENDBRANCH  25  31
ENDBRANCH  21  29
ENDBRANCH  19  21
ENDBRANCH  18  19
ENDBRANCH   1  18
TORSDOF 7
