REMARK  Name = ZINC09591384
REMARK  6 active torsions:
REMARK  status: ('A' for Active; 'I' for Inactive)
REMARK    1  A    between atoms: C_1  and  S_2
REMARK    2  A    between atoms: S_2  and  N_5
REMARK    3  A    between atoms: C_13  and  C_15
REMARK    4  A    between atoms: N_17  and  C_18
REMARK    5  A    between atoms: C_22  and  S_24
REMARK    6  A    between atoms: S_24  and  N_27
REMARK                            x       y       z     vdW  Elec       q    Type
REMARK                         _______ _______ _______ _____ _____    ______ ____
ROOT
ATOM      1  C   UNL     1       4.899   0.604  -4.287  0.00  0.00    +0.248 C 
ATOM      2  O   UNL     1       4.652  -0.349  -5.001  0.00  0.00    -0.270 OA
ATOM      3  N   UNL     1       6.028   1.315  -4.479  0.00  0.00    -0.281 N 
ATOM      4  H   UNL     1       6.188   2.120  -3.962  0.00  0.00    +0.155 HD
ENDROOT
BRANCH   1  13
ATOM      5  N   UNL     1       1.337   2.056  -0.164  0.00  0.00    -0.207 N 
ATOM      6  C   UNL     1      -0.017   1.487  -0.133  0.00  0.00    +0.131 C 
ATOM      7  C   UNL     1       0.100  -0.017  -0.413  0.00  0.00    +0.025 C 
ATOM      8  C   UNL     1       0.661  -0.214  -1.821  0.00  0.00    +0.038 C 
ATOM      9  C   UNL     1       1.915   0.598  -2.007  0.00  0.00    -0.024 A 
ATOM     10  C   UNL     1       2.202   1.687  -1.191  0.00  0.00    +0.054 A 
ATOM     11  C   UNL     1       3.369   2.424  -1.389  0.00  0.00    +0.026 A 
ATOM     12  C   UNL     1       4.246   2.078  -2.390  0.00  0.00    +0.015 A 
ATOM     13  C   UNL     1       3.963   0.982  -3.212  0.00  0.00    +0.037 A 
ATOM     14  C   UNL     1       2.793   0.247  -3.012  0.00  0.00    +0.018 A 
BRANCH   5  16
ATOM     15  C   UNL     1       1.593   4.763   0.267  0.00  0.00    +0.218 C 
ATOM     16  S   UNL     1       1.827   3.122   1.005  0.00  0.00    +0.043 S 
ATOM     17  O   UNL     1       0.912   2.933   2.076  0.00  0.00    -0.155 OA
ATOM     18  O   UNL     1       3.212   2.857   1.180  0.00  0.00    -0.155 OA
ENDBRANCH   5  16
ENDBRANCH   1  13
BRANCH   3  19
ATOM     19  C   UNL     1       6.970   0.891  -5.422  0.00  0.00    +0.036 A 
ATOM     20  C   UNL     1       7.720   1.825  -6.125  0.00  0.00    +0.023 A 
ATOM     21  C   UNL     1       8.649   1.403  -7.055  0.00  0.00    +0.004 A 
ATOM     22  C   UNL     1       8.834   0.052  -7.287  0.00  0.00    +0.029 A 
ATOM     23  C   UNL     1       8.089  -0.880  -6.588  0.00  0.00    +0.110 A 
ATOM     24  C   UNL     1       7.161  -0.465  -5.653  0.00  0.00    +0.052 A 
BRANCH  23  25
ATOM     25  S   UNL     1       8.328  -2.600  -6.887  0.00  0.00    +0.073 S 
ATOM     26  O   UNL     1       7.126  -3.251  -6.500  0.00  0.00    -0.150 OA
ATOM     27  O   UNL     1       8.869  -2.714  -8.196  0.00  0.00    -0.150 OA
BRANCH  25  28
ATOM     28  N   UNL     1       9.504  -3.119  -5.842  0.00  0.00    -0.205 N 
ATOM     29  C   UNL     1       9.276  -3.102  -4.491  0.00  0.00    +0.088 C 
ATOM     30  C   UNL     1       8.228  -2.800  -2.478  0.00  0.00    +0.114 C 
ATOM     31  C   UNL     1       9.726  -2.959  -2.128  0.00  0.00    +0.028 C 
ATOM     32  C   UNL     1      10.273  -3.557  -3.449  0.00  0.00    +0.072 C 
ATOM     33  H   UNL     1      10.354  -3.436  -6.187  0.00  0.00    +0.175 HD
ATOM     34  N   UNL     1       8.169  -2.696  -3.951  0.00  0.00    -0.375 N 
ATOM     35  H   UNL     1       7.359  -2.347  -4.478  0.00  0.00    +0.161 HD
ENDBRANCH  25  28
ENDBRANCH  23  25
ENDBRANCH   3  19
TORSDOF 5
