REMARK  Name = ZINC06289239
REMARK  8 active torsions:
REMARK  status: ('A' for Active; 'I' for Inactive)
REMARK    1  A    between atoms: C_1  and  O_2
REMARK    2  A    between atoms: O_2  and  C_3
REMARK    3  A    between atoms: C_5  and  C_10
REMARK    4  A    between atoms: C_8  and  O_9
REMARK    5  A    between atoms: C_12  and  C_33
REMARK    6  A    between atoms: C_13  and  N_32
REMARK    7  A    between atoms: N_14  and  C_22
REMARK    8  A    between atoms: C_27  and  N_28
REMARK                            x       y       z     vdW  Elec       q    Type
REMARK                         _______ _______ _______ _____ _____    ______ ____
ROOT
ATOM      1  C   UNL     1       0.206   6.050  -0.474  0.00  0.00    +0.097 C 
ATOM      2  C   UNL     1      -0.898   6.886  -1.051  0.00  0.00    +0.077 C 
ATOM      3  C   UNL     1      -1.072   8.178  -0.671  0.00  0.00    +0.107 C 
ATOM      4  N   UNL     1      -0.223   8.747   0.251  0.00  0.00    -0.258 N 
ATOM      5  C   UNL     1       1.007   8.197   0.496  0.00  0.00    +0.025 C 
ATOM      6  C   UNL     1       1.263   6.913   0.169  0.00  0.00    +0.025 C 
ATOM      7  C   UNL     1       2.522   6.340   0.419  0.00  0.00    +0.162 C 
ATOM      8  O   UNL     1       2.726   5.186   0.100  0.00  0.00    -0.292 OA
ATOM      9  C   UNL     1       3.621   7.129   1.077  0.00  0.00    +0.080 C 
ATOM     10  C   UNL     1       2.995   8.196   1.982  0.00  0.00    +0.014 C 
ATOM     11  C   UNL     1       2.065   9.062   1.135  0.00  0.00    +0.052 C 
ENDROOT
BRANCH   4  12
ATOM     12  C   UNL     1      -0.620   9.897   0.945  0.00  0.00    +0.070 A 
ATOM     13  C   UNL     1      -1.302   9.783   2.150  0.00  0.00    +0.029 A 
ATOM     14  C   UNL     1      -1.688  10.918   2.833  0.00  0.00    +0.040 A 
ATOM     15  C   UNL     1      -1.406  12.171   2.314  0.00  0.00    +0.126 A 
ATOM     16  C   UNL     1      -0.732  12.287   1.111  0.00  0.00    +0.073 A 
ATOM     17  C   UNL     1      -0.339  11.154   0.425  0.00  0.00    +0.150 A 
ATOM     18  F   UNL     1      -1.790  13.280   2.983  0.00  0.00    -0.205 F 
BRANCH  17  19
ATOM     19  N   UNL     1       0.383  11.279  -0.861  0.00  0.00    +0.058 N 
ATOM     20  O   UNL     1       0.630  12.382  -1.316  0.00  0.00    -0.126 OA
ATOM     21  O   UNL     1       0.730  10.279  -1.464  0.00  0.00    -0.126 OA
ENDBRANCH  17  19
ENDBRANCH   4  12
BRANCH   1  24
ATOM     22  C   UNL     1      -0.787   2.893   1.346  0.00  0.00    +0.162 A 
ATOM     23  C   UNL     1      -0.254   3.751   0.398  0.00  0.00    +0.054 A 
ATOM     24  C   UNL     1      -0.368   5.119   0.562  0.00  0.00    -0.031 A 
ATOM     25  C   UNL     1      -1.003   5.634   1.677  0.00  0.00    +0.008 A 
ATOM     26  C   UNL     1      -1.532   4.784   2.629  0.00  0.00    +0.049 A 
ATOM     27  C   UNL     1      -1.427   3.411   2.468  0.00  0.00    +0.158 A 
BRANCH  22  29
ATOM     28  C   UNL     1      -0.013   1.086   0.008  0.00  0.00    +0.277 C 
ATOM     29  O   UNL     1      -0.682   1.547   1.184  0.00  0.00    -0.491 OA
ENDBRANCH  22  29
BRANCH  27  30
ATOM     30  O   UNL     1      -1.946   2.574   3.405  0.00  0.00    -0.503 OA
ATOM     31  H   UNL     1      -1.327   2.340   4.110  0.00  0.00    +0.292 HD
ENDBRANCH  27  30
ENDBRANCH   1  24
BRANCH   3  32
ATOM     32  N   UNL     1      -2.097   8.919  -1.208  0.00  0.00    -0.345 N 
ATOM     33  H   UNL     1      -2.696   8.519  -1.858  0.00  0.00    +0.144 HD
ATOM     34  H   UNL     1      -2.222   9.842  -0.938  0.00  0.00    +0.144 HD
ENDBRANCH   3  32
BRANCH   2  35
ATOM     35  C   UNL     1      -1.784   6.311  -2.018  0.00  0.00    +0.099 C 
ATOM     36  N   UNL     1      -2.487   5.855  -2.785  0.00  0.00    -0.191 NA
ENDBRANCH   2  35
TORSDOF 7
