REMARK  Name = ZINC08133796
REMARK  5 active torsions:
REMARK  status: ('A' for Active; 'I' for Inactive)
REMARK    1  A    between atoms: C_1  and  C_2
REMARK    2  A    between atoms: C_4  and  C_8
REMARK    3  A    between atoms: C_5  and  C_7
REMARK    4  A    between atoms: C_8  and  C_10
REMARK    5  A    between atoms: C_10  and  N_11
REMARK                            x       y       z     vdW  Elec       q    Type
REMARK                         _______ _______ _______ _____ _____    ______ ____
ROOT
ATOM      1  N   UNL     1      -0.232   6.375   0.346  0.00  0.00    -0.216 N 
ATOM      2  C   UNL     1      -0.921   6.863  -0.706  0.00  0.00    +0.252 C 
ATOM      3  O   UNL     1      -2.064   6.607  -1.017  0.00  0.00    -0.272 OA
ATOM      4  C   UNL     1       0.033   7.797  -1.414  0.00  0.00    +0.144 C 
ATOM      5  C   UNL     1      -0.522   9.219  -1.419  0.00  0.00    +0.081 C 
ATOM      6  C   UNL     1      -1.645   9.294  -2.462  0.00  0.00    +0.232 C 
ATOM      7  O   UNL     1      -1.083   9.049  -3.751  0.00  0.00    -0.492 OA
ATOM      8  C   UNL     1      -0.281   7.964  -3.904  0.00  0.00    +0.126 A 
ATOM      9  C   UNL     1       0.287   7.321  -2.816  0.00  0.00    +0.027 A 
ATOM     10  C   UNL     1       1.104   6.221  -3.017  0.00  0.00    +0.010 A 
ATOM     11  C   UNL     1       1.351   5.760  -4.295  0.00  0.00    +0.001 A 
ATOM     12  C   UNL     1       0.782   6.396  -5.382  0.00  0.00    +0.004 A 
ATOM     13  C   UNL     1      -0.032   7.495  -5.189  0.00  0.00    +0.046 A 
ATOM     14  N   UNL     1       1.262   7.726  -0.614  0.00  0.00    -0.281 N 
ATOM     15  C   UNL     1       1.009   6.873   0.397  0.00  0.00    +0.310 C 
ATOM     16  O   UNL     1       1.819   6.586   1.257  0.00  0.00    -0.252 OA
ATOM     17  H   UNL     1       2.091   8.203  -0.779  0.00  0.00    +0.152 HD
ENDROOT
BRANCH   1  18
ATOM     18  C   UNL     1      -0.776   5.421   1.316  0.00  0.00    +0.197 C 
BRANCH  18  19
ATOM     19  C   UNL     1      -0.503   4.015   0.847  0.00  0.00    +0.182 C 
ATOM     20  O   UNL     1       0.088   3.828  -0.196  0.00  0.00    -0.290 OA
BRANCH  19  24
ATOM     21  C   UNL     1      -2.764   1.845   4.869  0.00  0.00    +0.051 C 
ATOM     22  C   UNL     1      -2.026   1.949   3.559  0.00  0.00    -0.012 A 
ATOM     23  C   UNL     1      -1.661   3.060   2.892  0.00  0.00    +0.022 A 
ATOM     24  C   UNL     1      -0.952   2.876   1.649  0.00  0.00    +0.029 A 
ATOM     25  C   UNL     1      -0.718   1.572   1.248  0.00  0.00    -0.003 A 
ATOM     26  S   UNL     1      -1.426   0.634   2.520  0.00  0.00    -0.098 S 
ATOM     27  C   UNL     1      -0.013   1.086   0.008  0.00  0.00    +0.052 C 
ENDBRANCH  19  24
ENDBRANCH  18  19
ENDBRANCH   1  18
TORSDOF 3
