REMARK  Name = ZINC26991668
REMARK  9 active torsions:
REMARK  status: ('A' for Active; 'I' for Inactive)
REMARK    1  A    between atoms: C_1  and  C_2
REMARK    2  A    between atoms: C_5  and  N_8
REMARK    3  A    between atoms: C_9  and  C_11
REMARK    4  A    between atoms: C_11  and  C_13
REMARK    5  A    between atoms: C_11  and  N_14
REMARK    6  A    between atoms: N_14  and  C_15
REMARK    7  A    between atoms: C_18  and  N_21
REMARK    8  A    between atoms: N_24  and  C_25
REMARK    9  A    between atoms: C_25  and  C_26
REMARK                            x       y       z     vdW  Elec       q    Type
REMARK                         _______ _______ _______ _____ _____    ______ ____
ROOT
ATOM      1  C   UNL     1      -5.770  -0.493  -4.075  0.00  0.00    +0.028 A 
ATOM      2  C   UNL     1      -6.174  -1.455  -3.158  0.00  0.00    +0.025 A 
ATOM      3  C   UNL     1      -7.186  -2.336  -3.482  0.00  0.00    +0.025 A 
ATOM      4  C   UNL     1      -7.792  -2.268  -4.729  0.00  0.00    +0.035 A 
ATOM      5  C   UNL     1      -7.385  -1.310  -5.648  0.00  0.00    +0.025 A 
ATOM      6  C   UNL     1      -6.377  -0.425  -5.322  0.00  0.00    +0.025 A 
ENDROOT
BRANCH   4   7
ATOM      7  N   UNL     1      -8.816  -3.167  -5.061  0.00  0.00    -0.269 N 
ATOM      8  C   UNL     1      -8.954  -3.591  -6.332  0.00  0.00    +0.304 C 
ATOM      9  O   UNL     1      -8.135  -3.272  -7.173  0.00  0.00    -0.252 OA
ATOM     10  N   UNL     1     -10.001  -4.370  -6.673  0.00  0.00    -0.292 N 
ATOM     11  H   UNL     1      -9.506  -3.526  -4.283  0.00  0.00    +0.156 HD
ATOM     12  H   UNL     1     -10.742  -4.659  -5.913  0.00  0.00    +0.151 HD
BRANCH  10  13
ATOM     13  C   UNL     1     -10.151  -4.831  -8.055  0.00  0.00    +0.180 C 
BRANCH  13  14
ATOM     14  C   UNL     1     -11.393  -5.678  -8.170  0.00  0.00    +0.122 A 
ATOM     15  C   UNL     1     -12.627  -5.230  -8.463  0.00  0.00    +0.046 A 
ATOM     16  C   UNL     1     -13.481  -6.357  -8.466  0.00  0.00    +0.041 A 
ATOM     17  C   UNL     1     -12.718  -7.426  -8.175  0.00  0.00    +0.195 A 
ATOM     18  O   UNL     1     -11.453  -7.009  -8.002  0.00  0.00    -0.466 OA
ENDBRANCH  13  14
ENDBRANCH  10  13
ENDBRANCH   4   7
BRANCH   1  19
ATOM     19  N   UNL     1      -4.749   0.404  -3.744  0.00  0.00    -0.333 N 
ATOM     20  H   UNL     1      -4.426   1.163  -4.472  0.00  0.00    +0.147 HD
BRANCH  19  21
ATOM     21  C   UNL     1      -4.109   0.333  -2.428  0.00  0.00    +0.154 C 
ATOM     22  C   UNL     1      -4.935   1.128  -1.415  0.00  0.00    +0.038 C 
BRANCH  21  24
ATOM     23  N   UNL     1      -1.940   0.955  -1.415  0.00  0.00    -0.311 N 
ATOM     24  C   UNL     1      -2.721   0.914  -2.512  0.00  0.00    +0.233 C 
ATOM     25  O   UNL     1      -2.307   1.347  -3.567  0.00  0.00    -0.274 OA
ATOM     26  H   UNL     1      -2.315   0.563  -0.458  0.00  0.00    +0.149 HD
BRANCH  23  31
ATOM     27  C   UNL     1      -1.008   3.094   2.513  0.00  0.00    +0.007 C 
ATOM     28  C   UNL     1      -0.399   2.767   1.148  0.00  0.00    -0.014 C 
ATOM     29  C   UNL     1      -0.327   1.248   0.973  0.00  0.00    +0.005 C 
ATOM     30  C   UNL     1       0.282   0.921  -0.392  0.00  0.00    +0.022 C 
ATOM     31  C   UNL     1      -0.591   1.521  -1.496  0.00  0.00    +0.073 C 
ATOM     32  C   UNL     1      -0.663   3.039  -1.321  0.00  0.00    +0.022 C 
ATOM     33  C   UNL     1      -1.272   3.366   0.044  0.00  0.00    +0.005 C 
ENDBRANCH  23  31
ENDBRANCH  21  24
ENDBRANCH  19  21
ENDBRANCH   1  19
TORSDOF 7
