REMARK  Name = ZINC16572471
REMARK  11 active torsions:
REMARK  status: ('A' for Active; 'I' for Inactive)
REMARK    1  A    between atoms: C_1  and  C_2
REMARK    2  A    between atoms: C_2  and  C_3
REMARK    3  A    between atoms: C_3  and  C_5
REMARK    4  A    between atoms: C_3  and  C_6
REMARK    5  A    between atoms: C_6  and  C_8
REMARK    6  A    between atoms: C_6  and  N_23
REMARK    7  A    between atoms: C_14  and  C_16
REMARK    8  A    between atoms: C_19  and  C_22
REMARK    9  A    between atoms: N_26  and  C_27
REMARK   10  A    between atoms: C_30  and  S_33
REMARK   11  A    between atoms: S_33  and  C_34
REMARK                            x       y       z     vdW  Elec       q    Type
REMARK                         _______ _______ _______ _____ _____    ______ ____
ROOT
ATOM      1  C   UNL     1      -0.241   2.145   0.089  0.00  0.00    +0.163 C 
ENDROOT
BRANCH   1   2
ATOM      2  C   UNL     1       0.865   2.462  -0.885  0.00  0.00    +0.239 C 
ATOM      3  O   UNL     1       1.196   1.640  -1.714  0.00  0.00    -0.273 OA
ATOM      4  N   UNL     1       1.485   3.657  -0.836  0.00  0.00    -0.262 N 
ATOM      5  C   UNL     1       2.436   3.986  -1.794  0.00  0.00    +0.188 A 
ATOM      6  N   UNL     1       2.876   3.278  -2.821  0.00  0.00    -0.125 NA
ATOM      7  N   UNL     1       3.752   3.724  -3.614  0.00  0.00    -0.140 NA
ATOM      8  C   UNL     1       4.271   4.932  -3.430  0.00  0.00    +0.134 A 
ATOM      9  S   UNL     1       3.376   5.439  -1.967  0.00  0.00    -0.030 S 
ATOM     10  H   UNL     1       1.268   4.287  -0.131  0.00  0.00    +0.157 HD
BRANCH   8  11
ATOM     11  C   UNL     1       5.297   5.653  -4.212  0.00  0.00    +0.009 A 
ATOM     12  C   UNL     1       5.694   6.936  -3.833  0.00  0.00    +0.011 A 
ATOM     13  C   UNL     1       6.657   7.601  -4.564  0.00  0.00    +0.004 A 
ATOM     14  C   UNL     1       7.221   7.003  -5.677  0.00  0.00    -0.050 A 
ATOM     15  C   UNL     1       6.827   5.733  -6.062  0.00  0.00    +0.004 A 
ATOM     16  C   UNL     1       5.870   5.055  -5.336  0.00  0.00    +0.011 A 
ATOM     17  C   UNL     1       8.267   7.738  -6.474  0.00  0.00    +0.044 C 
ENDBRANCH   8  11
ENDBRANCH   1   2
BRANCH   1  18
ATOM     18  N   UNL     1      -0.775   0.811  -0.195  0.00  0.00    -0.288 N 
ATOM     19  C   UNL     1      -2.105   0.596  -0.159  0.00  0.00    +0.304 C 
ATOM     20  O   UNL     1      -2.856   1.487   0.190  0.00  0.00    -0.252 OA
ATOM     21  N   UNL     1      -2.603  -0.605  -0.512  0.00  0.00    -0.269 N 
ATOM     22  H   UNL     1      -0.171   0.082  -0.407  0.00  0.00    +0.151 HD
ATOM     23  H   UNL     1      -2.002  -1.341  -0.709  0.00  0.00    +0.156 HD
BRANCH  21  24
ATOM     24  C   UNL     1      -3.990  -0.793  -0.594  0.00  0.00    +0.035 A 
ATOM     25  C   UNL     1      -4.543  -2.028  -0.283  0.00  0.00    +0.024 A 
ATOM     26  C   UNL     1      -5.909  -2.211  -0.359  0.00  0.00    +0.016 A 
ATOM     27  C   UNL     1      -6.730  -1.163  -0.757  0.00  0.00    +0.008 A 
ATOM     28  C   UNL     1      -6.175   0.071  -1.073  0.00  0.00    +0.016 A 
ATOM     29  C   UNL     1      -4.810   0.256  -0.991  0.00  0.00    +0.024 A 
BRANCH  27  30
ATOM     30  S   UNL     1      -8.473  -1.398  -0.860  0.00  0.00    -0.129 S 
ATOM     31  C   UNL     1      -8.713  -3.126  -0.364  0.00  0.00    +0.090 C 
ENDBRANCH  27  30
ENDBRANCH  21  24
ENDBRANCH   1  18
BRANCH   1  32
ATOM     32  C   UNL     1       0.311   2.181   1.516  0.00  0.00    +0.015 C 
ATOM     33  C   UNL     1      -0.839   2.023   2.512  0.00  0.00    +0.010 C 
BRANCH  32  35
ATOM     34  C   UNL     1       2.545   1.291   0.837  0.00  0.00    +0.004 C 
ATOM     35  C   UNL     1       1.310   1.038   1.705  0.00  0.00    +0.002 C 
ENDBRANCH  32  35
ENDBRANCH   1  32
TORSDOF 7
