REMARK  Name = ZINC35636972
REMARK  11 active torsions:
REMARK  status: ('A' for Active; 'I' for Inactive)
REMARK    1  A    between atoms: C_1  and  N_2
REMARK    2  A    between atoms: N_2  and  C_3
REMARK    3  A    between atoms: N_2  and  C_4
REMARK    4  A    between atoms: C_4  and  C_5
REMARK    5  A    between atoms: C_5  and  N_6
REMARK    6  A    between atoms: C_7  and  C_9
REMARK    7  A    between atoms: C_9  and  N_10
REMARK    8  A    between atoms: C_16  and  C_25
REMARK    9  A    between atoms: N_21  and  C_22
REMARK   10  A    between atoms: C_22  and  C_23
REMARK   11  A    between atoms: C_30  and  C_31
REMARK                            x       y       z     vdW  Elec       q    Type
REMARK                         _______ _______ _______ _____ _____    ______ ____
ROOT
ATOM      1  N   UNL     1      -6.533  -0.782  -3.576  0.00  0.00    -0.283 N 
ATOM      2  C   UNL     1      -7.231   0.500  -3.757  0.00  0.00    +0.160 C 
ATOM      3  C   UNL     1      -7.648   0.514  -5.211  0.00  0.00    +0.043 C 
ATOM      4  C   UNL     1      -7.211  -0.646  -5.742  0.00  0.00    +0.058 C 
ATOM      5  C   UNL     1      -6.544  -1.413  -4.764  0.00  0.00    +0.247 C 
ATOM      6  O   UNL     1      -6.044  -2.504  -4.968  0.00  0.00    -0.270 OA
ATOM      7  C   UNL     1      -7.496  -0.901  -7.208  0.00  0.00    +0.142 C 
ATOM      8  N   UNL     1      -8.231   0.147  -7.936  0.00  0.00    -0.288 N 
ATOM      9  C   UNL     1      -8.601   1.255  -7.266  0.00  0.00    +0.307 C 
ATOM     10  O   UNL     1      -9.209   2.126  -7.858  0.00  0.00    -0.252 OA
ATOM     11  N   UNL     1      -8.323   1.429  -5.967  0.00  0.00    -0.253 N 
ATOM     12  H   UNL     1      -8.443   0.042  -8.877  0.00  0.00    +0.151 HD
ENDROOT
BRANCH   7  13
ATOM     13  C   UNL     1      -6.178  -1.115  -7.907  0.00  0.00    -0.011 A 
ATOM     14  C   UNL     1      -5.314  -0.052  -8.094  0.00  0.00    +0.006 A 
ATOM     15  C   UNL     1      -4.106  -0.248  -8.735  0.00  0.00    +0.000 A 
ATOM     16  C   UNL     1      -3.760  -1.508  -9.189  0.00  0.00    +0.001 A 
ATOM     17  C   UNL     1      -4.623  -2.571  -9.001  0.00  0.00    +0.013 A 
ATOM     18  C   UNL     1      -5.831  -2.375  -8.356  0.00  0.00    +0.060 A 
BRANCH  18  19
ATOM     19  C   UNL     1      -6.770  -3.535  -8.147  0.00  0.00    +0.418 C 
ATOM     20  F   UNL     1      -6.175  -4.709  -8.623  0.00  0.00    -0.166 F 
ATOM     21  F   UNL     1      -7.044  -3.673  -6.782  0.00  0.00    -0.166 F 
ATOM     22  F   UNL     1      -7.962  -3.302  -8.841  0.00  0.00    -0.166 F 
ENDBRANCH  18  19
ENDBRANCH   7  13
BRANCH   1  23
ATOM     23  C   UNL     1      -5.933  -1.277  -2.335  0.00  0.00    +0.204 C 
BRANCH  23  25
ATOM     24  N   UNL     1      -3.744  -1.159  -1.190  0.00  0.00    -0.316 N 
ATOM     25  C   UNL     1      -4.499  -0.820  -2.253  0.00  0.00    +0.230 C 
ATOM     26  O   UNL     1      -4.026  -0.147  -3.144  0.00  0.00    -0.274 OA
ATOM     27  H   UNL     1      -4.123  -1.697  -0.477  0.00  0.00    +0.149 HD
BRANCH  24  28
ATOM     28  C   UNL     1      -2.350  -0.715  -1.110  0.00  0.00    +0.085 C 
BRANCH  28  29
ATOM     29  C   UNL     1      -1.723  -1.232   0.186  0.00  0.00    -0.061 C 
BRANCH  29  31
ATOM     30  C   UNL     1      -0.284   0.678   0.371  0.00  0.00    -0.097 C 
ATOM     31  N   UNL     1      -0.326  -0.786   0.266  0.00  0.00    +0.377 N 
ATOM     32  C   UNL     1       0.311  -1.380   1.449  0.00  0.00    -0.097 C 
ATOM     33  H   UNL     1       0.168  -1.078  -0.564  0.00  0.00    -0.083 HD
ENDBRANCH  29  31
ENDBRANCH  28  29
ENDBRANCH  24  28
ENDBRANCH  23  25
ENDBRANCH   1  23
BRANCH  11  34
ATOM     34  C   UNL     1      -8.767   2.667  -5.323  0.00  0.00    +0.141 C 
BRANCH  34  35
ATOM     35  C   UNL     1      -7.690   3.713  -5.448  0.00  0.00    -0.015 C 
ATOM     36  C   UNL     1      -7.966   4.877  -5.984  0.00  0.00    +0.005 C 
ENDBRANCH  34  35
ENDBRANCH  11  34
TORSDOF 9
