REMARK  Name = ZINC19927086
REMARK  6 active torsions:
REMARK  status: ('A' for Active; 'I' for Inactive)
REMARK    1  A    between atoms: C_3  and  N_31
REMARK    2  A    between atoms: C_4  and  C_8
REMARK    3  A    between atoms: N_9  and  N_10
REMARK    4  A    between atoms: C_11  and  C_13
REMARK    5  A    between atoms: C_14  and  C_24
REMARK    6  A    between atoms: C_24  and  N_25
REMARK                            x       y       z     vdW  Elec       q    Type
REMARK                         _______ _______ _______ _____ _____    ______ ____
ROOT
ATOM      1  C   UNL     1       0.111   6.875   0.028  0.00  0.00    +0.154 A 
ATOM      2  C   UNL     1       1.251   7.630   0.124  0.00  0.00    +0.079 A 
ATOM      3  N   UNL     1       2.265   6.768   0.218  0.00  0.00    -0.135 NA
ATOM      4  N   UNL     1       1.810   5.567   0.190  0.00  0.00    -0.058 NA
ATOM      5  N   UNL     1       0.528   5.568   0.082  0.00  0.00    -0.183 N 
ATOM      6  C   UNL     1      -0.294   4.439   0.022  0.00  0.00    +0.241 A 
ATOM      7  C   UNL     1       0.162   3.047  -0.035  0.00  0.00    +0.206 A 
ATOM      8  N   UNL     1      -0.887   2.272  -0.076  0.00  0.00    -0.032 NA
ATOM      9  O   UNL     1      -2.037   3.099  -0.054  0.00  0.00    -0.239 OA
ATOM     10  N   UNL     1      -1.597   4.444   0.004  0.00  0.00    -0.027 NA
ATOM     11  N   UNL     1       1.487   2.624  -0.039  0.00  0.00    -0.337 N 
ATOM     12  H   UNL     1       1.721   1.551  -0.085  0.00  0.00    +0.144 HD
ATOM     13  H   UNL     1       2.300   3.364   0.003  0.00  0.00    +0.144 HD
ENDROOT
BRANCH   1  15
ATOM     14  N   UNL     1      -2.023   7.558   1.000  0.00  0.00    -0.202 N 
ATOM     15  C   UNL     1      -1.271   7.364  -0.101  0.00  0.00    +0.284 C 
ATOM     16  O   UNL     1      -1.734   7.594  -1.202  0.00  0.00    -0.267 OA
ATOM     17  H   UNL     1      -1.580   7.427   1.999  0.00  0.00    +0.178 HD
BRANCH  14  19
ATOM     18  C   UNL     1      -4.094   8.111   1.934  0.00  0.00    +0.142 C 
ATOM     19  N   UNL     1      -3.369   7.925   0.873  0.00  0.00    -0.187 NA
BRANCH  18  23
ATOM     20  C   UNL     1      -8.172   9.224   1.550  0.00  0.00    +0.004 A 
ATOM     21  C   UNL     1      -7.650   8.940   2.800  0.00  0.00    +0.033 A 
ATOM     22  C   UNL     1      -6.326   8.578   2.932  0.00  0.00    +0.136 A 
ATOM     23  C   UNL     1      -5.511   8.497   1.800  0.00  0.00    +0.043 A 
ATOM     24  C   UNL     1      -6.043   8.791   0.542  0.00  0.00    +0.052 A 
ATOM     25  C   UNL     1      -7.372   9.147   0.424  0.00  0.00    +0.021 A 
ATOM     26 CL   UNL     1      -5.038   8.701  -0.871  0.00  0.00    -0.083 Cl
BRANCH  22  27
ATOM     27  N   UNL     1      -5.770   8.275   4.270  0.00  0.00    +0.057 N 
ATOM     28  O   UNL     1      -4.962   7.373   4.404  0.00  0.00    -0.126 OA
ATOM     29  O   UNL     1      -6.120   8.927   5.237  0.00  0.00    -0.126 OA
ENDBRANCH  22  27
ENDBRANCH  18  23
ENDBRANCH  14  19
ENDBRANCH   1  15
BRANCH   2  30
ATOM     30  C   UNL     1       1.342   9.134   0.118  0.00  0.00    -0.018 C 
BRANCH  30  31
ATOM     31  N   UNL     1       1.489   9.610  -1.264  0.00  0.00    +0.383 N 
ATOM     32  C   UNL     1       2.769   9.175  -1.837  0.00  0.00    -0.078 C 
ATOM     33  C   UNL     1       2.825   9.562  -3.316  0.00  0.00    -0.019 C 
ATOM     34  C   UNL     1       2.676  11.081  -3.447  0.00  0.00    -0.004 C 
ATOM     35  C   UNL     1       1.357  11.514  -2.800  0.00  0.00    -0.019 C 
ATOM     36  C   UNL     1       1.344  11.070  -1.335  0.00  0.00    -0.078 C 
ATOM     37  H   UNL     1       0.684   9.163  -1.865  0.00  0.00    -0.081 HD
ENDBRANCH  30  31
ENDBRANCH   2  30
TORSDOF 6
