REMARK  Name = ZINC25566118
REMARK  10 active torsions:
REMARK  status: ('A' for Active; 'I' for Inactive)
REMARK    1  A    between atoms: C_1  and  C_2
REMARK    2  A    between atoms: C_2  and  C_4
REMARK    3  A    between atoms: C_2  and  N_14
REMARK    4  A    between atoms: C_15  and  C_17
REMARK    5  A    between atoms: C_17  and  C_19
REMARK    6  A    between atoms: C_17  and  N_20
REMARK    7  A    between atoms: N_23  and  S_26
REMARK    8  A    between atoms: S_26  and  C_29
REMARK    9  A    between atoms: C_32  and  O_35
REMARK   10  A    between atoms: O_35  and  C_36
REMARK                            x       y       z     vdW  Elec       q    Type
REMARK                         _______ _______ _______ _____ _____    ______ ____
ROOT
ATOM      1  C   UNL     1       0.337   5.173   2.042  0.00  0.00    +0.016 C 
ATOM      2  C   UNL     1      -0.733   5.552   3.068  0.00  0.00    -0.004 C 
ENDROOT
BRANCH   1   3
ATOM      3  N   UNL     1       1.651   5.628   2.514  0.00  0.00    +0.389 N 
ATOM      4  C   UNL     1       1.985   5.020   3.809  0.00  0.00    -0.060 C 
ATOM      5  C   UNL     1       3.430   5.374   4.178  0.00  0.00    +0.091 C 
ATOM      6  N   UNL     1       3.583   6.835   4.120  0.00  0.00    -0.180 NA
ATOM      7  C   UNL     1       3.140   7.533   2.903  0.00  0.00    +0.091 C 
ATOM      8  C   UNL     1       1.707   7.095   2.584  0.00  0.00    -0.060 C 
ATOM      9  H   UNL     1       2.407   5.299   1.785  0.00  0.00    -0.081 HD
BRANCH   6  10
ATOM     10  S   UNL     1       4.236   7.673   5.391  0.00  0.00    +0.061 S 
ATOM     11  O   UNL     1       5.040   6.752   6.114  0.00  0.00    -0.153 OA
ATOM     12  O   UNL     1       4.755   8.882   4.855  0.00  0.00    -0.153 OA
BRANCH  10  13
ATOM     13  C   UNL     1       2.906   8.124   6.455  0.00  0.00    +0.106 A 
ATOM     14  C   UNL     1       2.252   9.328   6.271  0.00  0.00    +0.032 A 
ATOM     15  C   UNL     1       1.206   9.681   7.101  0.00  0.00    +0.047 A 
ATOM     16  C   UNL     1       0.819   8.832   8.127  0.00  0.00    +0.120 A 
ATOM     17  C   UNL     1       1.480   7.627   8.314  0.00  0.00    +0.047 A 
ATOM     18  C   UNL     1       2.522   7.276   7.478  0.00  0.00    +0.032 A 
BRANCH  16  19
ATOM     19  O   UNL     1      -0.207   9.180   8.948  0.00  0.00    -0.495 OA
ATOM     20  C   UNL     1      -0.842  10.435   8.697  0.00  0.00    +0.277 C 
ENDBRANCH  16  19
ENDBRANCH  10  13
ENDBRANCH   6  10
ENDBRANCH   1   3
BRANCH   1  22
ATOM     21  N   UNL     1      -0.748   3.034   1.438  0.00  0.00    -0.310 N 
ATOM     22  C   UNL     1       0.356   3.677   1.866  0.00  0.00    +0.200 C 
ATOM     23  O   UNL     1       1.366   3.051   2.110  0.00  0.00    -0.278 OA
ATOM     24  H   UNL     1      -1.664   3.602   1.217  0.00  0.00    +0.149 HD
BRANCH  21  26
ATOM     25  C   UNL     1      -0.213   1.237  -0.132  0.00  0.00    +0.033 C 
ATOM     26  C   UNL     1      -0.729   1.579   1.267  0.00  0.00    +0.101 C 
BRANCH  26  27
ATOM     27  C   UNL     1      -2.124   1.035   1.435  0.00  0.00    -0.020 A 
ATOM     28  C   UNL     1      -3.202   1.823   1.169  0.00  0.00    +0.006 A 
ATOM     29  C   UNL     1      -4.500   1.336   1.314  0.00  0.00    +0.001 A 
ATOM     30  C   UNL     1      -4.727   0.062   1.736  0.00  0.00    +0.008 A 
ATOM     31  C   UNL     1      -3.639  -0.779   2.025  0.00  0.00    -0.018 A 
ATOM     32  C   UNL     1      -2.319  -0.285   1.873  0.00  0.00    -0.013 A 
ATOM     33  C   UNL     1      -1.231  -1.127   2.162  0.00  0.00    +0.009 A 
ATOM     34  C   UNL     1      -1.459  -2.401   2.583  0.00  0.00    +0.001 A 
ATOM     35  C   UNL     1      -2.757  -2.886   2.733  0.00  0.00    +0.001 A 
ATOM     36  C   UNL     1      -3.834  -2.100   2.462  0.00  0.00    +0.008 A 
ENDBRANCH  26  27
ENDBRANCH  21  26
ENDBRANCH   1  22
TORSDOF 7
