REMARK  Name = ZINC32759348
REMARK  7 active torsions:
REMARK  status: ('A' for Active; 'I' for Inactive)
REMARK    1  A    between atoms: C_1  and  C_2
REMARK    2  A    between atoms: C_2  and  C_4
REMARK    3  A    between atoms: C_2  and  N_11
REMARK    4  A    between atoms: N_11  and  C_12
REMARK    5  A    between atoms: C_12  and  C_13
REMARK    6  A    between atoms: N_18  and  S_21
REMARK    7  A    between atoms: S_21  and  C_24
REMARK                            x       y       z     vdW  Elec       q    Type
REMARK                         _______ _______ _______ _____ _____    ______ ____
ROOT
ATOM      1  C   UNL     1       2.125   0.993   1.166  0.00  0.00    +0.199 C 
ATOM      2  O   UNL     1       1.591   0.218   1.931  0.00  0.00    -0.278 OA
ATOM      3  N   UNL     1       3.408   1.356   1.360  0.00  0.00    -0.300 N 
ATOM      4  C   UNL     1       4.069   2.289   0.437  0.00  0.00    +0.125 C 
ATOM      5  C   UNL     1       4.624   3.468   1.253  0.00  0.00    +0.128 C 
ATOM      6  N   UNL     1       5.389   2.933   2.388  0.00  0.00    -0.174 NA
ATOM      7  C   UNL     1       4.730   1.996   3.308  0.00  0.00    +0.128 C 
ATOM      8  C   UNL     1       4.173   0.821   2.495  0.00  0.00    +0.125 C 
ENDROOT
BRANCH   6   9
ATOM      9  S   UNL     1       6.966   3.378   2.626  0.00  0.00    +0.061 S 
ATOM     10  O   UNL     1       7.135   4.635   1.984  0.00  0.00    -0.153 OA
ATOM     11  O   UNL     1       7.239   3.185   4.007  0.00  0.00    -0.153 OA
BRANCH   9  12
ATOM     12  C   UNL     1       7.971   2.227   1.748  0.00  0.00    +0.106 A 
ATOM     13  C   UNL     1       8.419   1.081   2.379  0.00  0.00    +0.031 A 
ATOM     14  C   UNL     1       9.203   0.174   1.690  0.00  0.00    +0.040 A 
ATOM     15  C   UNL     1       9.547   0.419   0.372  0.00  0.00    +0.124 A 
ATOM     16  C   UNL     1       9.102   1.570  -0.257  0.00  0.00    +0.040 A 
ATOM     17  C   UNL     1       8.314   2.472   0.432  0.00  0.00    +0.031 A 
ATOM     18  F   UNL     1      10.317  -0.464  -0.301  0.00  0.00    -0.205 F 
ENDBRANCH   9  12
ENDBRANCH   6   9
BRANCH   1  19
ATOM     19  C   UNL     1       1.353   1.550  -0.003  0.00  0.00    +0.016 C 
BRANCH  19  20
ATOM     20  N   UNL     1      -0.012   1.005   0.008  0.00  0.00    +0.389 N 
ATOM     21  H   UNL     1      -0.497   1.287   0.954  0.00  0.00    -0.084 HD
ATOM     22  H   UNL     1       0.046  -0.091  -0.062  0.00  0.00    -0.084 HD
BRANCH  20  24
ATOM     23  C   UNL     1      -1.403   2.878  -0.736  0.00  0.00    -0.009 C 
ATOM     24  C   UNL     1      -0.795   1.527  -1.120  0.00  0.00    -0.042 C 
BRANCH  24  25
ATOM     25  C   UNL     1      -1.899   0.557  -1.456  0.00  0.00    -0.043 A 
ATOM     26  C   UNL     1      -2.376  -0.310  -0.490  0.00  0.00    +0.003 A 
ATOM     27  C   UNL     1      -3.391  -1.196  -0.798  0.00  0.00    +0.000 A 
ATOM     28  C   UNL     1      -3.924  -1.223  -2.073  0.00  0.00    +0.001 A 
ATOM     29  C   UNL     1      -3.444  -0.360  -3.041  0.00  0.00    +0.020 A 
ATOM     30  C   UNL     1      -2.431   0.530  -2.733  0.00  0.00    +0.043 A 
ATOM     31 CL   UNL     1      -1.828   1.614  -3.948  0.00  0.00    -0.083 Cl
ENDBRANCH  24  25
ENDBRANCH  20  24
ENDBRANCH  19  20
ENDBRANCH   1  19
TORSDOF 6
