REMARK  Name = ZINC04066029
REMARK  9 active torsions:
REMARK  status: ('A' for Active; 'I' for Inactive)
REMARK    1  A    between atoms: C_1  and  C_2
REMARK    2  A    between atoms: C_5  and  S_8
REMARK    3  A    between atoms: S_8  and  N_11
REMARK    4  A    between atoms: N_11  and  C_12
REMARK    5  A    between atoms: N_11  and  C_22
REMARK    6  A    between atoms: C_12  and  C_13
REMARK    7  A    between atoms: C_13  and  C_15
REMARK    8  A    between atoms: C_13  and  O_21
REMARK    9  A    between atoms: C_15  and  N_61
REMARK                            x       y       z     vdW  Elec       q    Type
REMARK                         _______ _______ _______ _____ _____    ______ ____
ROOT
ATOM      1  N   UNL     1      -0.721   1.571  -1.179  0.00  0.00    -0.200 N 
ENDROOT
BRANCH   1   2
ATOM      2  C   UNL     1      -1.809   0.859  -1.680  0.00  0.00    +0.059 A 
ATOM      3  C   UNL     1      -3.071   1.061  -1.163  0.00  0.00    +0.025 A 
ATOM      4  C   UNL     1      -4.164   0.356  -1.657  0.00  0.00    +0.002 A 
ATOM      5  C   UNL     1      -4.019  -0.552  -2.662  0.00  0.00    +0.008 A 
ATOM      6  C   UNL     1      -2.750  -0.787  -3.217  0.00  0.00    -0.016 A 
ATOM      7  C   UNL     1      -1.630  -0.071  -2.727  0.00  0.00    +0.005 A 
ATOM      8  C   UNL     1      -0.362  -0.311  -3.279  0.00  0.00    +0.010 A 
ATOM      9  C   UNL     1      -0.225  -1.220  -4.283  0.00  0.00    +0.001 A 
ATOM     10  C   UNL     1      -1.327  -1.922  -4.769  0.00  0.00    +0.001 A 
ATOM     11  C   UNL     1      -2.570  -1.718  -4.255  0.00  0.00    +0.008 A 
ENDBRANCH   1   2
BRANCH   1  12
ATOM     12  S   UNL     1      -0.229   2.966  -1.924  0.00  0.00    +0.075 S 
ATOM     13  O   UNL     1      -1.357   3.470  -2.627  0.00  0.00    -0.150 OA
ATOM     14  O   UNL     1       0.461   3.728  -0.944  0.00  0.00    -0.150 OA
BRANCH  12  19
ATOM     15  C   UNL     1       3.849   1.418  -6.093  0.00  0.00    +0.044 C 
ATOM     16  C   UNL     1       2.830   1.805  -5.052  0.00  0.00    -0.050 A 
ATOM     17  C   UNL     1       1.489   1.857  -5.383  0.00  0.00    +0.005 A 
ATOM     18  C   UNL     1       0.555   2.212  -4.428  0.00  0.00    +0.029 A 
ATOM     19  C   UNL     1       0.962   2.514  -3.142  0.00  0.00    +0.109 A 
ATOM     20  C   UNL     1       2.303   2.466  -2.812  0.00  0.00    +0.029 A 
ATOM     21  C   UNL     1       3.237   2.107  -3.766  0.00  0.00    +0.005 A 
ENDBRANCH  12  19
ENDBRANCH   1  12
BRANCH   1  22
ATOM     22  C   UNL     1      -0.013   1.086   0.008  0.00  0.00    +0.161 C 
BRANCH  22  23
ATOM     23  C   UNL     1      -0.729   1.579   1.267  0.00  0.00    +0.117 C 
BRANCH  23  24
ATOM     24  O   UNL     1      -2.030   0.991   1.336  0.00  0.00    -0.392 OA
ATOM     25  H   UNL     1      -2.023   0.025   1.372  0.00  0.00    +0.210 HD
ENDBRANCH  23  24
BRANCH  23  26
ATOM     26  C   UNL     1       0.079   1.179   2.503  0.00  0.00    -0.046 C 
BRANCH  26  32
ATOM     27  C   UNL     1      -0.632   3.120   3.763  0.00  0.00    -0.079 C 
ATOM     28  C   UNL     1      -1.478   3.577   4.954  0.00  0.00    -0.019 C 
ATOM     29  C   UNL     1      -0.881   3.011   6.245  0.00  0.00    -0.004 C 
ATOM     30  C   UNL     1      -0.824   1.484   6.146  0.00  0.00    -0.019 C 
ATOM     31  C   UNL     1       0.004   1.088   4.921  0.00  0.00    -0.079 C 
ATOM     32  N   UNL     1      -0.637   1.642   3.709  0.00  0.00    +0.381 N 
ATOM     33  H   UNL     1      -1.609   1.314   3.667  0.00  0.00    -0.082 HD
ENDBRANCH  26  32
ENDBRANCH  23  26
ENDBRANCH  22  23
ENDBRANCH   1  22
TORSDOF 8
