REMARK  Name = ZINC04944277
REMARK  3 active torsions:
REMARK  status: ('A' for Active; 'I' for Inactive)
REMARK    1  A    between atoms: C_1  and  S_2
REMARK    2  A    between atoms: S_2  and  C_3
REMARK    3  A    between atoms: C_15  and  C_17
REMARK                            x       y       z     vdW  Elec       q    Type
REMARK                         _______ _______ _______ _____ _____    ______ ____
ROOT
ATOM      1  C   UNL     1      -1.702  -0.454   0.016  0.00  0.00    +0.171 A 
ATOM      2  N   UNL     1      -2.042  -1.772   0.018  0.00  0.00    -0.302 N 
ATOM      3  H   UNL     1      -1.350  -2.452   0.011  0.00  0.00    +0.171 HD
ATOM      4  C   UNL     1      -3.343  -2.135   0.029  0.00  0.00    +0.258 A 
ATOM      5  O   UNL     1      -3.661  -3.314   0.031  0.00  0.00    -0.267 OA
ATOM      6  C   UNL     1      -4.317  -1.133   0.038  0.00  0.00    +0.065 A 
ATOM      7  C   UNL     1      -3.921   0.194   0.036  0.00  0.00    +0.137 A 
ATOM      8  N   UNL     1      -2.618   0.494   0.030  0.00  0.00    -0.208 NA
ATOM      9  N   UNL     1      -4.872   1.200   0.044  0.00  0.00    -0.270 N 
ATOM     10  C   UNL     1      -6.138   0.944   0.418  0.00  0.00    +0.219 C 
ATOM     11  O   UNL     1      -6.959   1.836   0.401  0.00  0.00    -0.275 OA
ATOM     12  C   UNL     1      -6.550  -0.436   0.855  0.00  0.00    +0.109 C 
ATOM     13  C   UNL     1      -5.780  -1.486   0.051  0.00  0.00    +0.066 C 
ATOM     14  H   UNL     1      -4.622   2.099  -0.222  0.00  0.00    +0.156 HD
ENDROOT
BRANCH  13  15
ATOM     15  C   UNL     1      -6.302  -1.518  -1.362  0.00  0.00    -0.038 A 
ATOM     16  C   UNL     1      -6.234  -0.384  -2.150  0.00  0.00    +0.006 A 
ATOM     17  C   UNL     1      -6.713  -0.412  -3.446  0.00  0.00    +0.022 A 
ATOM     18  C   UNL     1      -7.260  -1.576  -3.956  0.00  0.00    +0.059 A 
ATOM     19  C   UNL     1      -7.327  -2.712  -3.167  0.00  0.00    +0.060 A 
ATOM     20  C   UNL     1      -6.843  -2.683  -1.872  0.00  0.00    +0.025 A 
ATOM     21 CL   UNL     1      -8.014  -4.173  -3.806  0.00  0.00    -0.082 Cl
ATOM     22 CL   UNL     1      -7.862  -1.611  -5.584  0.00  0.00    -0.082 Cl
ENDBRANCH  13  15
BRANCH   1  24
ATOM     23  C   UNL     1      -0.022   1.810   0.012  0.00  0.00    +0.093 C 
ATOM     24  S   UNL     1       0.002  -0.004   0.002  0.00  0.00    -0.091 S 
ENDBRANCH   1  24
TORSDOF 2
