REMARK  Name = ZINC25025390
REMARK  9 active torsions:
REMARK  status: ('A' for Active; 'I' for Inactive)
REMARK    1  A    between atoms: C_1  and  C_2
REMARK    2  A    between atoms: C_3  and  C_31
REMARK    3  A    between atoms: N_9  and  C_26
REMARK    4  A    between atoms: C_10  and  S_12
REMARK    5  A    between atoms: S_12  and  C_13
REMARK    6  A    between atoms: C_13  and  C_15
REMARK    7  A    between atoms: C_13  and  C_16
REMARK    8  A    between atoms: N_22  and  C_23
REMARK    9  A    between atoms: N_22  and  C_24
REMARK                            x       y       z     vdW  Elec       q    Type
REMARK                         _______ _______ _______ _____ _____    ______ ____
ROOT
ATOM      1  C   UNL     1       2.377   5.946  -0.266  0.00  0.00    +0.045 C 
ATOM      2  C   UNL     1       3.364   4.810  -0.176  0.00  0.00    -0.026 A 
ATOM      3  C   UNL     1       4.682   5.056  -0.169  0.00  0.00    -0.008 A 
ATOM      4  S   UNL     1       5.405   3.430  -0.051  0.00  0.00    -0.073 S 
ATOM      5  C   UNL     1       3.915   2.468  -0.014  0.00  0.00    +0.117 A 
ATOM      6  C   UNL     1       2.897   3.436  -0.095  0.00  0.00    +0.075 A 
ATOM      7  C   UNL     1       1.558   2.934  -0.090  0.00  0.00    +0.263 A 
ATOM      8  O   UNL     1       0.611   3.698  -0.162  0.00  0.00    -0.267 OA
ATOM      9  N   UNL     1       1.357   1.606  -0.002  0.00  0.00    -0.284 N 
ATOM     10  C   UNL     1       2.405   0.735   0.072  0.00  0.00    +0.174 A 
ATOM     11  N   UNL     1       3.648   1.170   0.065  0.00  0.00    -0.216 NA
ATOM     12  C   UNL     1       5.384   6.387  -0.243  0.00  0.00    +0.052 C 
ENDROOT
BRANCH   9  13
ATOM     13  C   UNL     1      -0.013   1.086   0.008  0.00  0.00    +0.093 C 
ATOM     14  C   UNL     1      -0.740   1.536   1.292  0.00  0.00    +0.025 C 
ATOM     15  C   UNL     1      -1.516   2.807   0.862  0.00  0.00    +0.002 C 
ATOM     16  C   UNL     1      -1.989   2.451  -0.569  0.00  0.00    +0.002 C 
ATOM     17  C   UNL     1      -0.806   1.668  -1.175  0.00  0.00    +0.025 C 
ENDBRANCH   9  13
BRANCH  10  18
ATOM     18  S   UNL     1       2.090  -0.996   0.178  0.00  0.00    -0.077 S 
BRANCH  18  19
ATOM     19  C   UNL     1       3.787  -1.620   0.248  0.00  0.00    +0.119 C 
ATOM     20  C   UNL     1       4.500  -1.310  -1.070  0.00  0.00    +0.028 C 
BRANCH  19  21
ATOM     21  C   UNL     1       3.766  -3.111   0.468  0.00  0.00    +0.149 A 
ATOM     22  N   UNL     1       2.932  -3.867  -0.224  0.00  0.00    -0.198 NA
ATOM     23  C   UNL     1       2.913  -5.185  -0.036  0.00  0.00    +0.217 A 
ATOM     24  N   UNL     1       3.727  -5.738   0.857  0.00  0.00    -0.181 NA
ATOM     25  C   UNL     1       4.560  -4.974   1.554  0.00  0.00    +0.222 A 
ATOM     26  N   UNL     1       4.576  -3.658   1.357  0.00  0.00    -0.198 NA
ATOM     27  N   UNL     1       5.407  -5.544   2.482  0.00  0.00    -0.306 N 
ATOM     28  C   UNL     1       6.326  -4.701   3.251  0.00  0.00    +0.132 C 
ATOM     29  C   UNL     1       5.388  -6.993   2.699  0.00  0.00    +0.132 C 
ATOM     30  N   UNL     1       2.046  -5.974  -0.763  0.00  0.00    -0.327 N 
ATOM     31  H   UNL     1       2.031  -7.063  -0.607  0.00  0.00    +0.145 HD
ATOM     32  H   UNL     1       1.370  -5.515  -1.499  0.00  0.00    +0.145 HD
ENDBRANCH  19  21
ENDBRANCH  18  19
ENDBRANCH  10  18
TORSDOF 4
