REMARK  Name = ZINC06052027
REMARK  6 active torsions:
REMARK  status: ('A' for Active; 'I' for Inactive)
REMARK    1  A    between atoms: C_1  and  C_2
REMARK    2  A    between atoms: C_8  and  N_10
REMARK    3  A    between atoms: C_11  and  C_13
REMARK    4  A    between atoms: C_17  and  S_19
REMARK    5  A    between atoms: S_19  and  N_22
REMARK    6  A    between atoms: C_30  and  C_32
REMARK                            x       y       z     vdW  Elec       q    Type
REMARK                         _______ _______ _______ _____ _____    ______ ____
ROOT
ATOM      1  C   UNL     1      -0.017   1.391   0.010  0.00  0.00    +0.039 A 
ATOM      2  C   UNL     1       1.186   2.100   0.002  0.00  0.00    +0.013 A 
ATOM      3  C   UNL     1       2.385   1.417  -0.013  0.00  0.00    +0.003 A 
ATOM      4  C   UNL     1       2.396   0.034  -0.021  0.00  0.00    +0.029 A 
ATOM      5  C   UNL     1       1.208  -0.674  -0.013  0.00  0.00    +0.109 A 
ATOM      6  C   UNL     1       0.002  -0.004   0.002  0.00  0.00    +0.041 A 
ENDROOT
BRANCH   1   8
ATOM      7  N   UNL     1      -1.320   3.464   0.027  0.00  0.00    -0.308 N 
ATOM      8  C   UNL     1      -1.305   2.116   0.020  0.00  0.00    +0.244 C 
ATOM      9  O   UNL     1      -2.351   1.497   0.021  0.00  0.00    -0.270 OA
ATOM     10  H   UNL     1      -0.486   3.958   0.026  0.00  0.00    +0.149 HD
BRANCH   7  17
ATOM     11  C   UNL     1      -1.885   5.420   2.087  0.00  0.00    +0.009 C 
ATOM     12  C   UNL     1      -2.397   5.569   0.653  0.00  0.00    +0.006 C 
ATOM     13  C   UNL     1      -3.731   6.319   0.664  0.00  0.00    +0.005 C 
ATOM     14  C   UNL     1      -4.244   6.467  -0.770  0.00  0.00    +0.000 C 
ATOM     15  C   UNL     1      -4.443   5.081  -1.386  0.00  0.00    +0.002 C 
ATOM     16  C   UNL     1      -3.110   4.331  -1.397  0.00  0.00    +0.022 C 
ATOM     17  C   UNL     1      -2.597   4.182   0.037  0.00  0.00    +0.076 C 
ENDBRANCH   7  17
ENDBRANCH   1   8
BRANCH   5  18
ATOM     18  S   UNL     1       1.234  -2.436  -0.023  0.00  0.00    +0.075 S 
ATOM     19  O   UNL     1       2.490  -2.827   0.513  0.00  0.00    -0.150 OA
ATOM     20  O   UNL     1       0.000  -2.864   0.537  0.00  0.00    -0.150 OA
BRANCH  18  21
ATOM     21  N   UNL     1       1.227  -2.917  -1.608  0.00  0.00    -0.200 N 
ATOM     22  C   UNL     1       2.367  -3.132  -2.384  0.00  0.00    +0.055 A 
ATOM     23  C   UNL     1       3.713  -3.003  -2.034  0.00  0.00    +0.025 A 
ATOM     24  C   UNL     1       4.700  -3.266  -2.959  0.00  0.00    +0.002 A 
ATOM     25  C   UNL     1       4.365  -3.660  -4.242  0.00  0.00    +0.000 A 
ATOM     26  C   UNL     1       3.035  -3.791  -4.596  0.00  0.00    +0.005 A 
ATOM     27  C   UNL     1       2.042  -3.529  -3.671  0.00  0.00    -0.023 A 
ATOM     28  C   UNL     1       0.535  -3.591  -3.790  0.00  0.00    +0.061 C 
ATOM     29  C   UNL     1       0.022  -3.184  -2.399  0.00  0.00    +0.099 C 
ATOM     30  C   UNL     1      -0.836  -1.922  -2.501  0.00  0.00    +0.030 C 
ENDBRANCH  18  21
ENDBRANCH   5  18
TORSDOF 4
