REMARK  Name = ZINC06362553
REMARK  6 active torsions:
REMARK  status: ('A' for Active; 'I' for Inactive)
REMARK    1  A    between atoms: C_6  and  C_7
REMARK    2  A    between atoms: C_9  and  C_12
REMARK    3  A    between atoms: C_12  and  O_13
REMARK    4  A    between atoms: O_13  and  C_14
REMARK    5  A    between atoms: C_14  and  C_16
REMARK    6  A    between atoms: C_19  and  N_22
REMARK                            x       y       z     vdW  Elec       q    Type
REMARK                         _______ _______ _______ _____ _____    ______ ____
ROOT
ATOM      1  O   UNL     1       4.848   0.011  -0.059  0.00  0.00    -0.455 OA
ENDROOT
BRANCH   1   2
ATOM      2  C   UNL     1       3.691  -0.680  -0.035  0.00  0.00    +0.340 C 
ATOM      3  O   UNL     1       3.709  -1.895  -0.026  0.00  0.00    -0.245 OA
BRANCH   2   4
ATOM      4  C   UNL     1       2.403   0.038  -0.020  0.00  0.00    +0.059 A 
ATOM      5  C   UNL     1       1.202  -0.678   0.005  0.00  0.00    +0.017 A 
ATOM      6  C   UNL     1       0.002  -0.004   0.019  0.00  0.00    +0.024 A 
ATOM      7  C   UNL     1      -0.017   1.387   0.010  0.00  0.00    +0.036 A 
ATOM      8  C   UNL     1       1.177   2.103  -0.015  0.00  0.00    +0.024 A 
ATOM      9  C   UNL     1       2.381   1.435  -0.030  0.00  0.00    +0.017 A 
BRANCH   7  10
ATOM     10  N   UNL     1      -1.234   2.066   0.019  0.00  0.00    -0.271 N 
ATOM     11  C   UNL     1      -1.369   3.523   0.133  0.00  0.00    +0.114 C 
ATOM     12  C   UNL     1      -2.840   3.771   0.535  0.00  0.00    +0.029 C 
ATOM     13  C   UNL     1      -3.536   2.507  -0.022  0.00  0.00    +0.098 C 
ATOM     14  C   UNL     1      -2.435   1.471  -0.081  0.00  0.00    +0.220 C 
ATOM     15  O   UNL     1      -2.611   0.277  -0.199  0.00  0.00    -0.275 OA
ENDBRANCH   7  10
ENDBRANCH   2   4
ENDBRANCH   1   2
BRANCH   1  16
ATOM     16  C   UNL     1       6.077  -0.762  -0.073  0.00  0.00    +0.288 C 
BRANCH  16  19
ATOM     17  C   UNL     1       9.535   0.492  -0.139  0.00  0.00    +0.109 A 
ATOM     18  N   UNL     1       8.479  -0.308  -0.110  0.00  0.00    -0.241 NA
ATOM     19  C   UNL     1       7.258   0.174  -0.100  0.00  0.00    +0.086 A 
ATOM     20  C   UNL     1       7.061   1.519  -0.107  0.00  0.00    +0.074 A 
ATOM     21  S   UNL     1       8.752   2.100  -0.139  0.00  0.00    -0.075 S 
BRANCH  17  27
ATOM     22  C   UNL     1      11.374  -1.188  -0.151  0.00  0.00    +0.013 A 
ATOM     23  C   UNL     1      12.716  -1.503  -0.176  0.00  0.00    +0.039 A 
ATOM     24  C   UNL     1      13.667  -0.495  -0.200  0.00  0.00    +0.123 A 
ATOM     25  C   UNL     1      13.274   0.834  -0.204  0.00  0.00    +0.039 A 
ATOM     26  C   UNL     1      11.934   1.160  -0.184  0.00  0.00    +0.013 A 
ATOM     27  C   UNL     1      10.973   0.149  -0.160  0.00  0.00    +0.007 A 
ATOM     28  F   UNL     1      14.980  -0.809  -0.219  0.00  0.00    -0.205 F 
ENDBRANCH  17  27
ENDBRANCH  16  19
ENDBRANCH   1  16
TORSDOF 6
