REMARK  Name = ZINC36064559
REMARK  17 active torsions:
REMARK  status: ('A' for Active; 'I' for Inactive)
REMARK    1  A    between atoms: C_1  and  C_2
REMARK    2  A    between atoms: C_2  and  C_3
REMARK    3  A    between atoms: C_4  and  C_32
REMARK    4  A    between atoms: C_5  and  C_22
REMARK    5  A    between atoms: C_8  and  C_13
REMARK    6  A    between atoms: C_14  and  N_16
REMARK    7  A    between atoms: N_16  and  C_17
REMARK    8  A    between atoms: C_17  and  C_18
REMARK    9  A    between atoms: C_18  and  N_19
REMARK   10  A    between atoms: N_19  and  C_20
REMARK   11  A    between atoms: N_19  and  C_21
REMARK   12  A    between atoms: C_25  and  O_30
REMARK   13  A    between atoms: C_27  and  O_28
REMARK   14  A    between atoms: O_28  and  C_29
REMARK   15  A    between atoms: O_30  and  C_31
REMARK   16  A    between atoms: C_32  and  O_34
REMARK   17  A    between atoms: O_34  and  C_35
REMARK                            x       y       z     vdW  Elec       q    Type
REMARK                         _______ _______ _______ _____ _____    ______ ____
ROOT
ATOM      1  C   UNL     1       0.956  -1.024   1.384  0.00  0.00    +0.056 C 
ATOM      2  C   UNL     1       0.161  -1.171   2.505  0.00  0.00    +0.083 C 
ATOM      3  C   UNL     1       0.850  -1.373   3.836  0.00  0.00    +0.153 C 
ATOM      4  N   UNL     1       2.337  -1.397   3.832  0.00  0.00    -0.267 N 
ATOM      5  C   UNL     1       3.168  -1.567   4.921  0.00  0.00    +0.048 C 
ATOM      6  C   UNL     1       4.501  -1.558   4.700  0.00  0.00    +0.072 C 
ATOM      7  S   UNL     1       4.580  -1.307   2.938  0.00  0.00    -0.060 S 
ATOM      8  C   UNL     1       2.935  -1.233   2.614  0.00  0.00    +0.166 C 
ATOM      9  N   UNL     1       2.274  -1.066   1.487  0.00  0.00    -0.229 NA
ENDROOT
BRANCH   3  10
ATOM     10  C   UNL     1       0.366  -2.677   4.415  0.00  0.00    +0.020 A 
ATOM     11  C   UNL     1       1.071  -3.842   4.176  0.00  0.00    +0.013 A 
ATOM     12  C   UNL     1       0.631  -5.039   4.706  0.00  0.00    +0.046 A 
ATOM     13  C   UNL     1      -0.520  -5.076   5.480  0.00  0.00    +0.124 A 
ATOM     14  C   UNL     1      -1.229  -3.909   5.721  0.00  0.00    +0.091 A 
ATOM     15  C   UNL     1      -0.782  -2.708   5.193  0.00  0.00    +0.129 A 
BRANCH  15  16
ATOM     16  O   UNL     1      -1.471  -1.561   5.433  0.00  0.00    -0.495 OA
ATOM     17  C   UNL     1      -2.583  -1.647   6.327  0.00  0.00    +0.277 C 
ENDBRANCH  15  16
BRANCH  13  18
ATOM     18  O   UNL     1      -0.953  -6.254   6.000  0.00  0.00    -0.495 OA
ATOM     19  C   UNL     1      -0.174  -7.417   5.710  0.00  0.00    +0.277 C 
ENDBRANCH  13  18
ENDBRANCH   3  10
BRANCH   5  20
ATOM     20  C   UNL     1       2.622  -1.750   6.274  0.00  0.00    +0.091 C 
ATOM     21  C   UNL     1       3.445  -2.056   7.296  0.00  0.00    +0.239 C 
ATOM     22  O   UNL     1       4.786  -2.083   7.102  0.00  0.00    -0.271 OA
BRANCH  21  23
ATOM     23  N   UNL     1       2.920  -2.343   8.545  0.00  0.00    -0.314 N 
ATOM     24  H   UNL     1       1.960  -2.324   8.683  0.00  0.00    +0.149 HD
BRANCH  23  25
ATOM     25  C   UNL     1       3.814  -2.676   9.656  0.00  0.00    +0.086 C 
BRANCH  25  26
ATOM     26  C   UNL     1       2.986  -2.948  10.914  0.00  0.00    -0.061 C 
BRANCH  26  27
ATOM     27  N   UNL     1       3.883  -3.281  12.028  0.00  0.00    +0.377 N 
ATOM     28  C   UNL     1       3.098  -3.425  13.262  0.00  0.00    -0.097 C 
ATOM     29  C   UNL     1       4.575  -4.544  11.738  0.00  0.00    -0.097 C 
ATOM     30  H   UNL     1       4.562  -2.544  12.146  0.00  0.00    -0.083 HD
ENDBRANCH  26  27
ENDBRANCH  25  26
ENDBRANCH  23  25
ENDBRANCH  21  23
ENDBRANCH   5  20
BRANCH   1  32
ATOM     31  C   UNL     1       0.155   0.677  -0.233  0.00  0.00    +0.010 C 
ATOM     32  C   UNL     1       0.316  -0.821   0.035  0.00  0.00    +0.053 C 
ENDBRANCH   1  32
BRANCH   2  33
ATOM     33  C   UNL     1      -1.236  -1.133   2.411  0.00  0.00    +0.339 C 
ATOM     34  O   UNL     1      -1.837  -0.106   2.674  0.00  0.00    -0.245 OA
BRANCH  33  35
ATOM     35  O   UNL     1      -1.917  -2.237   2.030  0.00  0.00    -0.465 OA
ATOM     36  C   UNL     1      -3.328  -2.098   1.852  0.00  0.00    +0.280 C 
ENDBRANCH  33  35
ENDBRANCH   2  33
TORSDOF 11
