REMARK  Name = ZINC09208673
REMARK  6 active torsions:
REMARK  status: ('A' for Active; 'I' for Inactive)
REMARK    1  A    between atoms: C_1  and  C_2
REMARK    2  A    between atoms: C_2  and  C_22
REMARK    3  A    between atoms: N_5  and  C_9
REMARK    4  A    between atoms: C_9  and  N_58
REMARK    5  A    between atoms: N_12  and  C_15
REMARK    6  A    between atoms: C_20  and  O_21
REMARK                            x       y       z     vdW  Elec       q    Type
REMARK                         _______ _______ _______ _____ _____    ______ ____
ROOT
ATOM      1  C   UNL     1       1.005   7.990  -1.401  0.00  0.00    +0.047 C 
ATOM      2  C   UNL     1       1.044   7.447   0.029  0.00  0.00    +0.135 C 
ATOM      3  C   UNL     1       2.245   7.993   0.775  0.00  0.00    +0.249 C 
ATOM      4  O   UNL     1       3.414   7.836   0.495  0.00  0.00    -0.272 OA
ATOM      5  N   UNL     1       1.743   8.690   1.814  0.00  0.00    -0.241 N 
ATOM      6  C   UNL     1       0.406   8.660   1.828  0.00  0.00    +0.308 C 
ATOM      7  O   UNL     1      -0.274   9.215   2.669  0.00  0.00    -0.252 OA
ATOM      8  N   UNL     1      -0.105   7.946   0.804  0.00  0.00    -0.281 N 
ATOM      9  H   UNL     1      -1.044   7.791   0.614  0.00  0.00    +0.152 HD
ENDROOT
BRANCH   2  10
ATOM     10  C   UNL     1       1.064   5.940   0.022  0.00  0.00    -0.015 A 
ATOM     11  C   UNL     1       2.286   5.270   0.007  0.00  0.00    +0.007 A 
ATOM     12  C   UNL     1       2.340   3.910  -0.000  0.00  0.00    +0.009 A 
ATOM     13  C   UNL     1       1.147   3.167   0.008  0.00  0.00    -0.018 A 
ATOM     14  C   UNL     1       1.163   1.762   0.000  0.00  0.00    +0.008 A 
ATOM     15  C   UNL     1      -0.013   1.076   0.008  0.00  0.00    +0.001 A 
ATOM     16  C   UNL     1      -1.235   1.746   0.017  0.00  0.00    +0.001 A 
ATOM     17  C   UNL     1      -1.288   3.106   0.031  0.00  0.00    +0.008 A 
ATOM     18  C   UNL     1      -0.096   3.849   0.023  0.00  0.00    -0.018 A 
ATOM     19  C   UNL     1      -0.111   5.254   0.029  0.00  0.00    +0.014 A 
ENDBRANCH   2  10
BRANCH   5  20
ATOM     20  C   UNL     1       2.561   9.393   2.805  0.00  0.00    +0.043 C 
BRANCH  20  26
ATOM     21  C   UNL     1       3.898  10.822   1.378  0.00  0.00    -0.057 C 
ATOM     22  C   UNL     1       4.062  12.258   0.874  0.00  0.00    +0.087 C 
ATOM     23  N   UNL     1       4.332  13.146   2.014  0.00  0.00    -0.331 N 
ATOM     24  C   UNL     1       3.234  13.095   2.990  0.00  0.00    +0.087 C 
ATOM     25  C   UNL     1       3.070  11.659   3.493  0.00  0.00    -0.057 C 
ATOM     26  N   UNL     1       2.777  10.780   2.341  0.00  0.00    +0.392 N 
ATOM     27  H   UNL     1       1.924  11.113   1.876  0.00  0.00    -0.079 HD
BRANCH  23  28
ATOM     28  C   UNL     1       4.559  14.459   1.584  0.00  0.00    +0.072 A 
ATOM     29  C   UNL     1       3.548  15.169   0.953  0.00  0.00    +0.027 A 
ATOM     30  C   UNL     1       3.775  16.465   0.529  0.00  0.00    +0.002 A 
ATOM     31  C   UNL     1       5.008  17.056   0.733  0.00  0.00    +0.004 A 
ATOM     32  C   UNL     1       6.021  16.354   1.361  0.00  0.00    +0.047 A 
ATOM     33  C   UNL     1       5.800  15.057   1.794  0.00  0.00    +0.138 A 
BRANCH  33  34
ATOM     34  O   UNL     1       6.793  14.368   2.416  0.00  0.00    -0.505 OA
ATOM     35  H   UNL     1       7.359  13.864   1.815  0.00  0.00    +0.292 HD
ENDBRANCH  33  34
ENDBRANCH  23  28
ENDBRANCH  20  26
ENDBRANCH   5  20
TORSDOF 5
