REMARK  Name = ZINC43119707
REMARK  8 active torsions:
REMARK  status: ('A' for Active; 'I' for Inactive)
REMARK    1  A    between atoms: C_1  and  C_2
REMARK    2  A    between atoms: C_2  and  C_4
REMARK    3  A    between atoms: C_2  and  N_21
REMARK    4  A    between atoms: C_4  and  C_6
REMARK    5  A    between atoms: C_4  and  N_11
REMARK    6  A    between atoms: N_11  and  C_12
REMARK    7  A    between atoms: N_11  and  C_13
REMARK    8  A    between atoms: C_13  and  C_14
REMARK                            x       y       z     vdW  Elec       q    Type
REMARK                         _______ _______ _______ _____ _____    ______ ____
ROOT
ATOM      1  C   UNL     1       0.809  -0.401   1.367  0.00  0.00    -0.052 C 
ENDROOT
BRANCH   1   2
ATOM      2  C   UNL     1       0.175   0.079   2.647  0.00  0.00    -0.055 A 
ATOM      3  C   UNL     1       0.697   1.165   3.324  0.00  0.00    +0.009 A 
ATOM      4  C   UNL     1       0.103   1.571   4.473  0.00  0.00    +0.045 A 
ATOM      5  S   UNL     1      -1.237   0.402   4.629  0.00  0.00    -0.105 S 
ATOM      6  C   UNL     1      -0.919  -0.545   3.149  0.00  0.00    +0.047 A 
ENDBRANCH   1   2
BRANCH   1   7
ATOM      7  N   UNL     1       0.810  -1.869   1.341  0.00  0.00    +0.384 N 
ATOM      8  C   UNL     1       1.462  -2.379   2.555  0.00  0.00    -0.095 C 
ATOM      9  H   UNL     1      -0.140  -2.206   1.303  0.00  0.00    -0.081 HD
BRANCH   7  10
ATOM     10  C   UNL     1       1.544  -2.338   0.158  0.00  0.00    -0.042 C 
BRANCH  10  11
ATOM     11  C   UNL     1       1.471  -3.841   0.084  0.00  0.00    -0.050 A 
ATOM     12  C   UNL     1       2.523  -4.608   0.548  0.00  0.00    +0.003 A 
ATOM     13  C   UNL     1       2.456  -5.987   0.481  0.00  0.00    +0.000 A 
ATOM     14  C   UNL     1       1.336  -6.600  -0.050  0.00  0.00    +0.001 A 
ATOM     15  C   UNL     1       0.283  -5.834  -0.514  0.00  0.00    +0.015 A 
ATOM     16  C   UNL     1       0.348  -4.454  -0.442  0.00  0.00    +0.019 A 
ATOM     17 BR   UNL     1      -1.095  -3.406  -1.070  0.00  0.00    -0.050 Br
ENDBRANCH  10  11
ENDBRANCH   7  10
ENDBRANCH   1   7
BRANCH   1  19
ATOM     18  C   UNL     1      -1.425  -0.392   0.248  0.00  0.00    -0.016 C 
ATOM     19  C   UNL     1       0.011   0.129   0.173  0.00  0.00    -0.088 C 
BRANCH  19  20
ATOM     20  N   UNL     1       0.001   1.598   0.204  0.00  0.00    +0.379 N 
ATOM     21  H   UNL     1      -0.380   1.913   1.083  0.00  0.00    -0.090 HD
ATOM     22  H   UNL     1       0.944   1.942   0.103  0.00  0.00    -0.090 HD
ATOM     23  H   UNL     1      -0.567   1.946  -0.554  0.00  0.00    -0.090 HD
ENDBRANCH  19  20
ENDBRANCH   1  19
TORSDOF 6
