REMARK  Name = ZINC08327906
REMARK  6 active torsions:
REMARK  status: ('A' for Active; 'I' for Inactive)
REMARK    1  A    between atoms: C_1  and  C_2
REMARK    2  A    between atoms: C_2  and  O_3
REMARK    3  A    between atoms: O_3  and  C_4
REMARK    4  A    between atoms: C_9  and  N_10
REMARK    5  A    between atoms: C_11  and  C_13
REMARK    6  A    between atoms: C_23  and  C_26
REMARK                            x       y       z     vdW  Elec       q    Type
REMARK                         _______ _______ _______ _____ _____    ______ ____
ROOT
ATOM      1  C   UNL     1      -2.541   8.170  -0.120  0.00  0.00    +0.142 A 
ATOM      2  C   UNL     1      -3.625   9.030  -0.200  0.00  0.00    +0.055 A 
ATOM      3  C   UNL     1      -4.908   8.526  -0.187  0.00  0.00    +0.001 A 
ATOM      4  C   UNL     1      -5.138   7.160  -0.086  0.00  0.00    +0.126 A 
ATOM      5  C   UNL     1      -4.049   6.296  -0.014  0.00  0.00    +0.073 A 
ATOM      6  C   UNL     1      -2.758   6.798  -0.026  0.00  0.00    +0.079 A 
ATOM      7  O   UNL     1      -6.472   6.883  -0.076  0.00  0.00    -0.488 OA
ATOM      8  C   UNL     1      -7.192   8.006  -0.612  0.00  0.00    +0.175 C 
ATOM      9  C   UNL     1      -6.265   9.198  -0.277  0.00  0.00    +0.083 C 
ATOM     10  C   UNL     1      -7.368   7.865  -2.125  0.00  0.00    +0.052 C 
ENDROOT
BRANCH   6  11
ATOM     11  N   UNL     1      -1.667   5.922   0.052  0.00  0.00    -0.278 N 
ATOM     12  C   UNL     1      -1.815   4.710   0.623  0.00  0.00    +0.248 C 
ATOM     13  O   UNL     1      -2.865   4.415   1.160  0.00  0.00    -0.270 OA
ATOM     14  H   UNL     1      -0.806   6.188  -0.305  0.00  0.00    +0.155 HD
BRANCH  12  15
ATOM     15  C   UNL     1      -0.702   3.741   0.596  0.00  0.00    +0.041 A 
ATOM     16  C   UNL     1       0.505   4.078  -0.021  0.00  0.00    +0.017 A 
ATOM     17  C   UNL     1       1.543   3.173  -0.045  0.00  0.00    +0.050 A 
ATOM     18  C   UNL     1       1.394   1.923   0.543  0.00  0.00    +0.166 A 
ATOM     19  C   UNL     1       0.190   1.580   1.160  0.00  0.00    +0.167 A 
ATOM     20  C   UNL     1      -0.856   2.482   1.183  0.00  0.00    +0.062 A 
ATOM     21  O   UNL     1       0.300   0.312   1.654  0.00  0.00    -0.453 OA
ATOM     22  C   UNL     1       1.713   0.037   1.693  0.00  0.00    +0.466 C 
ATOM     23  O   UNL     1       2.253   0.870   0.651  0.00  0.00    -0.453 OA
ENDBRANCH  12  15
ENDBRANCH   6  11
BRANCH   1  24
ATOM     24  O   UNL     1      -1.274   8.664  -0.133  0.00  0.00    -0.490 OA
BRANCH  24  26
ATOM     25  C   UNL     1       0.355  10.447  -0.231  0.00  0.00    +0.048 C 
ATOM     26  C   UNL     1      -1.131  10.083  -0.232  0.00  0.00    +0.226 C 
ENDBRANCH  24  26
ENDBRANCH   1  24
TORSDOF 4
