REMARK  Name = ZINC14459074
REMARK  10 active torsions:
REMARK  status: ('A' for Active; 'I' for Inactive)
REMARK    1  A    between atoms: C_1  and  C_2
REMARK    2  A    between atoms: C_2  and  O_3
REMARK    3  A    between atoms: O_3  and  C_4
REMARK    4  A    between atoms: C_7  and  N_10
REMARK    5  A    between atoms: N_10  and  S_11
REMARK    6  A    between atoms: S_11  and  C_14
REMARK    7  A    between atoms: C_27  and  C_30
REMARK    8  A    between atoms: C_33  and  O_38
REMARK    9  A    between atoms: C_34  and  O_36
REMARK   10  A    between atoms: O_36  and  C_37
REMARK                            x       y       z     vdW  Elec       q    Type
REMARK                         _______ _______ _______ _____ _____    ______ ____
ROOT
ATOM      1  C   UNL     1      -2.605  -0.065   0.572  0.00  0.00    +0.109 A 
ATOM      2  C   UNL     1      -3.141  -1.014  -0.280  0.00  0.00    +0.030 A 
ATOM      3  C   UNL     1      -4.406  -0.828  -0.800  0.00  0.00    +0.025 A 
ATOM      4  C   UNL     1      -5.136   0.306  -0.468  0.00  0.00    +0.031 A 
ATOM      5  C   UNL     1      -4.602   1.260   0.385  0.00  0.00    -0.018 A 
ATOM      6  C   UNL     1      -3.331   1.060   0.906  0.00  0.00    +0.034 A 
ATOM      7  C   UNL     1      -5.348   2.499   0.768  0.00  0.00    +0.049 C 
ATOM      8  C   UNL     1      -5.877   2.409   2.180  0.00  0.00    -0.023 C 
ATOM      9  C   UNL     1      -7.047   2.993   2.264  0.00  0.00    -0.030 C 
ATOM     10  C   UNL     1      -7.457   3.558   0.917  0.00  0.00    +0.033 C 
ATOM     11  C   UNL     1      -6.605   2.735  -0.093  0.00  0.00    +0.029 C 
ATOM     12  C   UNL     1      -7.321   1.405  -0.345  0.00  0.00    +0.105 C 
ATOM     13  N   UNL     1      -6.418   0.478  -0.999  0.00  0.00    -0.336 N 
ATOM     14  H   UNL     1      -6.697  -0.007  -1.792  0.00  0.00    +0.147 HD
ENDROOT
BRANCH  12  15
ATOM     15  C   UNL     1      -7.750   0.805   0.970  0.00  0.00    -0.023 A 
ATOM     16  C   UNL     1      -6.899  -0.045   1.650  0.00  0.00    +0.009 A 
ATOM     17  C   UNL     1      -7.285  -0.593   2.859  0.00  0.00    +0.049 A 
ATOM     18  C   UNL     1      -8.533  -0.299   3.385  0.00  0.00    +0.158 A 
ATOM     19  C   UNL     1      -9.392   0.552   2.697  0.00  0.00    +0.162 A 
ATOM     20  C   UNL     1      -8.996   1.102   1.489  0.00  0.00    +0.054 A 
BRANCH  19  21
ATOM     21  O   UNL     1     -10.618   0.843   3.210  0.00  0.00    -0.491 OA
ATOM     22  C   UNL     1     -11.447   1.724   2.449  0.00  0.00    +0.277 C 
ENDBRANCH  19  21
BRANCH  18  23
ATOM     23  O   UNL     1      -8.917  -0.843   4.572  0.00  0.00    -0.503 OA
ATOM     24  H   UNL     1      -9.371  -1.692   4.487  0.00  0.00    +0.292 HD
ENDBRANCH  18  23
ENDBRANCH  12  15
BRANCH   1  25
ATOM     25  S   UNL     1      -0.992  -0.298   1.240  0.00  0.00    +0.072 S 
ATOM     26  O   UNL     1      -0.689  -1.679   1.098  0.00  0.00    -0.150 OA
ATOM     27  O   UNL     1      -0.975   0.359   2.500  0.00  0.00    -0.150 OA
BRANCH  25  28
ATOM     28  N   UNL     1       0.066   0.521   0.264  0.00  0.00    -0.216 N 
ATOM     29  H   UNL     1       0.594   1.250   0.625  0.00  0.00    +0.174 HD
BRANCH  28  33
ATOM     30  C   UNL     1       0.458  -0.548  -3.745  0.00  0.00    +0.121 A 
ATOM     31  C   UNL     1       0.332   0.788  -3.393  0.00  0.00    +0.047 A 
ATOM     32  C   UNL     1       0.201   1.143  -2.065  0.00  0.00    +0.028 A 
ATOM     33  C   UNL     1       0.197   0.162  -1.082  0.00  0.00    +0.048 A 
ATOM     34  C   UNL     1       0.329  -1.174  -1.435  0.00  0.00    +0.028 A 
ATOM     35  C   UNL     1       0.454  -1.528  -2.764  0.00  0.00    +0.047 A 
BRANCH  30  36
ATOM     36  O   UNL     1       0.587  -0.897  -5.054  0.00  0.00    -0.492 OA
BRANCH  36  38
ATOM     37  C   UNL     1       0.846  -2.486  -6.856  0.00  0.00    +0.048 C 
ATOM     38  C   UNL     1       0.713  -2.290  -5.344  0.00  0.00    +0.225 C 
ENDBRANCH  36  38
ENDBRANCH  30  36
ENDBRANCH  28  33
ENDBRANCH  25  28
ENDBRANCH   1  25
TORSDOF 8
