REMARK  Name = ZINC02938353
REMARK  7 active torsions:
REMARK  status: ('A' for Active; 'I' for Inactive)
REMARK    1  A    between atoms: C_6  and  S_7
REMARK    2  A    between atoms: S_7  and  N_10
REMARK    3  A    between atoms: N_10  and  C_11
REMARK    4  A    between atoms: C_11  and  C_12
REMARK    5  A    between atoms: C_15  and  C_18
REMARK    6  A    between atoms: N_20  and  C_21
REMARK    7  A    between atoms: C_21  and  C_22
REMARK                            x       y       z     vdW  Elec       q    Type
REMARK                         _______ _______ _______ _____ _____    ______ ____
ROOT
ATOM      1  C   UNL     1      -1.902  -2.349  -3.697  0.00  0.00    +0.005 C 
ATOM      2  C   UNL     1      -3.093  -3.230  -3.313  0.00  0.00    +0.005 C 
ATOM      3  C   UNL     1      -3.880  -3.599  -4.572  0.00  0.00    +0.013 C 
ATOM      4  C   UNL     1      -2.971  -4.362  -5.537  0.00  0.00    +0.075 C 
ATOM      5  C   UNL     1      -1.780  -3.481  -5.920  0.00  0.00    +0.013 C 
ATOM      6  C   UNL     1      -0.993  -3.112  -4.662  0.00  0.00    +0.005 C 
ENDROOT
BRANCH   4   7
ATOM      7  C   UNL     1      -2.472  -5.618  -4.870  0.00  0.00    +0.216 C 
ATOM      8  O   UNL     1      -2.810  -5.878  -3.735  0.00  0.00    -0.276 OA
ATOM      9  N   UNL     1      -1.649  -6.454  -5.535  0.00  0.00    -0.311 N 
ATOM     10  H   UNL     1      -1.378  -6.246  -6.444  0.00  0.00    +0.149 HD
BRANCH   9  11
ATOM     11  C   UNL     1      -1.164  -7.674  -4.887  0.00  0.00    +0.139 C 
BRANCH  11  12
ATOM     12  C   UNL     1      -0.268  -8.426  -5.838  0.00  0.00    -0.027 A 
ATOM     13  C   UNL     1      -0.807  -9.366  -6.697  0.00  0.00    +0.009 A 
ATOM     14  C   UNL     1       0.010 -10.057  -7.571  0.00  0.00    +0.050 A 
ATOM     15  C   UNL     1       1.373  -9.810  -7.588  0.00  0.00    +0.166 A 
ATOM     16  C   UNL     1       1.917  -8.864  -6.723  0.00  0.00    +0.167 A 
ATOM     17  C   UNL     1       1.090  -8.170  -5.853  0.00  0.00    +0.054 A 
ATOM     18  O   UNL     1       3.264  -8.806  -6.931  0.00  0.00    -0.453 OA
ATOM     19  C   UNL     1       3.596 -10.013  -7.641  0.00  0.00    +0.466 C 
ATOM     20  O   UNL     1       2.381 -10.345  -8.338  0.00  0.00    -0.453 OA
ENDBRANCH  11  12
ENDBRANCH   9  11
ENDBRANCH   4   7
BRANCH   1  21
ATOM     21  C   UNL     1      -1.115  -1.980  -2.438  0.00  0.00    +0.109 C 
BRANCH  21  22
ATOM     22  N   UNL     1      -1.948  -1.147  -1.567  0.00  0.00    -0.190 NA
ATOM     23  H   UNL     1      -2.756  -0.738  -1.915  0.00  0.00    +0.148 HD
BRANCH  22  24
ATOM     24  S   UNL     1      -1.512  -0.905   0.012  0.00  0.00    +0.058 S 
ATOM     25  O   UNL     1      -1.218  -2.186   0.553  0.00  0.00    -0.153 OA
ATOM     26  O   UNL     1      -2.492  -0.046   0.577  0.00  0.00    -0.153 OA
BRANCH  24  32
ATOM     27  C   UNL     1      -0.017   1.378   0.010  0.00  0.00    +0.030 A 
ATOM     28  C   UNL     1       1.171   2.086   0.002  0.00  0.00    +0.022 A 
ATOM     29  C   UNL     1       2.378   1.410  -0.013  0.00  0.00    +0.041 A 
ATOM     30  C   UNL     1       2.396   0.027  -0.021  0.00  0.00    +0.022 A 
ATOM     31  C   UNL     1       1.208  -0.679  -0.013  0.00  0.00    +0.030 A 
ATOM     32  C   UNL     1       0.002  -0.004   0.002  0.00  0.00    +0.105 A 
ATOM     33 CL   UNL     1       3.870   2.298  -0.023  0.00  0.00    -0.084 Cl
ENDBRANCH  24  32
ENDBRANCH  22  24
ENDBRANCH  21  22
ENDBRANCH   1  21
TORSDOF 7
