REMARK  Name = ZINC19874916
REMARK  4 active torsions:
REMARK  status: ('A' for Active; 'I' for Inactive)
REMARK    1  A    between atoms: C_1  and  C_2
REMARK    2  A    between atoms: C_5  and  C_8
REMARK    3  A    between atoms: C_15  and  C_26
REMARK    4  A    between atoms: N_17  and  C_20
REMARK                            x       y       z     vdW  Elec       q    Type
REMARK                         _______ _______ _______ _____ _____    ______ ____
ROOT
ATOM      1  C   UNL     1      -0.141  -2.476  -2.320  0.00  0.00    +0.050 C 
ATOM      2  N   UNL     1      -0.837  -3.550  -2.635  0.00  0.00    -0.382 N 
ATOM      3  C   UNL     1      -0.340  -4.870  -2.260  0.00  0.00    +0.131 C 
ATOM      4  C   UNL     1       0.773  -5.391  -3.175  0.00  0.00    +0.122 C 
ATOM      5  N   UNL     1       1.747  -4.324  -3.431  0.00  0.00    -0.338 N 
ATOM      6  C   UNL     1       2.102  -3.501  -2.373  0.00  0.00    +0.098 C 
ATOM      7  C   UNL     1       1.218  -2.647  -1.798  0.00  0.00    +0.027 C 
ATOM      8  C   UNL     1       1.919  -1.972  -0.660  0.00  0.00    +0.149 C 
ATOM      9  N   UNL     1       3.295  -2.494  -0.673  0.00  0.00    -0.255 N 
ATOM     10  C   UNL     1       3.393  -3.383  -1.683  0.00  0.00    +0.266 C 
ATOM     11  O   UNL     1       4.400  -3.996  -1.979  0.00  0.00    -0.268 OA
ATOM     12  H   UNL     1       2.172  -4.196  -4.438  0.00  0.00    +0.146 HD
ATOM     13  H   UNL     1      -1.788  -3.450  -3.178  0.00  0.00    +0.160 HD
ENDROOT
BRANCH   1  18
ATOM     14  C   UNL     1      -2.393   2.782  -2.981  0.00  0.00    +0.044 C 
ATOM     15  C   UNL     1      -1.804   1.406  -2.808  0.00  0.00    -0.050 A 
ATOM     16  C   UNL     1      -0.502   1.159  -3.207  0.00  0.00    +0.004 A 
ATOM     17  C   UNL     1       0.043  -0.099  -3.051  0.00  0.00    +0.010 A 
ATOM     18  C   UNL     1      -0.721  -1.122  -2.490  0.00  0.00    -0.002 A 
ATOM     19  C   UNL     1      -2.034  -0.869  -2.096  0.00  0.00    +0.010 A 
ATOM     20  C   UNL     1      -2.566   0.395  -2.251  0.00  0.00    +0.004 A 
ENDBRANCH   1  18
BRANCH   8  21
ATOM     21  C   UNL     1       1.927  -0.479  -0.866  0.00  0.00    +0.013 A 
ATOM     22  C   UNL     1       2.959   0.116  -1.567  0.00  0.00    +0.008 A 
ATOM     23  C   UNL     1       2.967   1.486  -1.756  0.00  0.00    +0.001 A 
ATOM     24  C   UNL     1       1.943   2.261  -1.246  0.00  0.00    +0.003 A 
ATOM     25  C   UNL     1       0.910   1.668  -0.545  0.00  0.00    +0.039 A 
ATOM     26  C   UNL     1       0.901   0.296  -0.354  0.00  0.00    +0.129 A 
ATOM     27  F   UNL     1      -0.108  -0.284   0.332  0.00  0.00    -0.205 F 
ENDBRANCH   8  21
BRANCH   9  28
ATOM     28  C   UNL     1       4.320  -2.134   0.207  0.00  0.00    +0.038 A 
ATOM     29  C   UNL     1       4.083  -1.196   1.204  0.00  0.00    +0.023 A 
ATOM     30  C   UNL     1       5.097  -0.846   2.075  0.00  0.00    +0.002 A 
ATOM     31  C   UNL     1       6.349  -1.419   1.947  0.00  0.00    +0.000 A 
ATOM     32  C   UNL     1       6.589  -2.348   0.952  0.00  0.00    +0.002 A 
ATOM     33  C   UNL     1       5.579  -2.707   0.082  0.00  0.00    +0.023 A 
ENDBRANCH   9  28
TORSDOF 3
