REMARK  Name = ZINC13059449
REMARK  5 active torsions:
REMARK  status: ('A' for Active; 'I' for Inactive)
REMARK    1  A    between atoms: C_1  and  C_2
REMARK    2  A    between atoms: C_9  and  C_11
REMARK    3  A    between atoms: C_12  and  C_34
REMARK    4  A    between atoms: C_16  and  C_18
REMARK    5  A    between atoms: C_30  and  C_33
REMARK                            x       y       z     vdW  Elec       q    Type
REMARK                         _______ _______ _______ _____ _____    ______ ____
ROOT
ATOM      1  C   UNL     1      -3.225   4.205   2.221  0.00  0.00    +0.043 C 
ATOM      2  C   UNL     1      -3.241   4.897   1.070  0.00  0.00    +0.014 C 
ATOM      3  N   UNL     1      -2.281   4.683   0.119  0.00  0.00    -0.321 N 
ATOM      4  C   UNL     1      -1.544   3.530   0.120  0.00  0.00    +0.016 C 
ATOM      5  C   UNL     1      -1.458   2.773   1.234  0.00  0.00    +0.024 C 
ATOM      6  C   UNL     1      -2.159   3.188   2.504  0.00  0.00    +0.090 C 
ATOM      7  C   UNL     1      -0.716   1.578   1.245  0.00  0.00    +0.162 C 
ATOM      8  O   UNL     1      -0.648   0.925   2.268  0.00  0.00    -0.292 OA
ATOM      9  C   UNL     1      -0.006   1.092   0.011  0.00  0.00    +0.083 C 
ATOM     10  C   UNL     1      -0.750   1.602  -1.228  0.00  0.00    -0.001 C 
ATOM     11  C   UNL     1      -0.835   3.128  -1.149  0.00  0.00    +0.055 C 
ATOM     12  C   UNL     1       0.011   1.189  -2.490  0.00  0.00    +0.008 C 
ATOM     13  C   UNL     1      -4.323   5.917   0.825  0.00  0.00    +0.061 C 
ATOM     14  H   UNL     1      -2.096   5.441  -0.656  0.00  0.00    +0.152 HD
ENDROOT
BRANCH   1  23
ATOM     15  C   UNL     1      -8.018   5.046   8.294  0.00  0.00    +0.045 C 
ATOM     16  C   UNL     1      -6.987   4.675   7.260  0.00  0.00    -0.032 A 
ATOM     17  C   UNL     1      -6.012   3.730   7.550  0.00  0.00    +0.008 A 
ATOM     18  C   UNL     1      -5.084   3.418   6.572  0.00  0.00    +0.044 A 
ATOM     19  C   UNL     1      -5.159   4.057   5.339  0.00  0.00    +0.125 A 
ATOM     20  N   UNL     1      -6.101   4.957   5.103  0.00  0.00    -0.240 NA
ATOM     21  C   UNL     1      -7.002   5.271   6.014  0.00  0.00    +0.116 A 
ATOM     22  N   UNL     1      -4.231   3.752   4.346  0.00  0.00    -0.267 N 
ATOM     23  C   UNL     1      -4.235   4.440   3.187  0.00  0.00    +0.248 C 
ATOM     24  O   UNL     1      -5.106   5.263   2.970  0.00  0.00    -0.270 OA
ATOM     25  H   UNL     1      -3.496   2.951   4.508  0.00  0.00    +0.157 HD
ENDBRANCH   1  23
BRANCH   6  26
ATOM     26  C   UNL     1      -1.151   3.779   3.456  0.00  0.00    -0.032 A 
ATOM     27  C   UNL     1      -0.450   4.916   3.100  0.00  0.00    +0.008 A 
ATOM     28  C   UNL     1       0.475   5.463   3.970  0.00  0.00    +0.050 A 
ATOM     29  C   UNL     1       0.702   4.871   5.202  0.00  0.00    +0.166 A 
ATOM     30  C   UNL     1      -0.005   3.726   5.561  0.00  0.00    +0.167 A 
ATOM     31  C   UNL     1      -0.934   3.187   4.686  0.00  0.00    +0.054 A 
ATOM     32  O   UNL     1       0.394   3.340   6.808  0.00  0.00    -0.453 OA
ATOM     33  C   UNL     1       1.642   4.021   7.040  0.00  0.00    +0.466 C 
ATOM     34  O   UNL     1       1.543   5.203   6.224  0.00  0.00    -0.453 OA
ENDBRANCH   6  26
TORSDOF 2
