REMARK  Name = ZINC66220162
REMARK  3 active torsions:
REMARK  status: ('A' for Active; 'I' for Inactive)
REMARK    1  A    between atoms: C_1  and  C_2
REMARK    2  A    between atoms: N_11  and  C_12
REMARK    3  A    between atoms: C_12  and  C_16
REMARK                            x       y       z     vdW  Elec       q    Type
REMARK                         _______ _______ _______ _____ _____    ______ ____
ROOT
ATOM      1  C   UNL     1       0.051   1.482  -0.051  0.00  0.00    +0.028 C 
ATOM      2  C   UNL     1       0.058  -0.048  -0.032  0.00  0.00    +0.074 C 
ATOM      3  C   UNL     1      -1.377  -0.567   0.098  0.00  0.00    +0.022 C 
ATOM      4  C   UNL     1      -1.352  -2.089   0.257  0.00  0.00    +0.003 C 
ATOM      5  C   UNL     1      -0.588  -2.458   1.530  0.00  0.00    +0.019 C 
ATOM      6  C   UNL     1       0.857  -1.960   1.417  0.00  0.00    +0.109 C 
ATOM      7  N   UNL     1       0.842  -0.522   1.117  0.00  0.00    -0.283 N 
ATOM      8  C   UNL     1       1.530   0.347   1.884  0.00  0.00    +0.303 C 
ATOM      9  O   UNL     1       1.435   1.542   1.684  0.00  0.00    -0.253 OA
ATOM     10  N   UNL     1       2.324  -0.110   2.873  0.00  0.00    -0.290 N 
ATOM     11  H   UNL     1       2.459  -1.064   2.985  0.00  0.00    +0.151 HD
ENDROOT
BRANCH  10  12
ATOM     12  C   UNL     1       2.985   0.835   3.777  0.00  0.00    +0.061 C 
ATOM     13  C   UNL     1       3.298   0.244   5.162  0.00  0.00    +0.031 C 
ATOM     14  C   UNL     1       1.902   0.723   5.595  0.00  0.00    +0.005 C 
ATOM     15  C   UNL     1       2.011   1.787   4.491  0.00  0.00    +0.031 C 
BRANCH  12  16
ATOM     16  C   UNL     1       4.156   1.536   3.139  0.00  0.00    -0.024 A 
ATOM     17  C   UNL     1       4.698   2.658   3.735  0.00  0.00    +0.006 A 
ATOM     18  C   UNL     1       5.773   3.301   3.149  0.00  0.00    +0.000 A 
ATOM     19  C   UNL     1       6.304   2.822   1.967  0.00  0.00    +0.000 A 
ATOM     20  C   UNL     1       5.762   1.698   1.371  0.00  0.00    +0.000 A 
ATOM     21  C   UNL     1       4.691   1.053   1.959  0.00  0.00    +0.006 A 
ENDBRANCH  12  16
ENDBRANCH  10  12
TORSDOF 2
