REMARK  Name = ZINC09611457
REMARK  12 active torsions:
REMARK  status: ('A' for Active; 'I' for Inactive)
REMARK    1  A    between atoms: C_1  and  C_2
REMARK    2  A    between atoms: C_2  and  C_3
REMARK    3  A    between atoms: C_3  and  C_4
REMARK    4  A    between atoms: C_4  and  N_5
REMARK    5  A    between atoms: N_5  and  C_6
REMARK    6  A    between atoms: C_6  and  C_7
REMARK    7  A    between atoms: C_13  and  C_15
REMARK    8  A    between atoms: C_15  and  C_17
REMARK    9  A    between atoms: C_15  and  N_24
REMARK   10  A    between atoms: C_17  and  C_18
REMARK   11  A    between atoms: N_24  and  S_25
REMARK   12  A    between atoms: S_25  and  C_28
REMARK                            x       y       z     vdW  Elec       q    Type
REMARK                         _______ _______ _______ _____ _____    ______ ____
ROOT
ATOM      1  C   UNL     1      -3.151   3.758  -1.847  0.00  0.00    +0.166 C 
ENDROOT
BRANCH   1   3
ATOM      2  N   UNL     1      -5.374   3.928  -0.775  0.00  0.00    -0.296 N 
ATOM      3  C   UNL     1      -4.453   4.474  -1.593  0.00  0.00    +0.235 C 
ATOM      4  O   UNL     1      -4.671   5.542  -2.126  0.00  0.00    -0.274 OA
BRANCH   2   5
ATOM      5  C   UNL     1      -5.053   2.718  -0.014  0.00  0.00    +0.108 C 
BRANCH   5   6
ATOM      6  C   UNL     1      -4.636   3.104   1.406  0.00  0.00    +0.019 C 
BRANCH   6   8
ATOM      7  C   UNL     1      -3.742   2.244   3.575  0.00  0.00    +0.004 C 
ATOM      8  C   UNL     1      -4.159   1.858   2.154  0.00  0.00    -0.002 C 
ENDBRANCH   6   8
ENDBRANCH   5   6
ENDBRANCH   2   5
BRANCH   2   9
ATOM      9  C   UNL     1      -6.697   4.545  -0.646  0.00  0.00    +0.142 C 
BRANCH   9  10
ATOM     10  C   UNL     1      -7.628   3.956  -1.674  0.00  0.00    -0.030 A 
ATOM     11  C   UNL     1      -7.739   4.540  -2.922  0.00  0.00    +0.005 A 
ATOM     12  C   UNL     1      -8.589   3.996  -3.867  0.00  0.00    +0.000 A 
ATOM     13  C   UNL     1      -9.337   2.875  -3.559  0.00  0.00    +0.000 A 
ATOM     14  C   UNL     1      -9.231   2.295  -2.309  0.00  0.00    +0.000 A 
ATOM     15  C   UNL     1      -8.376   2.835  -1.367  0.00  0.00    +0.005 A 
ENDBRANCH   9  10
ENDBRANCH   2   9
ENDBRANCH   1   3
BRANCH   1  16
ATOM     16  N   UNL     1      -2.443   4.408  -2.952  0.00  0.00    -0.178 NA
ATOM     17  H   UNL     1      -2.500   5.370  -3.066  0.00  0.00    +0.149 HD
BRANCH  16  18
ATOM     18  S   UNL     1      -1.546   3.501  -4.008  0.00  0.00    +0.059 S 
ATOM     19  O   UNL     1      -1.013   4.404  -4.968  0.00  0.00    -0.153 OA
ATOM     20  O   UNL     1      -0.721   2.656  -3.217  0.00  0.00    -0.153 OA
BRANCH  18  21
ATOM     21  C   UNL     1      -2.664   2.449  -4.872  0.00  0.00    +0.106 A 
ATOM     22  C   UNL     1      -3.242   2.878  -6.053  0.00  0.00    +0.030 A 
ATOM     23  C   UNL     1      -4.119   2.055  -6.733  0.00  0.00    +0.025 A 
ATOM     24  C   UNL     1      -4.419   0.796  -6.229  0.00  0.00    +0.037 A 
ATOM     25  C   UNL     1      -3.836   0.369  -5.044  0.00  0.00    -0.024 A 
ATOM     26  C   UNL     1      -2.956   1.194  -4.371  0.00  0.00    +0.034 A 
ATOM     27  C   UNL     1      -4.160  -0.997  -4.499  0.00  0.00    +0.046 C 
ATOM     28  C   UNL     1      -5.612  -1.347  -4.828  0.00  0.00    +0.101 C 
ATOM     29  C   UNL     1      -5.887  -1.078  -6.284  0.00  0.00    +0.218 C 
ATOM     30  O   UNL     1      -6.641  -1.805  -6.896  0.00  0.00    -0.275 OA
ATOM     31  N   UNL     1      -5.305  -0.041  -6.913  0.00  0.00    -0.285 N 
ATOM     32  H   UNL     1      -5.502   0.126  -7.848  0.00  0.00    +0.155 HD
ENDBRANCH  18  21
ENDBRANCH  16  18
ENDBRANCH   1  16
BRANCH   1  33
ATOM     33  C   UNL     1      -2.287   3.811  -0.586  0.00  0.00    +0.065 C 
BRANCH  33  34
ATOM     34  C   UNL     1      -0.963   3.143  -0.856  0.00  0.00    -0.045 A 
ATOM     35  C   UNL     1      -0.814   1.787  -0.628  0.00  0.00    +0.004 A 
ATOM     36  C   UNL     1       0.402   1.175  -0.872  0.00  0.00    +0.000 A 
ATOM     37  C   UNL     1       1.465   1.917  -1.352  0.00  0.00    +0.000 A 
ATOM     38  C   UNL     1       1.314   3.271  -1.585  0.00  0.00    +0.000 A 
ATOM     39  C   UNL     1       0.100   3.884  -1.337  0.00  0.00    +0.004 A 
ENDBRANCH  33  34
ENDBRANCH   1  33
TORSDOF 11
