REMARK  Name = ZINC56516366
REMARK  8 active torsions:
REMARK  status: ('A' for Active; 'I' for Inactive)
REMARK    1  A    between atoms: C_1  and  C_2
REMARK    2  A    between atoms: C_7  and  O_8
REMARK    3  A    between atoms: O_8  and  C_9
REMARK    4  A    between atoms: C_9  and  C_10
REMARK    5  A    between atoms: C_10  and  C_12
REMARK    6  A    between atoms: C_10  and  N_13
REMARK    7  A    between atoms: N_16  and  C_17
REMARK    8  A    between atoms: C_21  and  N_23
REMARK                            x       y       z     vdW  Elec       q    Type
REMARK                         _______ _______ _______ _____ _____    ______ ____
ROOT
ATOM      1  N   UNL     1      -1.212   0.885   4.824  0.00  0.00    -0.293 N 
ATOM      2  C   UNL     1      -1.677   1.336   6.006  0.00  0.00    +0.304 C 
ATOM      3  O   UNL     1      -1.051   1.123   7.026  0.00  0.00    -0.252 OA
ATOM      4  N   UNL     1      -2.835   2.023   6.057  0.00  0.00    -0.269 N 
ATOM      5  H   UNL     1      -1.712   1.055   4.010  0.00  0.00    +0.151 HD
ATOM      6  H   UNL     1      -3.301   2.249   5.237  0.00  0.00    +0.156 HD
ENDROOT
BRANCH   4   7
ATOM      7  C   UNL     1      -3.365   2.410   7.293  0.00  0.00    +0.037 A 
ATOM      8  C   UNL     1      -2.516   2.781   8.328  0.00  0.00    +0.023 A 
ATOM      9  C   UNL     1      -3.038   3.163   9.549  0.00  0.00    +0.004 A 
ATOM     10  C   UNL     1      -4.406   3.179   9.744  0.00  0.00    +0.024 A 
ATOM     11  C   UNL     1      -5.260   2.809   8.713  0.00  0.00    +0.040 A 
ATOM     12  C   UNL     1      -4.739   2.429   7.484  0.00  0.00    +0.047 A 
BRANCH  11  13
ATOM     13  N   UNL     1      -6.646   2.824   8.911  0.00  0.00    -0.254 N 
ATOM     14  C   UNL     1      -7.328   3.324  10.114  0.00  0.00    +0.134 C 
ATOM     15  C   UNL     1      -8.823   3.108   9.806  0.00  0.00    +0.125 C 
ATOM     16  N   UNL     1      -8.823   2.510   8.463  0.00  0.00    -0.297 N 
ATOM     17  C   UNL     1      -7.560   2.392   8.033  0.00  0.00    +0.307 C 
ATOM     18  O   UNL     1      -7.270   1.931   6.947  0.00  0.00    -0.252 OA
ATOM     19  H   UNL     1      -9.613   2.248   7.965  0.00  0.00    +0.150 HD
ENDBRANCH  11  13
ENDBRANCH   4   7
BRANCH   1  20
ATOM     20  C   UNL     1       0.047   0.138   4.768  0.00  0.00    +0.109 C 
ATOM     21  C   UNL     1       1.218   1.119   4.688  0.00  0.00    +0.031 C 
BRANCH  20  22
ATOM     22  C   UNL     1       0.051  -0.763   3.532  0.00  0.00    +0.251 C 
BRANCH  22  23
ATOM     23  O   UNL     1       0.038   0.045   2.353  0.00  0.00    -0.490 OA
BRANCH  23  30
ATOM     24  C   UNL     1       0.012   1.623   0.011  0.00  0.00    +0.047 C 
ATOM     25  C   UNL     1       0.028   0.117  -0.025  0.00  0.00    -0.009 A 
ATOM     26  C   UNL     1       0.036  -0.547  -1.237  0.00  0.00    +0.007 A 
ATOM     27  C   UNL     1       0.050  -1.929  -1.270  0.00  0.00    +0.000 A 
ATOM     28  C   UNL     1       0.056  -2.651  -0.090  0.00  0.00    +0.004 A 
ATOM     29  C   UNL     1       0.048  -1.992   1.124  0.00  0.00    +0.046 A 
ATOM     30  C   UNL     1       0.040  -0.605   1.160  0.00  0.00    +0.123 A 
ENDBRANCH  23  30
ENDBRANCH  22  23
ENDBRANCH  20  22
ENDBRANCH   1  20
TORSDOF 6
