REMARK  Name = ZINC14359392
REMARK  12 active torsions:
REMARK  status: ('A' for Active; 'I' for Inactive)
REMARK    1  A    between atoms: C_1  and  S_2
REMARK    2  A    between atoms: S_2  and  C_3
REMARK    3  A    between atoms: C_3  and  C_4
REMARK    4  A    between atoms: C_4  and  C_5
REMARK    5  A    between atoms: C_5  and  C_7
REMARK    6  A    between atoms: C_5  and  N_23
REMARK    7  A    between atoms: C_7  and  O_9
REMARK    8  A    between atoms: O_9  and  C_10
REMARK    9  A    between atoms: C_10  and  C_11
REMARK   10  A    between atoms: N_16  and  C_17
REMARK   11  A    between atoms: N_23  and  S_24
REMARK   12  A    between atoms: S_24  and  C_27
REMARK                            x       y       z     vdW  Elec       q    Type
REMARK                         _______ _______ _______ _____ _____    ______ ____
ROOT
ATOM      1  C   UNL     1       3.438   5.508   0.308  0.00  0.00    +0.326 C 
ATOM      2  O   UNL     1       4.013   6.235  -0.467  0.00  0.00    -0.249 OA
ENDROOT
BRANCH   1   3
ATOM      3  C   UNL     1       3.232   4.054  -0.033  0.00  0.00    +0.186 C 
BRANCH   3   4
ATOM      4  N   UNL     1       3.815   3.774  -1.347  0.00  0.00    -0.176 NA
ATOM      5  H   UNL     1       3.302   3.946  -2.152  0.00  0.00    +0.149 HD
BRANCH   4   6
ATOM      6  S   UNL     1       5.351   3.163  -1.458  0.00  0.00    +0.059 S 
ATOM      7  O   UNL     1       5.602   2.946  -2.840  0.00  0.00    -0.153 OA
ATOM      8  O   UNL     1       6.177   3.994  -0.654  0.00  0.00    -0.153 OA
BRANCH   6   9
ATOM      9  C   UNL     1       5.336   1.576  -0.694  0.00  0.00    +0.105 A 
ATOM     10  C   UNL     1       5.536   1.464   0.669  0.00  0.00    +0.030 A 
ATOM     11  C   UNL     1       5.520   0.219   1.270  0.00  0.00    +0.022 A 
ATOM     12  C   UNL     1       5.314  -0.916   0.506  0.00  0.00    +0.041 A 
ATOM     13  C   UNL     1       5.120  -0.803  -0.859  0.00  0.00    +0.022 A 
ATOM     14  C   UNL     1       5.131   0.442  -1.458  0.00  0.00    +0.030 A 
ATOM     15 CL   UNL     1       5.300  -2.480   1.259  0.00  0.00    -0.084 Cl
ENDBRANCH   6   9
ENDBRANCH   4   6
ENDBRANCH   3   4
BRANCH   3  16
ATOM     16  C   UNL     1       1.734   3.745  -0.064  0.00  0.00    +0.042 C 
BRANCH  16  17
ATOM     17  C   UNL     1       1.527   2.243  -0.273  0.00  0.00    +0.071 C 
BRANCH  17  19
ATOM     18  C   UNL     1      -0.329   0.085  -0.529  0.00  0.00    +0.084 C 
ATOM     19  S   UNL     1      -0.245   1.895  -0.443  0.00  0.00    -0.164 S 
ENDBRANCH  17  19
ENDBRANCH  16  17
ENDBRANCH   3  16
ENDBRANCH   1   3
BRANCH   1  20
ATOM     20  O   UNL     1       2.982   5.995   1.473  0.00  0.00    -0.454 OA
BRANCH  20  21
ATOM     21  C   UNL     1       3.216   7.404   1.734  0.00  0.00    +0.328 C 
BRANCH  21  22
ATOM     22  C   UNL     1       2.639   7.768   3.078  0.00  0.00    +0.258 C 
ATOM     23  O   UNL     1       2.086   6.923   3.749  0.00  0.00    -0.272 OA
ATOM     24  N   UNL     1       2.738   9.032   3.535  0.00  0.00    -0.237 N 
ATOM     25  C   UNL     1       2.223   9.357   4.737  0.00  0.00    +0.306 C 
ATOM     26  O   UNL     1       1.668   8.510   5.409  0.00  0.00    -0.252 OA
ATOM     27  N   UNL     1       2.322  10.621   5.193  0.00  0.00    -0.296 N 
ATOM     28  H   UNL     1       3.181   9.708   2.998  0.00  0.00    +0.159 HD
ATOM     29  H   UNL     1       2.765  11.297   4.656  0.00  0.00    +0.151 HD
BRANCH  27  30
ATOM     30  C   UNL     1       1.761  10.975   6.499  0.00  0.00    +0.074 C 
ATOM     31  C   UNL     1       0.275  11.303   6.344  0.00  0.00    +0.022 C 
ATOM     32  C   UNL     1      -0.311  11.673   7.709  0.00  0.00    +0.002 C 
ATOM     33  C   UNL     1       0.426  12.892   8.267  0.00  0.00    +0.000 C 
ATOM     34  C   UNL     1       1.912  12.564   8.421  0.00  0.00    +0.002 C 
ATOM     35  C   UNL     1       2.498  12.195   7.057  0.00  0.00    +0.022 C 
ENDBRANCH  27  30
ENDBRANCH  21  22
ENDBRANCH  20  21
ENDBRANCH   1  20
TORSDOF 11
