REMARK  Name = ZINC22972879
REMARK  11 active torsions:
REMARK  status: ('A' for Active; 'I' for Inactive)
REMARK    1  A    between atoms: C_1  and  C_2
REMARK    2  A    between atoms: C_3  and  C_23
REMARK    3  A    between atoms: C_8  and  C_10
REMARK    4  A    between atoms: C_10  and  C_11
REMARK    5  A    between atoms: C_11  and  C_12
REMARK    6  A    between atoms: C_12  and  N_13
REMARK    7  A    between atoms: N_13  and  C_14
REMARK    8  A    between atoms: N_13  and  S_15
REMARK    9  A    between atoms: S_15  and  C_18
REMARK   10  A    between atoms: N_28  and  C_29
REMARK   11  A    between atoms: C_29  and  C_30
REMARK                            x       y       z     vdW  Elec       q    Type
REMARK                         _______ _______ _______ _____ _____    ______ ____
ROOT
ATOM      1  C   UNL     1      -0.469  -7.155  -0.031  0.00  0.00    +0.067 C 
ATOM      2  C   UNL     1      -1.663  -6.236  -0.015  0.00  0.00    +0.058 A 
ATOM      3  C   UNL     1      -2.940  -6.738  -0.005  0.00  0.00    +0.081 A 
ATOM      4  S   UNL     1      -3.890  -5.225   0.018  0.00  0.00    -0.049 S 
ATOM      5  C   UNL     1      -2.552  -4.118   0.004  0.00  0.00    +0.165 A 
ATOM      6  N   UNL     1      -1.512  -4.932  -0.009  0.00  0.00    -0.229 NA
ATOM      7  N   UNL     1      -2.571  -2.730   0.012  0.00  0.00    -0.265 N 
ATOM      8  C   UNL     1      -1.413  -2.041   0.005  0.00  0.00    +0.219 C 
ATOM      9  O   UNL     1      -0.354  -2.632  -0.009  0.00  0.00    -0.275 OA
ATOM     10  H   UNL     1      -3.531  -2.193   0.024  0.00  0.00    +0.157 HD
ENDROOT
BRANCH   3  11
ATOM     11  C   UNL     1      -3.401  -8.137  -0.008  0.00  0.00    +0.174 A 
ATOM     12  N   UNL     1      -2.632  -9.194  -0.026  0.00  0.00    -0.128 NA
ATOM     13  N   UNL     1      -3.456 -10.328  -0.018  0.00  0.00    -0.121 NA
ATOM     14  C   UNL     1      -4.735  -9.901  -0.004  0.00  0.00    +0.203 A 
ATOM     15  S   UNL     1      -6.130 -10.894   0.004  0.00  0.00    -0.009 SA
ATOM     16  N   UNL     1      -4.718  -8.554   0.002  0.00  0.00    -0.297 N 
BRANCH  16  17
ATOM     17  C   UNL     1      -5.895  -7.681   0.017  0.00  0.00    +0.152 C 
BRANCH  17  18
ATOM     18  C   UNL     1      -6.311  -7.375  -1.399  0.00  0.00    -0.013 C 
ATOM     19  C   UNL     1      -7.536  -7.624  -1.789  0.00  0.00    +0.005 C 
ENDBRANCH  17  18
ENDBRANCH  16  17
ENDBRANCH   3  11
BRANCH   8  20
ATOM     20  C   UNL     1      -1.433  -0.534   0.013  0.00  0.00    +0.097 C 
BRANCH  20  21
ATOM     21  C   UNL     1       0.002  -0.004   0.002  0.00  0.00    +0.026 C 
BRANCH  21  22
ATOM     22  C   UNL     1      -0.019   1.526   0.010  0.00  0.00    +0.109 C 
BRANCH  22  23
ATOM     23  N   UNL     1       1.356   2.033   0.000  0.00  0.00    -0.179 NA
ATOM     24  C   UNL     1       2.069   2.189  -1.270  0.00  0.00    +0.131 C 
BRANCH  23  25
ATOM     25  S   UNL     1       2.103   2.429   1.424  0.00  0.00    +0.067 S 
ATOM     26  O   UNL     1       3.120   3.367   1.101  0.00  0.00    -0.152 OA
ATOM     27  O   UNL     1       1.071   2.716   2.358  0.00  0.00    -0.152 OA
BRANCH  25  28
ATOM     28  C   UNL     1       2.920   0.980   2.004  0.00  0.00    +0.143 A 
ATOM     29  C   UNL     1       4.180   0.550   1.750  0.00  0.00    +0.036 A 
ATOM     30  C   UNL     1       4.615  -0.630   2.324  0.00  0.00    +0.010 A 
ATOM     31  C   UNL     1       3.764  -1.328   3.116  0.00  0.00    +0.047 A 
ATOM     32  S   UNL     1       2.300  -0.308   3.074  0.00  0.00    -0.077 S 
ENDBRANCH  25  28
ENDBRANCH  23  25
ENDBRANCH  22  23
ENDBRANCH  21  22
ENDBRANCH  20  21
ENDBRANCH   8  20
TORSDOF 9
