REMARK  Name = ZINC21810207
REMARK  3 active torsions:
REMARK  status: ('A' for Active; 'I' for Inactive)
REMARK    1  A    between atoms: C_6  and  C_7
REMARK    2  A    between atoms: C_7  and  C_9
REMARK    3  A    between atoms: C_7  and  N_17
REMARK                            x       y       z     vdW  Elec       q    Type
REMARK                         _______ _______ _______ _____ _____    ______ ____
ROOT
ATOM      1  C   UNL     1      -3.692  -0.803   0.018  0.00  0.00    -0.012 C 
ENDROOT
BRANCH   1   7
ATOM      2  C   UNL     1      -2.415   1.349   0.026  0.00  0.00    +0.006 A 
ATOM      3  C   UNL     1      -1.229   2.059   0.019  0.00  0.00    +0.049 A 
ATOM      4  C   UNL     1      -0.017   1.386   0.010  0.00  0.00    +0.162 A 
ATOM      5  C   UNL     1       0.002  -0.004   0.002  0.00  0.00    +0.162 A 
ATOM      6  C   UNL     1      -1.191  -0.710   0.004  0.00  0.00    +0.051 A 
ATOM      7  C   UNL     1      -2.397  -0.033   0.016  0.00  0.00    -0.054 A 
ATOM      8  O   UNL     1       1.181  -0.685  -0.007  0.00  0.00    -0.485 OA
ATOM      9  C   UNL     1       2.347   0.054  -0.388  0.00  0.00    +0.270 C 
ATOM     10  C   UNL     1       2.334   1.392   0.364  0.00  0.00    +0.270 C 
ATOM     11  O   UNL     1       1.143   2.098   0.002  0.00  0.00    -0.485 OA
ENDBRANCH   1   7
BRANCH   1  12
ATOM     12  C   UNL     1      -4.258  -0.837  -1.378  0.00  0.00    -0.038 A 
ATOM     13  C   UNL     1      -5.202   0.096  -1.764  0.00  0.00    +0.023 A 
ATOM     14  C   UNL     1      -5.717   0.068  -3.048  0.00  0.00    +0.041 A 
ATOM     15  C   UNL     1      -5.297  -0.901  -3.941  0.00  0.00    +0.021 A 
ATOM     16  C   UNL     1      -4.357  -1.837  -3.553  0.00  0.00    +0.021 A 
ATOM     17  C   UNL     1      -3.837  -1.806  -2.271  0.00  0.00    +0.043 A 
ATOM     18 CL   UNL     1      -2.657  -2.982  -1.784  0.00  0.00    -0.083 Cl
ATOM     19 CL   UNL     1      -6.897   1.245  -3.535  0.00  0.00    -0.084 Cl
ENDBRANCH   1  12
BRANCH   1  20
ATOM     20  N   UNL     1      -4.650  -0.147   0.919  0.00  0.00    +0.385 N 
ATOM     21  H   UNL     1      -5.595  -0.709   0.920  0.00  0.00    -0.089 HD
ATOM     22  H   UNL     1      -4.834   0.880   0.573  0.00  0.00    -0.089 HD
ATOM     23  H   UNL     1      -4.237  -0.122   1.938  0.00  0.00    -0.089 HD
ENDBRANCH   1  20
TORSDOF 3
