REMARK  Name = ZINC06807110
REMARK  7 active torsions:
REMARK  status: ('A' for Active; 'I' for Inactive)
REMARK    1  A    between atoms: C_1  and  C_2
REMARK    2  A    between atoms: C_5  and  N_9
REMARK    3  A    between atoms: C_6  and  C_8
REMARK    4  A    between atoms: C_10  and  C_12
REMARK    5  A    between atoms: C_13  and  C_28
REMARK    6  A    between atoms: N_15  and  C_22
REMARK    7  A    between atoms: C_16  and  N_17
REMARK                            x       y       z     vdW  Elec       q    Type
REMARK                         _______ _______ _______ _____ _____    ______ ____
ROOT
ATOM      1  C   UNL     1      -3.466   1.879   0.815  0.00  0.00    +0.102 A 
ATOM      2  C   UNL     1      -4.611   1.122   0.476  0.00  0.00    +0.075 A 
ATOM      3  N   UNL     1      -4.277   0.270  -0.452  0.00  0.00    -0.169 NA
ATOM      4  N   UNL     1      -2.922   0.433  -0.760  0.00  0.00    -0.215 N 
ATOM      5  C   UNL     1      -2.423   1.416   0.020  0.00  0.00    +0.154 A 
ATOM      6  C   UNL     1      -5.982   1.274   1.085  0.00  0.00    +0.068 C 
ENDROOT
BRANCH   4   7
ATOM      7  C   UNL     1      -2.205  -0.301  -1.713  0.00  0.00    +0.068 A 
ATOM      8  C   UNL     1      -1.204   0.313  -2.455  0.00  0.00    +0.028 A 
ATOM      9  C   UNL     1      -0.495  -0.414  -3.391  0.00  0.00    +0.002 A 
ATOM     10  C   UNL     1      -0.788  -1.750  -3.598  0.00  0.00    +0.000 A 
ATOM     11  C   UNL     1      -1.788  -2.363  -2.864  0.00  0.00    +0.002 A 
ATOM     12  C   UNL     1      -2.497  -1.642  -1.923  0.00  0.00    +0.028 A 
ENDBRANCH   4   7
BRANCH   5  13
ATOM     13  N   UNL     1      -1.113   1.881   0.023  0.00  0.00    -0.307 N 
ATOM     14  C   UNL     1       0.010   1.102   0.017  0.00  0.00    +0.092 A 
ATOM     15  C   UNL     1       1.085   1.915   0.017  0.00  0.00    +0.019 A 
ATOM     16  C   UNL     1       0.613   3.244   0.028  0.00  0.00    +0.019 A 
ATOM     17  C   UNL     1      -0.734   3.195   0.035  0.00  0.00    +0.092 A 
ENDBRANCH   5  13
BRANCH   1  19
ATOM     18  N   UNL     1      -3.081   2.658   3.095  0.00  0.00    -0.281 N 
ATOM     19  C   UNL     1      -3.391   2.951   1.817  0.00  0.00    +0.254 C 
ATOM     20  O   UNL     1      -3.610   4.103   1.492  0.00  0.00    -0.270 OA
ATOM     21  H   UNL     1      -2.986   1.734   3.372  0.00  0.00    +0.155 HD
BRANCH  18  26
ATOM     22  C   UNL     1      -2.334   6.835   6.860  0.00  0.00    +0.044 C 
ATOM     23  C   UNL     1      -2.532   5.726   5.860  0.00  0.00    -0.050 A 
ATOM     24  C   UNL     1      -2.339   5.969   4.512  0.00  0.00    +0.005 A 
ATOM     25  C   UNL     1      -2.520   4.954   3.593  0.00  0.00    +0.024 A 
ATOM     26  C   UNL     1      -2.897   3.688   4.024  0.00  0.00    +0.037 A 
ATOM     27  C   UNL     1      -3.095   3.449   5.377  0.00  0.00    -0.029 A 
ATOM     28  C   UNL     1      -2.907   4.467   6.292  0.00  0.00    +0.008 A 
ATOM     29  C   UNL     1      -3.510   2.079   5.848  0.00  0.00    +0.045 C 
ENDBRANCH  18  26
ENDBRANCH   1  19
TORSDOF 4
