REMARK  Name = ZINC03640084
REMARK  15 active torsions:
REMARK  status: ('A' for Active; 'I' for Inactive)
REMARK    1  A    between atoms: C_1  and  C_2
REMARK    2  A    between atoms: C_2  and  O_3
REMARK    3  A    between atoms: O_3  and  C_4
REMARK    4  A    between atoms: C_4  and  C_5
REMARK    5  A    between atoms: C_5  and  O_6
REMARK    6  A    between atoms: O_6  and  C_7
REMARK    7  A    between atoms: C_7  and  C_9
REMARK    8  A    between atoms: C_10  and  C_38
REMARK    9  A    between atoms: C_14  and  C_16
REMARK   10  A    between atoms: C_24  and  C_27
REMARK   11  A    between atoms: C_30  and  O_35
REMARK   12  A    between atoms: C_31  and  O_33
REMARK   13  A    between atoms: O_33  and  C_34
REMARK   14  A    between atoms: O_35  and  C_36
REMARK   15  A    between atoms: C_36  and  C_37
REMARK                            x       y       z     vdW  Elec       q    Type
REMARK                         _______ _______ _______ _____ _____    ______ ____
ROOT
ATOM      1  C   UNL     1      -0.759   1.611   3.576  0.00  0.00    +0.066 C 
ATOM      2  C   UNL     1      -0.290   1.151   4.749  0.00  0.00    +0.016 C 
ATOM      3  N   UNL     1      -0.870   1.536   5.925  0.00  0.00    -0.321 N 
ATOM      4  C   UNL     1      -2.144   2.039   5.941  0.00  0.00    +0.016 C 
ATOM      5  C   UNL     1      -2.697   2.538   4.815  0.00  0.00    +0.024 C 
ATOM      6  C   UNL     1      -1.927   2.552   3.519  0.00  0.00    +0.099 C 
ATOM      7  C   UNL     1      -4.003   3.060   4.818  0.00  0.00    +0.162 C 
ATOM      8  O   UNL     1      -4.476   3.489   3.785  0.00  0.00    -0.292 OA
ATOM      9  C   UNL     1      -4.824   3.096   6.078  0.00  0.00    +0.088 C 
ATOM     10  C   UNL     1      -3.883   3.196   7.284  0.00  0.00    +0.032 C 
ATOM     11  C   UNL     1      -2.911   2.015   7.240  0.00  0.00    +0.059 C 
ATOM     12  C   UNL     1       0.886   0.210   4.767  0.00  0.00    +0.061 C 
ATOM     13  H   UNL     1      -0.314   1.444   6.869  0.00  0.00    +0.152 HD
ENDROOT
BRANCH  10  14
ATOM     14  C   UNL     1      -4.683   3.147   8.560  0.00  0.00    -0.040 A 
ATOM     15  C   UNL     1      -5.479   2.050   8.834  0.00  0.00    +0.008 A 
ATOM     16  C   UNL     1      -6.214   2.000  10.003  0.00  0.00    +0.050 A 
ATOM     17  C   UNL     1      -6.153   3.050  10.905  0.00  0.00    +0.162 A 
ATOM     18  C   UNL     1      -5.351   4.154  10.630  0.00  0.00    +0.162 A 
ATOM     19  C   UNL     1      -4.613   4.196   9.458  0.00  0.00    +0.053 A 
BRANCH  18  20
ATOM     20  O   UNL     1      -5.288   5.187  11.512  0.00  0.00    -0.491 OA
ATOM     21  C   UNL     1      -4.445   6.287  11.164  0.00  0.00    +0.277 C 
ENDBRANCH  18  20
BRANCH  17  22
ATOM     22  O   UNL     1      -6.875   3.003  12.056  0.00  0.00    -0.489 OA
BRANCH  22  23
ATOM     23  C   UNL     1      -7.676   1.839  12.273  0.00  0.00    +0.226 C 
ATOM     24  C   UNL     1      -8.409   1.965  13.609  0.00  0.00    +0.048 C 
ENDBRANCH  22  23
ENDBRANCH  17  22
ENDBRANCH  10  14
BRANCH   6  25
ATOM     25  C   UNL     1      -1.425   3.949   3.257  0.00  0.00    +0.002 A 
ATOM     26  C   UNL     1      -1.702   4.775   2.219  0.00  0.00    +0.012 A 
ATOM     27  C   UNL     1      -1.123   6.029   2.187  0.00  0.00    +0.008 A 
ATOM     28  C   UNL     1      -0.287   6.393   3.190  0.00  0.00    +0.045 A 
ATOM     29  S   UNL     1      -0.304   4.941   4.230  0.00  0.00    -0.101 S 
ENDBRANCH   6  25
BRANCH   1  30
ATOM     30  C   UNL     1      -0.143   1.196   2.372  0.00  0.00    +0.338 C 
ATOM     31  O   UNL     1       0.865   0.516   2.407  0.00  0.00    -0.245 OA
BRANCH  30  32
ATOM     32  O   UNL     1      -0.674   1.554   1.184  0.00  0.00    -0.459 OA
BRANCH  32  33
ATOM     33  C   UNL     1      -0.001   1.100   0.009  0.00  0.00    +0.260 C 
BRANCH  33  34
ATOM     34  C   UNL     1      -0.744   1.600  -1.231  0.00  0.00    +0.201 C 
BRANCH  34  35
ATOM     35  O   UNL     1      -0.676   3.027  -1.284  0.00  0.00    -0.377 OA
BRANCH  35  37
ATOM     36  C   UNL     1      -1.205   5.122  -2.364  0.00  0.00    +0.034 C 
ATOM     37  C   UNL     1      -1.343   3.599  -2.410  0.00  0.00    +0.156 C 
ENDBRANCH  35  37
ENDBRANCH  34  35
ENDBRANCH  33  34
ENDBRANCH  32  33
ENDBRANCH  30  32
ENDBRANCH   1  30
TORSDOF 11
