REMARK  Name = ZINC04731471
REMARK  8 active torsions:
REMARK  status: ('A' for Active; 'I' for Inactive)
REMARK    1  A    between atoms: C_1  and  C_2
REMARK    2  A    between atoms: C_7  and  C_8
REMARK    3  A    between atoms: C_10  and  C_23
REMARK    4  A    between atoms: C_11  and  C_22
REMARK    5  A    between atoms: C_23  and  O_25
REMARK    6  A    between atoms: O_25  and  C_26
REMARK    7  A    between atoms: C_26  and  C_27
REMARK    8  A    between atoms: C_26  and  C_28
REMARK                            x       y       z     vdW  Elec       q    Type
REMARK                         _______ _______ _______ _____ _____    ______ ____
ROOT
ATOM      1  C   UNL     1       2.679   0.273  -0.096  0.00  0.00    +0.159 C 
ATOM      2  C   UNL     1       4.055   0.789   0.227  0.00  0.00    +0.080 C 
ATOM      3  C   UNL     1       4.382   2.089   0.178  0.00  0.00    +0.020 C 
ATOM      4  N   UNL     1       3.477   3.063  -0.163  0.00  0.00    -0.288 N 
ATOM      5  C   UNL     1       2.135   2.708  -0.197  0.00  0.00    +0.202 A 
ATOM      6  N   UNL     1       1.740   1.393  -0.159  0.00  0.00    -0.300 N 
ATOM      7  C   UNL     1       0.364   1.374  -0.196  0.00  0.00    +0.071 A 
ATOM      8  C   UNL     1      -0.592   0.369  -0.181  0.00  0.00    +0.028 A 
ATOM      9  C   UNL     1      -1.931   0.692  -0.237  0.00  0.00    +0.002 A 
ATOM     10  C   UNL     1      -2.333   2.018  -0.300  0.00  0.00    +0.002 A 
ATOM     11  C   UNL     1      -1.400   3.030  -0.317  0.00  0.00    +0.030 A 
ATOM     12  C   UNL     1      -0.039   2.721  -0.264  0.00  0.00    +0.091 A 
ATOM     13  N   UNL     1       1.090   3.481  -0.262  0.00  0.00    -0.214 NA
ATOM     14  C   UNL     1       5.794   2.495   0.511  0.00  0.00    +0.061 C 
ATOM     15  H   UNL     1       3.764   3.965  -0.373  0.00  0.00    +0.155 HD
ENDROOT
BRANCH   1  22
ATOM     16  C   UNL     1       1.851  -2.489  -0.281  0.00  0.00    +0.044 C 
ATOM     17  C   UNL     1       2.311  -1.756  -1.515  0.00  0.00    -0.045 A 
ATOM     18  C   UNL     1       2.333  -2.404  -2.736  0.00  0.00    +0.004 A 
ATOM     19  C   UNL     1       2.760  -1.733  -3.866  0.00  0.00    +0.000 A 
ATOM     20  C   UNL     1       3.160  -0.412  -3.777  0.00  0.00    +0.000 A 
ATOM     21  C   UNL     1       3.134   0.236  -2.557  0.00  0.00    +0.006 A 
ATOM     22  C   UNL     1       2.707  -0.434  -1.426  0.00  0.00    -0.017 A 
ENDBRANCH   1  22
BRANCH   2  23
ATOM     23  C   UNL     1       5.051  -0.140   0.600  0.00  0.00    +0.339 C 
ATOM     24  O   UNL     1       6.174   0.245   0.868  0.00  0.00    -0.245 OA
BRANCH  23  25
ATOM     25  O   UNL     1       4.758  -1.456   0.660  0.00  0.00    -0.459 OA
BRANCH  25  26
ATOM     26  C   UNL     1       5.813  -2.340   1.044  0.00  0.00    +0.171 C 
ATOM     27  C   UNL     1       5.810  -2.507   2.565  0.00  0.00    +0.052 C 
ATOM     28  C   UNL     1       5.605  -3.702   0.381  0.00  0.00    +0.052 C 
ENDBRANCH  25  26
ENDBRANCH  23  25
ENDBRANCH   2  23
TORSDOF 4
