REMARK  Name = ZINC37020976
REMARK  5 active torsions:
REMARK  status: ('A' for Active; 'I' for Inactive)
REMARK    1  A    between atoms: C_1  and  C_2
REMARK    2  A    between atoms: C_2  and  C_4
REMARK    3  A    between atoms: C_2  and  N_10
REMARK    4  A    between atoms: C_4  and  C_5
REMARK    5  A    between atoms: C_11  and  C_13
REMARK                            x       y       z     vdW  Elec       q    Type
REMARK                         _______ _______ _______ _____ _____    ______ ____
ROOT
ATOM      1  N   UNL     1       0.688  -0.476  -1.203  0.00  0.00    -0.314 N 
ATOM      2  C   UNL     1       0.006  -0.608  -2.358  0.00  0.00    +0.199 C 
ATOM      3  O   UNL     1      -1.175  -0.336  -2.400  0.00  0.00    -0.278 OA
ATOM      4  H   UNL     1       1.632  -0.695  -1.170  0.00  0.00    +0.149 HD
ENDROOT
BRANCH   2   5
ATOM      5  C   UNL     1       0.712  -1.094  -3.598  0.00  0.00    +0.017 C 
ATOM      6  C   UNL     1       1.252  -2.525  -3.372  0.00  0.00    -0.005 C 
ATOM      7  C   UNL     1       1.042  -3.188  -4.769  0.00  0.00    -0.026 C 
ATOM      8  C   UNL     1       2.159  -2.665  -5.675  0.00  0.00    +0.002 C 
ATOM      9  C   UNL     1       1.820  -2.911  -7.143  0.00  0.00    +0.000 C 
ATOM     10  C   UNL     1       0.540  -2.142  -7.489  0.00  0.00    -0.002 C 
ATOM     11  C   UNL     1      -0.604  -2.700  -6.642  0.00  0.00    -0.015 C 
ATOM     12  C   UNL     1      -0.319  -2.574  -5.156  0.00  0.00    -0.068 C 
ATOM     13  N   UNL     1      -0.243  -1.167  -4.727  0.00  0.00    +0.389 N 
ATOM     14  H   UNL     1      -1.153  -0.851  -4.426  0.00  0.00    -0.084 HD
ATOM     15  H   UNL     1       0.085  -0.594  -5.490  0.00  0.00    -0.084 HD
ENDBRANCH   2   5
BRANCH   1  17
ATOM     16  C   UNL     1      -0.019   1.526   0.010  0.00  0.00    +0.028 C 
ATOM     17  C   UNL     1       0.002  -0.004   0.002  0.00  0.00    +0.075 C 
BRANCH  17  18
ATOM     18  C   UNL     1       0.742  -0.511   1.242  0.00  0.00    +0.064 C 
BRANCH  18  19
ATOM     19  C   UNL     1       0.657  -2.014   1.298  0.00  0.00    -0.008 A 
ATOM     20  C   UNL     1       1.500  -2.938   0.774  0.00  0.00    +0.011 A 
ATOM     21  C   UNL     1       1.220  -4.279   0.953  0.00  0.00    +0.008 A 
ATOM     22  C   UNL     1       0.110  -4.632   1.646  0.00  0.00    +0.045 A 
ATOM     23  S   UNL     1      -0.577  -3.042   2.078  0.00  0.00    -0.102 S 
ENDBRANCH  18  19
ENDBRANCH  17  18
ENDBRANCH   1  17
TORSDOF 4
