REMARK  Name = ZINC05363697
REMARK  8 active torsions:
REMARK  status: ('A' for Active; 'I' for Inactive)
REMARK    1  A    between atoms: C_1  and  N_2
REMARK    2  A    between atoms: N_2  and  C_3
REMARK    3  A    between atoms: C_6  and  C_12
REMARK    4  A    between atoms: C_8  and  N_9
REMARK    5  A    between atoms: C_12  and  O_14
REMARK    6  A    between atoms: O_14  and  C_15
REMARK    7  A    between atoms: C_15  and  C_16
REMARK    8  A    between atoms: N_18  and  C_19
REMARK                            x       y       z     vdW  Elec       q    Type
REMARK                         _______ _______ _______ _____ _____    ______ ____
ROOT
ATOM      1  O   UNL     1      -1.648  -0.217   0.101  0.00  0.00    -0.452 OA
ENDROOT
BRANCH   1   2
ATOM      2  C   UNL     1      -1.658  -1.564   0.067  0.00  0.00    +0.340 C 
ATOM      3  O   UNL     1      -0.610  -2.179   0.054  0.00  0.00    -0.245 OA
BRANCH   2   7
ATOM      4  C   UNL     1      -5.349  -3.651   0.005  0.00  0.00    +0.058 A 
ATOM      5  C   UNL     1      -5.335  -2.259   0.041  0.00  0.00    +0.026 A 
ATOM      6  C   UNL     1      -4.147  -1.585   0.066  0.00  0.00    +0.017 A 
ATOM      7  C   UNL     1      -2.940  -2.291   0.045  0.00  0.00    +0.061 A 
ATOM      8  C   UNL     1      -2.952  -3.689   0.010  0.00  0.00    +0.049 A 
ATOM      9  C   UNL     1      -4.152  -4.363  -0.009  0.00  0.00    +0.148 A 
BRANCH   4  11
ATOM     10  C   UNL     1      -7.818  -3.586  -0.128  0.00  0.00    +0.125 C 
ATOM     11  N   UNL     1      -6.561  -4.331  -0.015  0.00  0.00    -0.345 N 
ATOM     12  H   UNL     1      -6.575  -5.299   0.045  0.00  0.00    +0.146 HD
ENDBRANCH   4  11
BRANCH   9  13
ATOM     13  N   UNL     1      -4.171  -5.842  -0.047  0.00  0.00    +0.058 N 
ATOM     14  O   UNL     1      -3.130  -6.462  -0.173  0.00  0.00    -0.126 OA
ATOM     15  O   UNL     1      -5.228  -6.441   0.048  0.00  0.00    -0.126 OA
ENDBRANCH   9  13
ENDBRANCH   2   7
ENDBRANCH   1   2
BRANCH   1  16
ATOM     16  C   UNL     1      -0.350   0.432   0.120  0.00  0.00    +0.328 C 
BRANCH  16  17
ATOM     17  C   UNL     1      -0.536   1.927   0.157  0.00  0.00    +0.251 C 
ATOM     18  O   UNL     1      -1.653   2.399   0.161  0.00  0.00    -0.272 OA
ATOM     19  N   UNL     1       0.539   2.740   0.180  0.00  0.00    -0.307 N 
ATOM     20  H   UNL     1       1.432   2.363   0.173  0.00  0.00    +0.149 HD
BRANCH  19  21
ATOM     21  C   UNL     1       0.358   4.193   0.216  0.00  0.00    +0.035 C 
ATOM     22  C   UNL     1      -0.418   4.641  -1.024  0.00  0.00    +0.029 C 
ATOM     23  C   UNL     1      -0.607   6.159  -0.987  0.00  0.00    -0.008 C 
ATOM     24  C   UNL     1       0.761   6.843  -0.966  0.00  0.00    +0.007 C 
ATOM     25  C   UNL     1       1.537   6.395   0.274  0.00  0.00    -0.008 C 
ATOM     26  C   UNL     1       1.726   4.878   0.236  0.00  0.00    +0.029 C 
ATOM     27  C   UNL     1       0.755   6.781   1.532  0.00  0.00    +0.007 C 
ATOM     28  C   UNL     1      -0.613   6.097   1.511  0.00  0.00    -0.008 C 
ATOM     29  C   UNL     1      -1.389   6.545   0.271  0.00  0.00    +0.007 C 
ATOM     30  C   UNL     1      -0.424   4.579   1.474  0.00  0.00    +0.029 C 
ENDBRANCH  19  21
ENDBRANCH  16  17
ENDBRANCH   1  16
TORSDOF 7
