REMARK  Name = ZINC34740383
REMARK  11 active torsions:
REMARK  status: ('A' for Active; 'I' for Inactive)
REMARK    1  A    between atoms: C_1  and  C_2
REMARK    2  A    between atoms: C_6  and  C_8
REMARK    3  A    between atoms: C_8  and  N_9
REMARK    4  A    between atoms: C_11  and  C_22
REMARK    5  A    between atoms: C_13  and  C_16
REMARK    6  A    between atoms: C_22  and  N_23
REMARK    7  A    between atoms: N_23  and  C_24
REMARK    8  A    between atoms: C_24  and  C_25
REMARK    9  A    between atoms: C_25  and  C_26
REMARK   10  A    between atoms: C_25  and  C_27
REMARK   11  A    between atoms: C_28  and  C_30
REMARK                            x       y       z     vdW  Elec       q    Type
REMARK                         _______ _______ _______ _____ _____    ______ ____
ROOT
ATOM      1  N   UNL     1      -1.334  -3.826   2.623  0.00  0.00    -0.297 NA
ATOM      2  C   UNL     1      -1.407  -4.407   3.988  0.00  0.00    +0.090 C 
ATOM      3  C   UNL     1      -2.653  -5.318   3.958  0.00  0.00    +0.029 C 
ATOM      4  C   UNL     1      -2.852  -5.675   2.470  0.00  0.00    +0.039 C 
ATOM      5  C   UNL     1      -1.709  -4.950   1.727  0.00  0.00    +0.093 C 
ENDROOT
BRANCH   4   6
ATOM      6  C   UNL     1      -2.746  -7.165   2.271  0.00  0.00    -0.043 A 
ATOM      7  C   UNL     1      -1.581  -7.827   2.612  0.00  0.00    +0.004 A 
ATOM      8  C   UNL     1      -1.484  -9.194   2.429  0.00  0.00    +0.000 A 
ATOM      9  C   UNL     1      -2.552  -9.899   1.906  0.00  0.00    +0.000 A 
ATOM     10  C   UNL     1      -3.717  -9.237   1.566  0.00  0.00    +0.000 A 
ATOM     11  C   UNL     1      -3.816  -7.871   1.753  0.00  0.00    +0.004 A 
ENDBRANCH   4   6
BRANCH   1  12
ATOM     12  C   UNL     1       0.022  -3.346   2.326  0.00  0.00    +0.122 C 
BRANCH  12  18
ATOM     13  C   UNL     1       0.166   0.875  -0.357  0.00  0.00    +0.044 C 
ATOM     14  C   UNL     1       0.095  -0.629  -0.294  0.00  0.00    -0.050 A 
ATOM     15  C   UNL     1       0.035  -1.367  -1.461  0.00  0.00    +0.006 A 
ATOM     16  C   UNL     1      -0.029  -2.747  -1.404  0.00  0.00    +0.039 A 
ATOM     17  C   UNL     1      -0.034  -3.389  -0.177  0.00  0.00    +0.128 A 
ATOM     18  C   UNL     1       0.027  -2.648   0.991  0.00  0.00    +0.002 A 
ATOM     19  C   UNL     1       0.097  -1.269   0.931  0.00  0.00    +0.011 A 
ATOM     20  F   UNL     1      -0.097  -4.737  -0.121  0.00  0.00    -0.205 F 
ENDBRANCH  12  18
ENDBRANCH   1  12
BRANCH   3  21
ATOM     21  C   UNL     1      -3.873  -4.567   4.494  0.00  0.00    +0.113 C 
BRANCH  21  22
ATOM     22  N   UNL     1      -3.675  -4.264   5.914  0.00  0.00    -0.301 N 
ATOM     23  C   UNL     1      -3.957  -5.194   6.847  0.00  0.00    +0.212 C 
ATOM     24  O   UNL     1      -3.712  -4.976   8.015  0.00  0.00    -0.276 OA
ATOM     25  C   UNL     1      -4.579  -6.506   6.441  0.00  0.00    +0.109 C 
BRANCH  22  26
ATOM     26  C   UNL     1      -3.169  -2.950   6.319  0.00  0.00    +0.110 C 
BRANCH  26  27
ATOM     27  C   UNL     1      -4.347  -2.020   6.616  0.00  0.00    +0.000 C 
ATOM     28  C   UNL     1      -5.120  -2.547   7.827  0.00  0.00    +0.009 C 
ATOM     29  C   UNL     1      -3.824  -0.614   6.918  0.00  0.00    +0.009 C 
ENDBRANCH  26  27
ENDBRANCH  22  26
ENDBRANCH  21  22
ENDBRANCH   3  21
TORSDOF 7
