REMARK  Name = ZINC16567927
REMARK  9 active torsions:
REMARK  status: ('A' for Active; 'I' for Inactive)
REMARK    1  A    between atoms: C_1  and  C_2
REMARK    2  A    between atoms: C_7  and  N_8
REMARK    3  A    between atoms: N_11  and  C_12
REMARK    4  A    between atoms: C_12  and  C_13
REMARK    5  A    between atoms: C_16  and  S_27
REMARK    6  A    between atoms: N_17  and  C_18
REMARK    7  A    between atoms: C_21  and  N_24
REMARK    8  A    between atoms: S_27  and  C_28
REMARK    9  A    between atoms: C_28  and  C_29
REMARK                            x       y       z     vdW  Elec       q    Type
REMARK                         _______ _______ _______ _____ _____    ______ ____
ROOT
ATOM      1  C   UNL     1       7.640  -2.904  -1.735  0.00  0.00    +0.156 A 
ATOM      2  N   UNL     1       7.407  -2.774  -0.460  0.00  0.00    -0.132 NA
ATOM      3  N   UNL     1       6.300  -2.147  -0.273  0.00  0.00    -0.122 NA
ATOM      4  C   UNL     1       5.755  -1.849  -1.430  0.00  0.00    +0.196 A 
ATOM      5  N   UNL     1       6.596  -2.319  -2.401  0.00  0.00    -0.273 N 
ENDROOT
BRANCH   5   6
ATOM      6  C   UNL     1       6.425  -2.222  -3.790  0.00  0.00    +0.050 A 
ATOM      7  C   UNL     1       6.252  -3.369  -4.551  0.00  0.00    +0.028 A 
ATOM      8  C   UNL     1       6.079  -3.270  -5.918  0.00  0.00    +0.035 A 
ATOM      9  C   UNL     1       6.087  -2.030  -6.529  0.00  0.00    +0.126 A 
ATOM     10  C   UNL     1       6.265  -0.885  -5.774  0.00  0.00    +0.035 A 
ATOM     11  C   UNL     1       6.433  -0.978  -4.406  0.00  0.00    +0.028 A 
BRANCH   9  12
ATOM     12  N   UNL     1       5.907  -1.927  -7.995  0.00  0.00    +0.056 N 
ATOM     13  O   UNL     1       5.915  -0.836  -8.535  0.00  0.00    -0.126 OA
ATOM     14  O   UNL     1       5.751  -2.935  -8.661  0.00  0.00    -0.126 OA
ENDBRANCH   9  12
ENDBRANCH   5   6
BRANCH   1  15
ATOM     15  C   UNL     1       8.836  -3.573  -2.361  0.00  0.00    +0.182 C 
BRANCH  15  19
ATOM     16  N   UNL     1      12.048  -2.050  -3.299  0.00  0.00    -0.269 N 
ATOM     17  C   UNL     1      11.071  -2.959  -3.113  0.00  0.00    +0.304 C 
ATOM     18  O   UNL     1      11.246  -4.116  -3.442  0.00  0.00    -0.252 OA
ATOM     19  N   UNL     1       9.899  -2.585  -2.563  0.00  0.00    -0.292 N 
ATOM     20  H   UNL     1      11.881  -1.113  -3.114  0.00  0.00    +0.156 HD
ATOM     21  H   UNL     1       9.758  -1.662  -2.301  0.00  0.00    +0.151 HD
BRANCH  16  28
ATOM     22  C   UNL     1      13.667  -0.142  -4.655  0.00  0.00    +0.045 C 
ATOM     23  C   UNL     1      14.127  -1.559  -4.427  0.00  0.00    -0.029 A 
ATOM     24  C   UNL     1      15.367  -1.965  -4.880  0.00  0.00    +0.005 A 
ATOM     25  C   UNL     1      15.790  -3.265  -4.671  0.00  0.00    +0.000 A 
ATOM     26  C   UNL     1      14.973  -4.162  -4.007  0.00  0.00    +0.002 A 
ATOM     27  C   UNL     1      13.735  -3.761  -3.547  0.00  0.00    +0.023 A 
ATOM     28  C   UNL     1      13.305  -2.458  -3.760  0.00  0.00    +0.038 A 
ENDBRANCH  16  28
ENDBRANCH  15  19
ENDBRANCH   1  15
BRANCH   4  29
ATOM     29  S   UNL     1       4.234  -0.997  -1.683  0.00  0.00    -0.081 S 
BRANCH  29  30
ATOM     30  C   UNL     1       3.739  -0.720   0.036  0.00  0.00    +0.112 C 
BRANCH  30  31
ATOM     31  C   UNL     1       2.424   0.016   0.068  0.00  0.00    -0.037 A 
ATOM     32  C   UNL     1       1.236  -0.691   0.083  0.00  0.00    +0.004 A 
ATOM     33  C   UNL     1       0.031  -0.016   0.112  0.00  0.00    +0.000 A 
ATOM     34  C   UNL     1       0.013   1.367   0.126  0.00  0.00    +0.000 A 
ATOM     35  C   UNL     1       1.200   2.073   0.112  0.00  0.00    +0.000 A 
ATOM     36  C   UNL     1       2.406   1.398   0.083  0.00  0.00    +0.004 A 
ENDBRANCH  30  31
ENDBRANCH  29  30
ENDBRANCH   4  29
TORSDOF 8
