REMARK  Name = ZINC35373476
REMARK  8 active torsions:
REMARK  status: ('A' for Active; 'I' for Inactive)
REMARK    1  A    between atoms: C_1  and  C_2
REMARK    2  A    between atoms: C_9  and  C_13
REMARK    3  A    between atoms: C_15  and  C_18
REMARK    4  A    between atoms: C_18  and  C_19
REMARK    5  A    between atoms: C_19  and  C_20
REMARK    6  A    between atoms: N_22  and  C_23
REMARK    7  A    between atoms: C_26  and  C_30
REMARK    8  A    between atoms: C_27  and  C_29
REMARK                            x       y       z     vdW  Elec       q    Type
REMARK                         _______ _______ _______ _____ _____    ______ ____
ROOT
ATOM      1  C   UNL     1       0.086  -4.962   3.613  0.00  0.00    +0.207 A 
ATOM      2  N   UNL     1       0.108  -6.304   3.718  0.00  0.00    -0.191 NA
ATOM      3  C   UNL     1       0.123  -6.652   4.972  0.00  0.00    +0.228 A 
ATOM      4  O   UNL     1       0.111  -5.543   5.723  0.00  0.00    -0.338 OA
ATOM      5  N   UNL     1       0.092  -4.448   4.819  0.00  0.00    -0.056 NA
ENDROOT
BRANCH   1  14
ATOM      6  C   UNL     1      -0.026   1.470  -0.047  0.00  0.00    +0.044 C 
ATOM      7  C   UNL     1      -0.008  -0.036  -0.047  0.00  0.00    -0.050 A 
ATOM      8  C   UNL     1      -0.011  -0.725  -1.252  0.00  0.00    +0.005 A 
ATOM      9  C   UNL     1       0.005  -2.102  -1.274  0.00  0.00    +0.026 A 
ATOM     10  C   UNL     1       0.025  -2.815  -0.078  0.00  0.00    +0.049 A 
ATOM     11  C   UNL     1       0.028  -2.115   1.143  0.00  0.00    -0.001 A 
ATOM     12  C   UNL     1       0.017  -0.712   1.139  0.00  0.00    +0.013 A 
ATOM     13  C   UNL     1       0.049  -2.827   2.369  0.00  0.00    +0.027 A 
ATOM     14  C   UNL     1       0.065  -4.194   2.346  0.00  0.00    +0.087 A 
ATOM     15  C   UNL     1       0.060  -4.894   1.058  0.00  0.00    +0.260 A 
ATOM     16  N   UNL     1       0.042  -4.194  -0.092  0.00  0.00    -0.322 N 
ATOM     17  O   UNL     1       0.075  -6.111   1.028  0.00  0.00    -0.267 OA
ATOM     18  H   UNL     1       0.040  -4.665  -0.940  0.00  0.00    +0.169 HD
ENDBRANCH   1  14
BRANCH   3  19
ATOM     19  C   UNL     1       0.150  -8.067   5.492  0.00  0.00    +0.108 C 
BRANCH  19  20
ATOM     20  C   UNL     1       1.601  -8.522   5.658  0.00  0.00    +0.105 C 
BRANCH  20  21
ATOM     21  C   UNL     1       1.627  -9.936   6.178  0.00  0.00    +0.218 C 
ATOM     22  O   UNL     1       0.588 -10.522   6.395  0.00  0.00    -0.275 OA
ATOM     23  N   UNL     1       2.806 -10.550   6.402  0.00  0.00    -0.285 N 
ATOM     24  H   UNL     1       3.636 -10.107   6.166  0.00  0.00    +0.155 HD
BRANCH  23  25
ATOM     25  C   UNL     1       2.833 -11.826   6.976  0.00  0.00    +0.034 A 
ATOM     26  C   UNL     1       3.854 -12.175   7.851  0.00  0.00    +0.023 A 
ATOM     27  C   UNL     1       3.877 -13.435   8.415  0.00  0.00    +0.005 A 
ATOM     28  C   UNL     1       2.886 -14.349   8.109  0.00  0.00    -0.047 A 
ATOM     29  C   UNL     1       1.869 -14.006   7.238  0.00  0.00    -0.046 A 
ATOM     30  C   UNL     1       1.836 -12.745   6.675  0.00  0.00    +0.027 A 
ATOM     31  C   UNL     1       0.791 -15.006   6.907  0.00  0.00    +0.044 C 
ATOM     32  C   UNL     1       2.915 -15.724   8.726  0.00  0.00    +0.044 C 
ENDBRANCH  23  25
ENDBRANCH  20  21
ENDBRANCH  19  20
ENDBRANCH   3  19
TORSDOF 5
