REMARK  Name = ZINC63970726
REMARK  7 active torsions:
REMARK  status: ('A' for Active; 'I' for Inactive)
REMARK    1  A    between atoms: C_7  and  C_10
REMARK    2  A    between atoms: C_16  and  C_18
REMARK    3  A    between atoms: N_20  and  C_21
REMARK    4  A    between atoms: C_21  and  C_22
REMARK    5  A    between atoms: C_22  and  C_23
REMARK    6  A    between atoms: C_26  and  S_29
REMARK    7  A    between atoms: S_29  and  N_32
REMARK                            x       y       z     vdW  Elec       q    Type
REMARK                         _______ _______ _______ _____ _____    ______ ____
ROOT
ATOM      1  C   UNL     1      -0.662  -5.393  -1.470  0.00  0.00    +0.234 C 
ATOM      2  O   UNL     1      -0.526  -4.409  -2.166  0.00  0.00    -0.274 OA
ATOM      3  N   UNL     1      -1.580  -6.325  -1.793  0.00  0.00    -0.313 N 
ATOM      4  H   UNL     1      -1.689  -7.112  -1.236  0.00  0.00    +0.149 HD
ENDROOT
BRANCH   1  11
ATOM      5  C   UNL     1       0.622  -3.174  -0.021  0.00  0.00    +0.246 C 
ATOM      6  O   UNL     1      -0.573  -2.977   0.098  0.00  0.00    -0.270 OA
ATOM      7  N   UNL     1       1.090  -4.433  -0.135  0.00  0.00    -0.276 N 
ATOM      8  C   UNL     1       2.540  -4.725  -0.148  0.00  0.00    +0.178 C 
ATOM      9  S   UNL     1       2.553  -6.495   0.380  0.00  0.00    -0.139 S 
ATOM     10  C   UNL     1       0.914  -6.941  -0.349  0.00  0.00    +0.102 C 
ATOM     11  C   UNL     1       0.196  -5.573  -0.244  0.00  0.00    +0.173 C 
BRANCH   5  18
ATOM     12  C   UNL     1      -0.022   1.345  -0.062  0.00  0.00    +0.001 A 
ATOM     13  C   UNL     1       1.151   2.117  -0.082  0.00  0.00    +0.002 A 
ATOM     14  C   UNL     1       2.378   1.552  -0.088  0.00  0.00    +0.026 A 
ATOM     15  C   UNL     1       2.491   0.086  -0.074  0.00  0.00    +0.043 A 
ATOM     16  N   UNL     1       3.525  -0.708  -0.076  0.00  0.00    -0.380 N 
ATOM     17  C   UNL     1       3.065  -2.100  -0.057  0.00  0.00    +0.154 C 
ATOM     18  C   UNL     1       1.553  -2.041  -0.042  0.00  0.00    +0.043 C 
ATOM     19  C   UNL     1       1.233  -0.701  -0.053  0.00  0.00    +0.008 A 
ATOM     20  C   UNL     1      -0.002  -0.005  -0.048  0.00  0.00    +0.010 A 
ATOM     21  H   UNL     1       4.452  -0.423  -0.088  0.00  0.00    +0.160 HD
ENDBRANCH   5  18
ENDBRANCH   1  11
BRANCH   3  22
ATOM     22  C   UNL     1      -2.414  -6.150  -2.985  0.00  0.00    +0.109 C 
BRANCH  22  23
ATOM     23  C   UNL     1      -3.365  -7.340  -3.121  0.00  0.00    +0.054 C 
BRANCH  23  24
ATOM     24  C   UNL     1      -4.223  -7.160  -4.347  0.00  0.00    -0.046 A 
ATOM     25  C   UNL     1      -5.431  -6.495  -4.253  0.00  0.00    +0.005 A 
ATOM     26  C   UNL     1      -6.218  -6.329  -5.378  0.00  0.00    +0.029 A 
ATOM     27  C   UNL     1      -5.796  -6.829  -6.596  0.00  0.00    +0.105 A 
ATOM     28  C   UNL     1      -4.588  -7.493  -6.690  0.00  0.00    +0.029 A 
ATOM     29  C   UNL     1      -3.799  -7.655  -5.566  0.00  0.00    +0.005 A 
BRANCH  27  30
ATOM     30  S   UNL     1      -6.800  -6.619  -8.029  0.00  0.00    +0.056 S 
ATOM     31  O   UNL     1      -6.437  -7.652  -8.934  0.00  0.00    -0.153 OA
ATOM     32  O   UNL     1      -8.133  -6.442  -7.569  0.00  0.00    -0.153 OA
BRANCH  30  33
ATOM     33  N   UNL     1      -6.351  -5.191  -8.736  0.00  0.00    -0.204 NA
ATOM     34  H   UNL     1      -5.647  -4.653  -8.340  0.00  0.00    +0.144 HD
ATOM     35  H   UNL     1      -6.790  -4.892  -9.548  0.00  0.00    +0.144 HD
ENDBRANCH  30  33
ENDBRANCH  27  30
ENDBRANCH  23  24
ENDBRANCH  22  23
ENDBRANCH   3  22
TORSDOF 7
