REMARK  Name = ZINC30883099
REMARK  11 active torsions:
REMARK  status: ('A' for Active; 'I' for Inactive)
REMARK    1  A    between atoms: C_1  and  C_2
REMARK    2  A    between atoms: C_5  and  C_8
REMARK    3  A    between atoms: C_11  and  C_13
REMARK    4  A    between atoms: C_13  and  C_14
REMARK    5  A    between atoms: C_17  and  C_32
REMARK    6  A    between atoms: C_19  and  C_24
REMARK    7  A    between atoms: C_22  and  C_23
REMARK    8  A    between atoms: C_24  and  N_25
REMARK    9  A    between atoms: C_28  and  O_31
REMARK   10  A    between atoms: C_32  and  C_33
REMARK   11  A    between atoms: C_32  and  C_34
REMARK                            x       y       z     vdW  Elec       q    Type
REMARK                         _______ _______ _______ _____ _____    ______ ____
ROOT
ATOM      1  C   UNL     1      -0.147   1.117  -0.033  0.00  0.00    +0.024 C 
ATOM      2  C   UNL     1       1.338   1.474  -0.133  0.00  0.00    +0.012 C 
ATOM      3  C   UNL     1       1.462   2.993  -0.299  0.00  0.00    -0.003 C 
ATOM      4  C   UNL     1       0.891   3.378  -1.666  0.00  0.00    -0.002 C 
ATOM      5  C   UNL     1      -0.461   2.756  -1.855  0.00  0.00    -0.026 C 
ATOM      6  C   UNL     1      -0.910   1.769  -1.148  0.00  0.00    -0.073 C 
ATOM      7  C   UNL     1      -2.286   1.242  -1.465  0.00  0.00    +0.039 C 
ENDROOT
BRANCH   3   8
ATOM      8  C   UNL     1       2.935   3.401  -0.223  0.00  0.00    -0.014 C 
ATOM      9  C   UNL     1       3.470   3.118   1.182  0.00  0.00    +0.007 C 
ATOM     10  C   UNL     1       3.740   2.597  -1.247  0.00  0.00    +0.007 C 
ENDBRANCH   3   8
BRANCH   1  11
ATOM     11  C   UNL     1      -0.697   1.605   1.308  0.00  0.00    +0.105 C 
BRANCH  11  15
ATOM     12  C   UNL     1      -4.274   1.037   1.403  0.00  0.00    +0.248 A 
ATOM     13  N   UNL     1      -3.798  -0.046   1.971  0.00  0.00    -0.107 NA
ATOM     14  N   UNL     1      -2.514   0.022   2.005  0.00  0.00    -0.112 NA
ATOM     15  C   UNL     1      -2.123   1.143   1.464  0.00  0.00    +0.218 A 
ATOM     16  O   UNL     1      -3.221   1.813   1.077  0.00  0.00    -0.420 OA
BRANCH  12  21
ATOM     17  C   UNL     1      -9.825   2.259   0.499  0.00  0.00    +0.044 C 
ATOM     18  C   UNL     1      -8.371   1.939   0.736  0.00  0.00    -0.050 A 
ATOM     19  C   UNL     1      -8.019   0.750   1.350  0.00  0.00    +0.004 A 
ATOM     20  C   UNL     1      -6.690   0.452   1.570  0.00  0.00    +0.013 A 
ATOM     21  C   UNL     1      -5.700   1.351   1.171  0.00  0.00    +0.038 A 
ATOM     22  C   UNL     1      -6.063   2.551   0.557  0.00  0.00    +0.013 A 
ATOM     23  C   UNL     1      -7.395   2.835   0.338  0.00  0.00    +0.004 A 
ENDBRANCH  12  21
ENDBRANCH  11  15
ENDBRANCH   1  11
BRANCH   4  24
ATOM     24  C   UNL     1       0.762   4.901  -1.750  0.00  0.00    -0.071 C 
BRANCH  24  25
ATOM     25  N   UNL     1       0.281   5.278  -3.087  0.00  0.00    +0.380 N 
ATOM     26  C   UNL     1       1.276   4.949  -4.115  0.00  0.00    -0.076 C 
ATOM     27  C   UNL     1       0.687   5.219  -5.502  0.00  0.00    +0.013 C 
ATOM     28  C   UNL     1       0.289   6.694  -5.603  0.00  0.00    +0.111 C 
ATOM     29  C   UNL     1      -0.711   7.022  -4.490  0.00  0.00    +0.013 C 
ATOM     30  C   UNL     1      -0.081   6.700  -3.134  0.00  0.00    -0.076 C 
ATOM     31  H   UNL     1      -0.626   4.693  -3.299  0.00  0.00    -0.082 HD
BRANCH  28  32
ATOM     32  O   UNL     1      -0.314   6.940  -6.875  0.00  0.00    -0.392 OA
ATOM     33  H   UNL     1      -0.666   7.950  -7.131  0.00  0.00    +0.210 HD
ENDBRANCH  28  32
ENDBRANCH  24  25
ENDBRANCH   4  24
TORSDOF 7
