REMARK  Name = ZINC00999798
REMARK  8 active torsions:
REMARK  status: ('A' for Active; 'I' for Inactive)
REMARK    1  A    between atoms: C_1  and  C_2
REMARK    2  A    between atoms: C_9  and  N_13
REMARK    3  A    between atoms: C_10  and  C_11
REMARK    4  A    between atoms: C_14  and  C_16
REMARK    5  A    between atoms: C_22  and  C_31
REMARK    6  A    between atoms: C_25  and  C_27
REMARK    7  A    between atoms: C_34  and  O_37
REMARK    8  A    between atoms: O_37  and  C_38
REMARK                            x       y       z     vdW  Elec       q    Type
REMARK                         _______ _______ _______ _____ _____    ______ ____
ROOT
ATOM      1  C   UNL     1       1.891  -7.462   3.816  0.00  0.00    +0.096 A 
ATOM      2  C   UNL     1       1.158  -8.619   3.449  0.00  0.00    +0.149 A 
ATOM      3  N   UNL     1       1.650  -9.638   4.100  0.00  0.00    -0.177 NA
ATOM      4  N   UNL     1       2.703  -9.204   4.904  0.00  0.00    -0.238 N 
ATOM      5  C   UNL     1       2.850  -7.870   4.724  0.00  0.00    +0.130 A 
ATOM      6  N   UNL     1       3.815  -7.125   5.378  0.00  0.00    -0.322 N 
ATOM      7  C   UNL     1       4.504  -7.792   6.501  0.00  0.00    +0.104 C 
ATOM      8  C   UNL     1       4.841  -9.227   6.079  0.00  0.00    +0.063 C 
ATOM      9  C   UNL     1       3.545 -10.001   5.802  0.00  0.00    +0.215 C 
ATOM     10  H   UNL     1       4.028  -6.216   5.115  0.00  0.00    +0.148 HD
ENDROOT
BRANCH   7  11
ATOM     11  C   UNL     1       5.770  -7.046   6.833  0.00  0.00    -0.027 A 
ATOM     12  C   UNL     1       6.557  -6.536   5.818  0.00  0.00    +0.009 A 
ATOM     13  C   UNL     1       7.719  -5.852   6.120  0.00  0.00    +0.046 A 
ATOM     14  C   UNL     1       8.095  -5.678   7.444  0.00  0.00    +0.120 A 
ATOM     15  C   UNL     1       7.304  -6.191   8.461  0.00  0.00    +0.046 A 
ATOM     16  C   UNL     1       6.140  -6.869   8.154  0.00  0.00    +0.009 A 
BRANCH  14  17
ATOM     17  O   UNL     1       9.238  -5.006   7.744  0.00  0.00    -0.495 OA
ATOM     18  C   UNL     1       9.563  -4.864   9.128  0.00  0.00    +0.277 C 
ENDBRANCH  14  17
ENDBRANCH   7  11
BRANCH   1  20
ATOM     19  N   UNL     1       0.695  -5.848   2.433  0.00  0.00    -0.275 N 
ATOM     20  C   UNL     1       1.676  -6.096   3.323  0.00  0.00    +0.253 C 
ATOM     21  O   UNL     1       2.384  -5.189   3.717  0.00  0.00    -0.270 OA
ATOM     22  H   UNL     1       0.130  -6.571   2.119  0.00  0.00    +0.156 HD
BRANCH  19  30
ATOM     23  C   UNL     1      -0.019   1.526   0.010  0.00  0.00    +0.008 C 
ATOM     24  C   UNL     1       0.002  -0.004   0.002  0.00  0.00    -0.009 C 
ATOM     25  C   UNL     1      -1.434  -0.537   0.019  0.00  0.00    +0.008 C 
ATOM     26  C   UNL     1      -1.433  -2.045  -0.237  0.00  0.00    +0.037 C 
ATOM     27  C   UNL     1      -0.464  -2.704   0.734  0.00  0.00    -0.018 A 
ATOM     28  C   UNL     1       0.485  -1.986   1.374  0.00  0.00    -0.004 A 
ATOM     29  S   UNL     1       1.343  -3.168   2.372  0.00  0.00    -0.077 S 
ATOM     30  C   UNL     1       0.492  -4.557   1.967  0.00  0.00    +0.090 A 
ATOM     31  C   UNL     1      -0.459  -4.119   1.060  0.00  0.00    +0.084 A 
ATOM     32  C   UNL     1       0.739  -0.515   1.248  0.00  0.00    +0.046 C 
BRANCH  31  33
ATOM     33  C   UNL     1      -1.399  -5.024   0.470  0.00  0.00    +0.102 C 
ATOM     34  N   UNL     1      -2.145  -5.741   0.001  0.00  0.00    -0.191 NA
ENDBRANCH  31  33
ENDBRANCH  19  30
ENDBRANCH   1  20
BRANCH   9  35
ATOM     35  C   UNL     1       3.889 -11.333   5.133  0.00  0.00    +0.412 C 
ATOM     36  F   UNL     1       4.579 -11.092   3.941  0.00  0.00    -0.168 F 
ATOM     37  F   UNL     1       4.692 -12.092   5.992  0.00  0.00    -0.168 F 
ATOM     38  F   UNL     1       2.711 -12.035   4.856  0.00  0.00    -0.168 F 
ENDBRANCH   9  35
TORSDOF 6
