REMARK  Name = ZINC64031712
REMARK  8 active torsions:
REMARK  status: ('A' for Active; 'I' for Inactive)
REMARK    1  A    between atoms: C_1  and  C_2
REMARK    2  A    between atoms: C_2  and  C_4
REMARK    3  A    between atoms: C_2  and  N_13
REMARK    4  A    between atoms: C_14  and  C_16
REMARK    5  A    between atoms: N_18  and  C_29
REMARK    6  A    between atoms: C_20  and  C_23
REMARK    7  A    between atoms: N_25  and  C_26
REMARK    8  A    between atoms: C_29  and  C_30
REMARK                            x       y       z     vdW  Elec       q    Type
REMARK                         _______ _______ _______ _____ _____    ______ ____
ROOT
ATOM      1  C   UNL     1       0.719  -0.969  -3.596  0.00  0.00    +0.100 A 
ATOM      2  C   UNL     1       0.058  -1.017  -4.804  0.00  0.00    +0.102 A 
ATOM      3  N   UNL     1       0.692  -1.363  -5.937  0.00  0.00    -0.351 N 
ATOM      4  C   UNL     1       1.995  -1.683  -5.984  0.00  0.00    +0.102 A 
ATOM      5  C   UNL     1       2.779  -1.677  -4.851  0.00  0.00    +0.100 A 
ATOM      6  C   UNL     1       2.153  -1.301  -3.572  0.00  0.00    +0.206 A 
ATOM      7  O   UNL     1       2.795  -1.272  -2.535  0.00  0.00    -0.286 OA
ENDROOT
BRANCH   1   9
ATOM      8  N   UNL     1       0.696  -0.437  -1.211  0.00  0.00    -0.305 N 
ATOM      9  C   UNL     1       0.011  -0.588  -2.362  0.00  0.00    +0.250 C 
ATOM     10  O   UNL     1      -1.192  -0.410  -2.382  0.00  0.00    -0.270 OA
ATOM     11  H   UNL     1       1.641  -0.651  -1.178  0.00  0.00    +0.149 HD
BRANCH   8  13
ATOM     12  C   UNL     1      -0.015   1.579  -0.024  0.00  0.00    +0.032 C 
ATOM     13  C   UNL     1       0.012   0.049  -0.011  0.00  0.00    +0.113 C 
BRANCH  13  14
ATOM     14  C   UNL     1       0.758  -0.437   1.234  0.00  0.00    +0.194 C 
ATOM     15  N   UNL     1       2.068   0.221   1.325  0.00  0.00    -0.362 N 
ATOM     16  C   UNL     1       2.091   0.893   2.439  0.00  0.00    +0.060 A 
ATOM     17  C   UNL     1       3.110   1.740   3.074  0.00  0.00    +0.027 A 
ATOM     18  C   UNL     1       2.845   2.322   4.261  0.00  0.00    +0.002 A 
ATOM     19  C   UNL     1       1.621   2.156   4.931  0.00  0.00    +0.002 A 
ATOM     20  C   UNL     1       0.619   1.401   4.436  0.00  0.00    +0.027 A 
ATOM     21  C   UNL     1       0.794   0.717   3.148  0.00  0.00    +0.060 A 
ATOM     22  N   UNL     1       0.020  -0.058   2.445  0.00  0.00    -0.362 N 
ATOM     23  H   UNL     1       2.785   0.164   0.674  0.00  0.00    +0.162 HD
ATOM     24  H   UNL     1      -0.881  -0.334   2.678  0.00  0.00    +0.162 HD
ENDBRANCH  13  14
ENDBRANCH   8  13
ENDBRANCH   1   9
BRANCH   5  25
ATOM     25  C   UNL     1       4.207  -2.031  -4.918  0.00  0.00    +0.249 C 
ATOM     26  O   UNL     1       4.733  -2.234  -5.995  0.00  0.00    -0.270 OA
ATOM     27  N   UNL     1       4.930  -2.131  -3.785  0.00  0.00    -0.308 N 
ATOM     28  H   UNL     1       4.531  -1.898  -2.933  0.00  0.00    +0.149 HD
BRANCH  27  29
ATOM     29  C   UNL     1       6.320  -2.591  -3.842  0.00  0.00    +0.073 C 
ATOM     30  C   UNL     1       6.772  -3.603  -2.787  0.00  0.00    +0.024 C 
ATOM     31  C   UNL     1       7.256  -2.153  -2.713  0.00  0.00    +0.024 C 
ENDBRANCH  27  29
ENDBRANCH   5  25
BRANCH   3  32
ATOM     32  C   UNL     1      -0.077  -1.392  -7.183  0.00  0.00    +0.124 C 
BRANCH  32  33
ATOM     33  C   UNL     1      -0.015  -0.019  -7.854  0.00  0.00    +0.009 C 
ATOM     34  C   UNL     1      -0.717   1.014  -6.970  0.00  0.00    +0.005 C 
ATOM     35  C   UNL     1      -0.653   2.387  -7.641  0.00  0.00    +0.000 C 
ATOM     36  C   UNL     1      -1.351   2.322  -9.001  0.00  0.00    +0.000 C 
ATOM     37  C   UNL     1      -0.649   1.290  -9.886  0.00  0.00    +0.000 C 
ATOM     38  C   UNL     1      -0.712  -0.084  -9.214  0.00  0.00    +0.005 C 
ENDBRANCH  32  33
ENDBRANCH   3  32
TORSDOF 7
