REMARK  Name = ZINC17345765
REMARK  16 active torsions:
REMARK  status: ('A' for Active; 'I' for Inactive)
REMARK    1  A    between atoms: C_1  and  C_2
REMARK    2  A    between atoms: C_2  and  C_3
REMARK    3  A    between atoms: C_3  and  C_4
REMARK    4  A    between atoms: C_4  and  N_5
REMARK    5  A    between atoms: N_5  and  C_6
REMARK    6  A    between atoms: C_7  and  N_19
REMARK    7  A    between atoms: N_8  and  C_15
REMARK    8  A    between atoms: C_15  and  C_16
REMARK    9  A    between atoms: C_16  and  C_17
REMARK   10  A    between atoms: C_16  and  C_18
REMARK   11  A    between atoms: C_20  and  C_22
REMARK   12  A    between atoms: C_23  and  C_24
REMARK   13  A    between atoms: C_28  and  O_34
REMARK   14  A    between atoms: C_29  and  O_30
REMARK   15  A    between atoms: O_30  and  C_31
REMARK   16  A    between atoms: O_34  and  C_35
REMARK                            x       y       z     vdW  Elec       q    Type
REMARK                         _______ _______ _______ _____ _____    ______ ____
ROOT
ATOM      1  N   UNL     1       0.453  -2.558   2.434  0.00  0.00    -0.261 N 
ATOM      2  C   UNL     1       0.509  -1.954   3.638  0.00  0.00    +0.244 C 
ATOM      3  O   UNL     1       0.245  -0.769   3.738  0.00  0.00    -0.270 OA
ENDROOT
BRANCH   1   4
ATOM      4  C   UNL     1       0.202  -1.796   1.275  0.00  0.00    +0.140 A 
ATOM      5  C   UNL     1      -0.958  -1.982   0.550  0.00  0.00    +0.127 A 
ATOM      6  N   UNL     1      -1.174  -1.224  -0.577  0.00  0.00    -0.280 N 
ATOM      7  C   UNL     1      -0.264  -0.314  -0.971  0.00  0.00    +0.331 A 
ATOM      8  O   UNL     1      -0.472   0.343  -1.973  0.00  0.00    -0.246 OA
ATOM      9  N   UNL     1       0.869  -0.115  -0.274  0.00  0.00    -0.273 N 
ATOM     10  H   UNL     1       1.525   0.573  -0.584  0.00  0.00    +0.173 HD
ATOM     11  C   UNL     1       1.129  -0.832   0.837  0.00  0.00    +0.277 A 
ATOM     12  O   UNL     1       2.162  -0.646   1.458  0.00  0.00    -0.266 OA
BRANCH   5  13
ATOM     13  N   UNL     1      -1.885  -2.914   0.949  0.00  0.00    -0.343 N 
ATOM     14  H   UNL     1      -2.728  -2.994   0.475  0.00  0.00    +0.144 HD
ATOM     15  H   UNL     1      -1.697  -3.493   1.704  0.00  0.00    +0.144 HD
ENDBRANCH   5  13
BRANCH   6  16
ATOM     16  C   UNL     1      -2.401  -1.411  -1.356  0.00  0.00    +0.131 C 
BRANCH  16  17
ATOM     17  C   UNL     1      -3.489  -0.475  -0.827  0.00  0.00    +0.003 C 
ATOM     18  C   UNL     1      -4.729  -0.580  -1.717  0.00  0.00    +0.009 C 
ATOM     19  C   UNL     1      -3.854  -0.875   0.604  0.00  0.00    +0.009 C 
ENDBRANCH  16  17
ENDBRANCH   6  16
ENDBRANCH   1   4
BRANCH   2  20
ATOM     20  C   UNL     1       0.887  -2.722   4.824  0.00  0.00    +0.068 C 
ATOM     21  C   UNL     1       0.944  -2.117   6.030  0.00  0.00    +0.017 C 
BRANCH  21  22
ATOM     22  C   UNL     1       1.324  -2.888   7.222  0.00  0.00    +0.021 A 
ATOM     23  C   UNL     1       1.622  -4.252   7.112  0.00  0.00    +0.012 A 
ATOM     24  C   UNL     1       1.982  -4.969   8.231  0.00  0.00    +0.004 A 
ATOM     25  C   UNL     1       2.042  -4.352   9.470  0.00  0.00    +0.049 A 
ATOM     26  C   UNL     1       1.744  -3.005   9.596  0.00  0.00    +0.162 A 
ATOM     27  C   UNL     1       1.384  -2.264   8.476  0.00  0.00    +0.175 A 
BRANCH  26  28
ATOM     28  O   UNL     1       1.805  -2.407  10.816  0.00  0.00    -0.491 OA
ATOM     29  C   UNL     1       2.182  -3.228  11.923  0.00  0.00    +0.277 C 
ENDBRANCH  26  28
BRANCH  27  30
ATOM     30  O   UNL     1       1.092  -0.943   8.596  0.00  0.00    -0.430 OA
BRANCH  30  31
ATOM     31  C   UNL     1      -0.271  -0.601   8.855  0.00  0.00    +0.541 C 
ATOM     32  F   UNL     1      -1.077  -1.071   7.812  0.00  0.00    -0.166 F 
ATOM     33  F   UNL     1      -0.678  -1.187  10.059  0.00  0.00    -0.166 F 
ENDBRANCH  30  31
ENDBRANCH  27  30
ENDBRANCH  21  22
ENDBRANCH   2  20
BRANCH   1  34
ATOM     34  C   UNL     1       0.652  -4.005   2.331  0.00  0.00    +0.114 C 
BRANCH  34  35
ATOM     35  C   UNL     1       2.119  -4.297   2.011  0.00  0.00    +0.019 C 
BRANCH  35  37
ATOM     36  C   UNL     1       3.795  -6.100   1.583  0.00  0.00    +0.004 C 
ATOM     37  C   UNL     1       2.328  -5.809   1.903  0.00  0.00    -0.002 C 
ENDBRANCH  35  37
ENDBRANCH  34  35
ENDBRANCH   1  34
TORSDOF 12
