REMARK  Name = ZINC63187701
REMARK  9 active torsions:
REMARK  status: ('A' for Active; 'I' for Inactive)
REMARK    1  A    between atoms: C_1  and  C_2
REMARK    2  A    between atoms: C_5  and  N_8
REMARK    3  A    between atoms: C_9  and  C_36
REMARK    4  A    between atoms: C_12  and  C_15
REMARK    5  A    between atoms: C_13  and  C_14
REMARK    6  A    between atoms: C_15  and  C_17
REMARK    7  A    between atoms: C_17  and  N_18
REMARK    8  A    between atoms: C_21  and  C_26
REMARK    9  A    between atoms: C_26  and  C_27
REMARK                            x       y       z     vdW  Elec       q    Type
REMARK                         _______ _______ _______ _____ _____    ______ ____
ROOT
ATOM      1  N   UNL     1      -0.061  -9.598  -2.572  0.00  0.00    -0.217 N 
ATOM      2  C   UNL     1      -1.215 -10.065  -3.088  0.00  0.00    +0.244 C 
ATOM      3  O   UNL     1      -2.337  -9.853  -2.682  0.00  0.00    -0.273 OA
ATOM      4  C   UNL     1      -0.817 -10.909  -4.283  0.00  0.00    +0.165 C 
ATOM      5  N   UNL     1       0.652 -10.811  -4.303  0.00  0.00    -0.287 N 
ATOM      6  C   UNL     1       0.999 -10.021  -3.270  0.00  0.00    +0.310 C 
ATOM      7  O   UNL     1       2.147  -9.729  -2.999  0.00  0.00    -0.252 OA
ATOM      8  H   UNL     1       1.253 -11.231  -4.938  0.00  0.00    +0.151 HD
ENDROOT
BRANCH   1   9
ATOM      9  C   UNL     1       0.023  -8.729  -1.395  0.00  0.00    +0.197 C 
BRANCH   9  10
ATOM     10  C   UNL     1      -0.043  -7.288  -1.830  0.00  0.00    +0.178 C 
ATOM     11  O   UNL     1      -0.149  -7.012  -3.009  0.00  0.00    -0.291 OA
BRANCH  10  15
ATOM     12  N   UNL     1       0.051  -4.168  -0.020  0.00  0.00    -0.300 N 
ATOM     13  C   UNL     1       0.169  -5.016   1.173  0.00  0.00    +0.080 C 
ATOM     14  C   UNL     1       0.150  -6.455   0.622  0.00  0.00    +0.062 C 
ATOM     15  C   UNL     1       0.018  -6.264  -0.874  0.00  0.00    +0.015 C 
ATOM     16  C   UNL     1      -0.034  -4.941  -1.129  0.00  0.00    +0.015 C 
ATOM     17  C   UNL     1      -0.171  -4.375  -2.519  0.00  0.00    +0.061 C 
ATOM     18  C   UNL     1       1.486  -4.737   1.900  0.00  0.00    +0.029 C 
BRANCH  12  23
ATOM     19  C   UNL     1      -0.059   1.502   0.015  0.00  0.00    +0.044 C 
ATOM     20  C   UNL     1      -0.030  -0.005   0.006  0.00  0.00    -0.050 A 
ATOM     21  C   UNL     1      -1.055  -0.718   0.600  0.00  0.00    +0.005 A 
ATOM     22  C   UNL     1      -1.032  -2.099   0.593  0.00  0.00    +0.024 A 
ATOM     23  C   UNL     1       0.023  -2.771  -0.012  0.00  0.00    +0.034 A 
ATOM     24  C   UNL     1       1.051  -2.051  -0.607  0.00  0.00    +0.024 A 
ATOM     25  C   UNL     1       1.019  -0.670  -0.602  0.00  0.00    +0.005 A 
ENDBRANCH  12  23
ENDBRANCH  10  15
ENDBRANCH   9  10
ENDBRANCH   1   9
BRANCH   4  26
ATOM     26  C   UNL     1      -1.260 -12.360  -4.088  0.00  0.00    +0.065 C 
BRANCH  26  27
ATOM     27  C   UNL     1      -0.964 -13.148  -5.337  0.00  0.00    -0.039 C 
ATOM     28  C   UNL     1       0.133 -13.901  -5.583  0.00  0.00    -0.001 A 
ATOM     29  C   UNL     1       1.332 -14.199  -4.791  0.00  0.00    +0.010 A 
ATOM     30  C   UNL     1       2.282 -15.005  -5.317  0.00  0.00    +0.001 A 
ATOM     31  C   UNL     1       2.151 -15.562  -6.596  0.00  0.00    +0.002 A 
ATOM     32  C   UNL     1       1.078 -15.334  -7.384  0.00  0.00    +0.026 A 
ATOM     33  C   UNL     1       0.018 -14.502  -6.931  0.00  0.00    +0.043 A 
ATOM     34  N   UNL     1      -1.106 -14.134  -7.497  0.00  0.00    -0.380 N 
ATOM     35  C   UNL     1      -1.835 -13.263  -6.568  0.00  0.00    +0.144 C 
ATOM     36  H   UNL     1      -1.408 -14.398  -8.381  0.00  0.00    +0.160 HD
ENDBRANCH  26  27
ENDBRANCH   4  26
TORSDOF 6
