REMARK  Name = ZINC02704826
REMARK  4 active torsions:
REMARK  status: ('A' for Active; 'I' for Inactive)
REMARK    1  A    between atoms: C_4  and  C_7
REMARK    2  A    between atoms: C_7  and  C_9
REMARK    3  A    between atoms: C_10  and  N_18
REMARK    4  A    between atoms: C_19  and  C_21
REMARK                            x       y       z     vdW  Elec       q    Type
REMARK                         _______ _______ _______ _____ _____    ______ ____
ROOT
ATOM      1  C   UNL     1       0.804   6.404  -0.521  0.00  0.00    +0.197 A 
ATOM      2  C   UNL     1       1.974   5.670  -0.547  0.00  0.00    +0.091 A 
ATOM      3  C   UNL     1       3.038   6.628  -0.867  0.00  0.00    +0.042 A 
ATOM      4  C   UNL     1       4.419   6.521  -1.045  0.00  0.00    +0.013 A 
ATOM      5  C   UNL     1       5.151   7.632  -1.354  0.00  0.00    +0.001 A 
ATOM      6  C   UNL     1       4.530   8.865  -1.497  0.00  0.00    +0.004 A 
ATOM      7  C   UNL     1       3.168   8.991  -1.330  0.00  0.00    +0.047 A 
ATOM      8  C   UNL     1       2.402   7.873  -1.016  0.00  0.00    +0.138 A 
ATOM      9  O   UNL     1       1.083   7.697  -0.799  0.00  0.00    -0.450 OA
ENDROOT
BRANCH   2  10
ATOM     10  N   UNL     1       2.115   4.308  -0.315  0.00  0.00    -0.279 N 
ATOM     11  C   UNL     1       3.146   3.634  -0.862  0.00  0.00    +0.261 C 
ATOM     12  O   UNL     1       3.912   4.201  -1.611  0.00  0.00    -0.271 OA
ATOM     13  H   UNL     1       1.471   3.842   0.242  0.00  0.00    +0.155 HD
BRANCH  11  14
ATOM     14  C   UNL     1       3.346   2.175  -0.542  0.00  0.00    +0.296 C 
ATOM     15  C   UNL     1       3.707   2.015   0.941  0.00  0.00    +0.283 C 
ATOM     16  O   UNL     1       3.902   0.621   1.206  0.00  0.00    -0.484 OA
ATOM     17  C   UNL     1       4.667  -0.069   0.317  0.00  0.00    +0.162 A 
ATOM     18  C   UNL     1       5.191  -1.301   0.681  0.00  0.00    +0.049 A 
ATOM     19  C   UNL     1       5.966  -2.015  -0.212  0.00  0.00    +0.004 A 
ATOM     20  C   UNL     1       6.222  -1.505  -1.471  0.00  0.00    +0.004 A 
ATOM     21  C   UNL     1       5.704  -0.278  -1.840  0.00  0.00    +0.049 A 
ATOM     22  C   UNL     1       4.926   0.445  -0.948  0.00  0.00    +0.163 A 
ATOM     23  O   UNL     1       4.425   1.653  -1.325  0.00  0.00    -0.473 OA
ENDBRANCH  11  14
ENDBRANCH   2  10
BRANCH   1  24
ATOM     24  C   UNL     1      -0.484   5.884  -0.245  0.00  0.00    +0.230 C 
ATOM     25  O   UNL     1      -0.612   4.719   0.085  0.00  0.00    -0.283 OA
BRANCH  24  29
ATOM     26  C   UNL     1      -3.900   8.389  -0.572  0.00  0.00    +0.000 A 
ATOM     27  C   UNL     1      -4.058   7.037  -0.325  0.00  0.00    +0.001 A 
ATOM     28  C   UNL     1      -2.953   6.218  -0.218  0.00  0.00    +0.012 A 
ATOM     29  C   UNL     1      -1.673   6.756  -0.359  0.00  0.00    +0.025 A 
ATOM     30  C   UNL     1      -1.520   8.122  -0.603  0.00  0.00    +0.012 A 
ATOM     31  C   UNL     1      -2.634   8.929  -0.713  0.00  0.00    +0.001 A 
ENDBRANCH  24  29
ENDBRANCH   1  24
TORSDOF 4
