REMARK  Name = ZINC03356903
REMARK  6 active torsions:
REMARK  status: ('A' for Active; 'I' for Inactive)
REMARK    1  A    between atoms: C_4  and  N_7
REMARK    2  A    between atoms: C_9  and  C_17
REMARK    3  A    between atoms: C_10  and  C_12
REMARK    4  A    between atoms: C_18  and  C_19
REMARK    5  A    between atoms: N_21  and  C_22
REMARK    6  A    between atoms: C_23  and  C_30
REMARK                            x       y       z     vdW  Elec       q    Type
REMARK                         _______ _______ _______ _____ _____    ______ ____
ROOT
ATOM      1  N   UNL     1       0.594   3.597   0.015  0.00  0.00    -0.239 N 
ATOM      2  C   UNL     1      -0.751   3.634   0.028  0.00  0.00    +0.123 A 
ATOM      3  C   UNL     1      -1.210   2.330   0.020  0.00  0.00    +0.021 A 
ATOM      4  C   UNL     1      -0.018   1.472   0.010  0.00  0.00    +0.107 A 
ATOM      5  N   UNL     1       1.029   2.269   0.004  0.00  0.00    -0.165 NA
ENDROOT
BRANCH   1   9
ATOM      6  C   UNL     1       3.084   6.939   0.008  0.00  0.00    +0.000 A 
ATOM      7  C   UNL     1       3.633   5.669  -0.003  0.00  0.00    +0.002 A 
ATOM      8  C   UNL     1       2.810   4.560  -0.001  0.00  0.00    +0.028 A 
ATOM      9  C   UNL     1       1.431   4.720   0.013  0.00  0.00    +0.065 A 
ATOM     10  C   UNL     1       0.883   5.996   0.018  0.00  0.00    +0.028 A 
ATOM     11  C   UNL     1       1.711   7.102   0.022  0.00  0.00    +0.002 A 
ENDBRANCH   1   9
BRANCH   4  12
ATOM     12  C   UNL     1       0.002  -0.004   0.002  0.00  0.00    +0.040 A 
ATOM     13  C   UNL     1       0.880  -0.852  -0.621  0.00  0.00    +0.018 A 
ATOM     14  C   UNL     1       0.697  -2.211  -0.484  0.00  0.00    +0.008 A 
ATOM     15  C   UNL     1      -0.343  -2.667   0.261  0.00  0.00    +0.046 A 
ATOM     16  S   UNL     1      -1.106  -1.149   0.808  0.00  0.00    -0.095 S 
ENDBRANCH   4  12
BRANCH   3  17
ATOM     17  C   UNL     1      -2.610   1.891   0.023  0.00  0.00    +0.017 C 
ATOM     18  C   UNL     1      -3.606   2.806   0.032  0.00  0.00    +0.068 C 
BRANCH  18  19
ATOM     19  C   UNL     1      -4.957   2.381   0.035  0.00  0.00    +0.241 C 
ATOM     20  O   UNL     1      -5.222   1.193   0.029  0.00  0.00    -0.270 OA
ATOM     21  N   UNL     1      -5.950   3.293   0.044  0.00  0.00    -0.275 N 
ATOM     22  H   UNL     1      -5.739   4.240   0.048  0.00  0.00    +0.156 HD
BRANCH  21  23
ATOM     23  C   UNL     1      -7.272   2.878   0.047  0.00  0.00    +0.090 A 
ATOM     24  C   UNL     1      -8.418   3.655   0.056  0.00  0.00    +0.084 A 
ATOM     25  C   UNL     1      -9.706   2.963   0.056  0.00  0.00    -0.018 A 
ATOM     26  C   UNL     1      -9.632   1.619   0.049  0.00  0.00    -0.004 A 
ATOM     27  S   UNL     1      -7.893   1.262   0.033  0.00  0.00    -0.077 S 
ATOM     28  C   UNL     1     -10.994   0.980   0.053  0.00  0.00    +0.043 C 
ATOM     29  C   UNL     1     -11.952   2.107   0.499  0.00  0.00    +0.010 C 
ATOM     30  C   UNL     1     -11.181   3.368   0.059  0.00  0.00    +0.037 C 
BRANCH  24  31
ATOM     31  C   UNL     1      -8.344   5.085   0.065  0.00  0.00    +0.102 C 
ATOM     32  N   UNL     1      -8.285   6.220   0.072  0.00  0.00    -0.191 NA
ENDBRANCH  24  31
ENDBRANCH  21  23
ENDBRANCH  18  19
ENDBRANCH   3  17
TORSDOF 6
