REMARK  Name = ZINC38597967
REMARK  9 active torsions:
REMARK  status: ('A' for Active; 'I' for Inactive)
REMARK    1  A    between atoms: C_1  and  C_2
REMARK    2  A    between atoms: C_5  and  N_11
REMARK    3  A    between atoms: C_6  and  N_8
REMARK    4  A    between atoms: C_12  and  C_14
REMARK    5  A    between atoms: N_16  and  C_17
REMARK    6  A    between atoms: C_17  and  C_18
REMARK    7  A    between atoms: C_18  and  C_20
REMARK    8  A    between atoms: C_18  and  N_25
REMARK    9  A    between atoms: N_28  and  C_31
REMARK                            x       y       z     vdW  Elec       q    Type
REMARK                         _______ _______ _______ _____ _____    ______ ____
ROOT
ATOM      1  C   UNL     1      -0.308  -9.491  -3.210  0.00  0.00    +0.017 C 
ENDROOT
BRANCH   1   2
ATOM      2  N   UNL     1      -1.423  -8.841  -3.911  0.00  0.00    +0.389 N 
ATOM      3  C   UNL     1      -2.630  -8.910  -3.077  0.00  0.00    -0.059 C 
ATOM      4  C   UNL     1      -3.764  -8.134  -3.756  0.00  0.00    +0.086 C 
ATOM      5  N   UNL     1      -3.937  -8.659  -5.120  0.00  0.00    -0.333 N 
ATOM      6  C   UNL     1      -2.745  -8.779  -5.973  0.00  0.00    +0.086 C 
ATOM      7  C   UNL     1      -1.659  -9.524  -5.190  0.00  0.00    -0.059 C 
ATOM      8  H   UNL     1      -1.192  -7.875  -4.085  0.00  0.00    -0.081 HD
BRANCH   5   9
ATOM      9  C   UNL     1      -5.199  -9.034  -5.591  0.00  0.00    +0.030 A 
ATOM     10  C   UNL     1      -6.327  -8.803  -4.815  0.00  0.00    +0.026 A 
ATOM     11  C   UNL     1      -7.573  -9.173  -5.283  0.00  0.00    +0.040 A 
ATOM     12  C   UNL     1      -7.697  -9.774  -6.524  0.00  0.00    +0.124 A 
ATOM     13  C   UNL     1      -6.574 -10.005  -7.299  0.00  0.00    +0.040 A 
ATOM     14  C   UNL     1      -5.326  -9.632  -6.838  0.00  0.00    +0.026 A 
ATOM     15  F   UNL     1      -8.917 -10.136  -6.979  0.00  0.00    -0.205 F 
ENDBRANCH   5   9
ENDBRANCH   1   2
BRANCH   1  16
ATOM     16  C   UNL     1      -0.598 -10.962  -3.059  0.00  0.00    +0.093 A 
ATOM     17  C   UNL     1       0.311 -11.952  -3.115  0.00  0.00    +0.043 A 
ATOM     18  C   UNL     1      -0.392 -13.164  -2.924  0.00  0.00    +0.041 A 
ATOM     19  C   UNL     1      -1.688 -12.841  -2.763  0.00  0.00    +0.195 A 
ATOM     20  O   UNL     1      -1.806 -11.506  -2.840  0.00  0.00    -0.469 OA
ENDBRANCH   1  16
BRANCH   1  21
ATOM     21  C   UNL     1      -0.139  -8.859  -1.826  0.00  0.00    +0.097 C 
BRANCH  21  24
ATOM     22  C   UNL     1       0.076  -6.629  -0.870  0.00  0.00    +0.299 C 
ATOM     23  O   UNL     1       0.004  -7.127   0.235  0.00  0.00    -0.265 OA
ATOM     24  N   UNL     1       0.015  -7.409  -1.967  0.00  0.00    -0.309 N 
ATOM     25  H   UNL     1       0.072  -7.011  -2.849  0.00  0.00    +0.149 HD
BRANCH  22  27
ATOM     26  N   UNL     1       0.294  -4.370   0.084  0.00  0.00    -0.276 N 
ATOM     27  C   UNL     1       0.233  -5.150  -1.013  0.00  0.00    +0.303 C 
ATOM     28  O   UNL     1       0.304  -4.652  -2.117  0.00  0.00    -0.265 OA
ATOM     29  H   UNL     1       0.314  -4.774   0.966  0.00  0.00    +0.155 HD
BRANCH  26  34
ATOM     30  C   UNL     1       0.431   1.274  -0.454  0.00  0.00    +0.044 C 
ATOM     31  C   UNL     1       0.395  -0.226  -0.311  0.00  0.00    -0.048 A 
ATOM     32  C   UNL     1      -0.178  -1.000  -1.304  0.00  0.00    +0.005 A 
ATOM     33  C   UNL     1      -0.213  -2.374  -1.176  0.00  0.00    +0.026 A 
ATOM     34  C   UNL     1       0.328  -2.979  -0.048  0.00  0.00    +0.064 A 
ATOM     35  C   UNL     1       0.903  -2.199   0.946  0.00  0.00    +0.148 A 
ATOM     36  C   UNL     1       0.939  -0.825   0.810  0.00  0.00    +0.038 A 
BRANCH  35  37
ATOM     37  N   UNL     1       1.482  -2.840   2.149  0.00  0.00    +0.058 N 
ATOM     38  O   UNL     1       1.890  -2.157   3.060  0.00  0.00    -0.126 OA
ATOM     39  O   UNL     1       1.545  -4.045   2.221  0.00  0.00    -0.126 OA
ENDBRANCH  35  37
ENDBRANCH  26  34
ENDBRANCH  22  27
ENDBRANCH  21  24
ENDBRANCH   1  21
TORSDOF 8
