REMARK  Name = ZINC35777847
REMARK  14 active torsions:
REMARK  status: ('A' for Active; 'I' for Inactive)
REMARK    1  A    between atoms: C_1  and  C_2
REMARK    2  A    between atoms: C_3  and  C_22
REMARK    3  A    between atoms: C_4  and  O_13
REMARK    4  A    between atoms: N_5  and  C_7
REMARK    5  A    between atoms: O_13  and  C_14
REMARK    6  A    between atoms: C_22  and  N_23
REMARK    7  A    between atoms: N_23  and  C_24
REMARK    8  A    between atoms: N_23  and  C_28
REMARK    9  A    between atoms: C_24  and  C_25
REMARK   10  A    between atoms: C_28  and  C_29
REMARK   11  A    between atoms: C_29  and  C_31
REMARK   12  A    between atoms: C_29  and  O_39
REMARK   13  A    between atoms: C_31  and  O_32
REMARK   14  A    between atoms: O_32  and  C_33
REMARK                            x       y       z     vdW  Elec       q    Type
REMARK                         _______ _______ _______ _____ _____    ______ ____
ROOT
ATOM      1  C   UNL     1       0.936  -3.705  -2.202  0.00  0.00    +0.068 C 
ATOM      2  C   UNL     1      -0.055  -3.188  -3.212  0.00  0.00    +0.065 A 
ATOM      3  C   UNL     1      -0.442  -1.853  -3.369  0.00  0.00    +0.021 A 
ATOM      4  C   UNL     1      -1.348  -1.798  -4.381  0.00  0.00    +0.225 A 
ATOM      5  N   UNL     1      -1.522  -3.064  -4.845  0.00  0.00    -0.200 N 
ATOM      6  N   UNL     1      -0.694  -3.911  -4.096  0.00  0.00    -0.168 NA
ENDROOT
BRANCH   5   7
ATOM      7  C   UNL     1      -2.373  -3.453  -5.888  0.00  0.00    +0.069 A 
ATOM      8  C   UNL     1      -3.651  -2.918  -5.979  0.00  0.00    +0.028 A 
ATOM      9  C   UNL     1      -4.487  -3.302  -7.010  0.00  0.00    +0.002 A 
ATOM     10  C   UNL     1      -4.052  -4.219  -7.949  0.00  0.00    +0.000 A 
ATOM     11  C   UNL     1      -2.780  -4.753  -7.861  0.00  0.00    +0.002 A 
ATOM     12  C   UNL     1      -1.937  -4.369  -6.836  0.00  0.00    +0.028 A 
ENDBRANCH   5   7
BRANCH   4  13
ATOM     13  O   UNL     1      -1.967  -0.682  -4.845  0.00  0.00    -0.435 OA
BRANCH  13  14
ATOM     14  C   UNL     1      -3.107  -0.280  -4.223  0.00  0.00    +0.166 A 
ATOM     15  C   UNL     1      -3.546  -0.936  -3.083  0.00  0.00    +0.052 A 
ATOM     16  C   UNL     1      -4.705  -0.526  -2.453  0.00  0.00    +0.042 A 
ATOM     17  C   UNL     1      -5.431   0.539  -2.959  0.00  0.00    +0.126 A 
ATOM     18  C   UNL     1      -4.996   1.197  -4.097  0.00  0.00    +0.080 A 
ATOM     19  C   UNL     1      -3.832   0.793  -4.727  0.00  0.00    +0.168 A 
ATOM     20  F   UNL     1      -3.405   1.438  -5.835  0.00  0.00    -0.202 F 
ATOM     21  F   UNL     1      -6.564   0.937  -2.341  0.00  0.00    -0.205 F 
ENDBRANCH  13  14
ENDBRANCH   4  13
BRANCH   3  22
ATOM     22  C   UNL     1       0.056  -0.684  -2.558  0.00  0.00    -0.036 C 
BRANCH  22  23
ATOM     23  N   UNL     1       1.320  -0.198  -3.127  0.00  0.00    +0.384 N 
ATOM     24  H   UNL     1       1.977  -0.961  -3.188  0.00  0.00    -0.081 HD
BRANCH  23  25
ATOM     25  C   UNL     1       1.871   0.856  -2.265  0.00  0.00    -0.075 C 
BRANCH  25  26
ATOM     26  C   UNL     1       2.254   0.258  -0.910  0.00  0.00    -0.028 C 
ATOM     27  C   UNL     1       1.518   0.779   0.326  0.00  0.00    +0.002 C 
ATOM     28  C   UNL     1       2.978   1.167   0.085  0.00  0.00    +0.002 C 
ENDBRANCH  25  26
ENDBRANCH  23  25
BRANCH  23  29
ATOM     29  C   UNL     1       1.075   0.346  -4.470  0.00  0.00    -0.043 C 
BRANCH  29  30
ATOM     30  C   UNL     1       2.408   0.739  -5.111  0.00  0.00    +0.135 C 
BRANCH  30  31
ATOM     31  O   UNL     1       3.201  -0.432  -5.316  0.00  0.00    -0.390 OA
ATOM     32  H   UNL     1       2.789  -1.090  -5.893  0.00  0.00    +0.210 HD
ENDBRANCH  30  31
BRANCH  30  33
ATOM     33  C   UNL     1       2.145   1.419  -6.456  0.00  0.00    +0.258 C 
BRANCH  33  34
ATOM     34  O   UNL     1       3.380   1.889  -7.001  0.00  0.00    -0.489 OA
BRANCH  34  35
ATOM     35  C   UNL     1       3.323   2.523  -8.202  0.00  0.00    +0.121 A 
ATOM     36  C   UNL     1       2.103   2.693  -8.840  0.00  0.00    +0.045 A 
ATOM     37  C   UNL     1       2.047   3.338 -10.061  0.00  0.00    +0.004 A 
ATOM     38  C   UNL     1       3.207   3.812 -10.647  0.00  0.00    +0.000 A 
ATOM     39  C   UNL     1       4.424   3.643 -10.013  0.00  0.00    +0.004 A 
ATOM     40  C   UNL     1       4.484   3.005  -8.789  0.00  0.00    +0.045 A 
ENDBRANCH  34  35
ENDBRANCH  33  34
ENDBRANCH  30  33
ENDBRANCH  29  30
ENDBRANCH  23  29
ENDBRANCH  22  23
ENDBRANCH   3  22
TORSDOF 13
