REMARK  Name = ZINC39533091
REMARK  9 active torsions:
REMARK  status: ('A' for Active; 'I' for Inactive)
REMARK    1  A    between atoms: C_1  and  C_2
REMARK    2  A    between atoms: C_2  and  C_3
REMARK    3  A    between atoms: C_3  and  C_4
REMARK    4  A    between atoms: C_7  and  C_10
REMARK    5  A    between atoms: C_10  and  C_12
REMARK    6  A    between atoms: C_10  and  N_21
REMARK    7  A    between atoms: C_12  and  N_13
REMARK    8  A    between atoms: N_13  and  C_14
REMARK    9  A    between atoms: C_14  and  C_15
REMARK                            x       y       z     vdW  Elec       q    Type
REMARK                         _______ _______ _______ _____ _____    ______ ____
ROOT
ATOM      1  C   UNL     1       0.821  -6.289   1.210  0.00  0.00    +0.070 C 
ENDROOT
BRANCH   1   2
ATOM      2  N   UNL     1       1.179  -6.767  -0.132  0.00  0.00    -0.294 NA
ATOM      3  C   UNL     1       2.541  -6.351  -0.493  0.00  0.00    +0.100 C 
ATOM      4  C   UNL     1       2.903  -6.934  -1.861  0.00  0.00    +0.097 C 
ATOM      5  N   UNL     1       1.931  -6.471  -2.861  0.00  0.00    -0.303 NA
ATOM      6  C   UNL     1       0.569  -6.888  -2.500  0.00  0.00    +0.132 C 
ATOM      7  C   UNL     1       0.206  -6.304  -1.132  0.00  0.00    +0.114 C 
ATOM      8  I   UNL     1      -0.825  -6.164  -3.986  0.00  0.00    -0.063 I 
ATOM      9  H   UNL     1       1.984  -5.471  -2.981  0.00  0.00    +0.123 HD
ENDBRANCH   1   2
BRANCH   1  13
ATOM     10  C   UNL     1       1.157  -2.033   1.344  0.00  0.00    -0.047 A 
ATOM     11  C   UNL     1      -0.089  -2.629   1.375  0.00  0.00    +0.004 A 
ATOM     12  C   UNL     1      -0.199  -4.006   1.332  0.00  0.00    +0.005 A 
ATOM     13  C   UNL     1       0.939  -4.787   1.257  0.00  0.00    -0.032 A 
ATOM     14  C   UNL     1       2.186  -4.191   1.225  0.00  0.00    +0.005 A 
ATOM     15  C   UNL     1       2.295  -2.814   1.264  0.00  0.00    +0.004 A 
BRANCH  10  16
ATOM     16  C   UNL     1       1.276  -0.531   1.392  0.00  0.00    +0.035 C 
BRANCH  16  18
ATOM     17  C   UNL     1       1.370   1.552   0.016  0.00  0.00    +0.004 C 
ATOM     18  C   UNL     1       1.250   0.028  -0.032  0.00  0.00    +0.001 C 
ENDBRANCH  16  18
ENDBRANCH  10  16
ENDBRANCH   1  13
BRANCH   1  19
ATOM     19  C   UNL     1       1.767  -6.908   2.241  0.00  0.00    -0.058 C 
BRANCH  19  20
ATOM     20  N   UNL     1       1.740  -8.371   2.114  0.00  0.00    +0.383 N 
ATOM     21  H   UNL     1       0.802  -8.705   2.276  0.00  0.00    -0.085 HD
ATOM     22  H   UNL     1       2.036  -8.633   1.186  0.00  0.00    -0.085 HD
BRANCH  20  23
ATOM     23  C   UNL     1       2.649  -8.965   3.104  0.00  0.00    -0.047 C 
BRANCH  23  24
ATOM     24  C   UNL     1       2.622 -10.466   2.974  0.00  0.00    -0.064 A 
ATOM     25  C   UNL     1       1.709 -11.206   3.701  0.00  0.00    +0.002 A 
ATOM     26  C   UNL     1       1.684 -12.583   3.582  0.00  0.00    +0.000 A 
ATOM     27  C   UNL     1       2.571 -13.220   2.735  0.00  0.00    +0.000 A 
ATOM     28  C   UNL     1       3.484 -12.479   2.006  0.00  0.00    +0.000 A 
ATOM     29  C   UNL     1       3.506 -11.102   2.123  0.00  0.00    +0.002 A 
ENDBRANCH  23  24
ENDBRANCH  20  23
ENDBRANCH  19  20
ENDBRANCH   1  19
TORSDOF 8
