REMARK  Name = ZINC20873911
REMARK  14 active torsions:
REMARK  status: ('A' for Active; 'I' for Inactive)
REMARK    1  A    between atoms: C_1  and  C_2
REMARK    2  A    between atoms: C_5  and  C_8
REMARK    3  A    between atoms: C_8  and  O_9
REMARK    4  A    between atoms: O_9  and  C_10
REMARK    5  A    between atoms: C_11  and  O_29
REMARK    6  A    between atoms: C_13  and  C_17
REMARK    7  A    between atoms: C_17  and  N_18
REMARK    8  A    between atoms: N_18  and  C_19
REMARK    9  A    between atoms: C_19  and  C_20
REMARK   10  A    between atoms: C_20  and  C_21
REMARK   11  A    between atoms: C_21  and  S_22
REMARK   12  A    between atoms: S_22  and  C_23
REMARK   13  A    between atoms: N_27  and  C_28
REMARK   14  A    between atoms: O_29  and  C_30
REMARK                            x       y       z     vdW  Elec       q    Type
REMARK                         _______ _______ _______ _____ _____    ______ ____
ROOT
ATOM      1  C   UNL     1      -1.432   3.411   2.466  0.00  0.00    +0.176 A 
ATOM      2  C   UNL     1      -0.787   2.893   1.346  0.00  0.00    +0.163 A 
ATOM      3  C   UNL     1      -0.259   3.751   0.395  0.00  0.00    +0.051 A 
ATOM      4  C   UNL     1      -0.368   5.119   0.561  0.00  0.00    -0.060 A 
ATOM      5  C   UNL     1      -1.002   5.635   1.675  0.00  0.00    +0.021 A 
ATOM      6  C   UNL     1      -1.532   4.784   2.630  0.00  0.00    +0.063 A 
ATOM      7 BR   UNL     1      -2.398   5.494   4.153  0.00  0.00    -0.046 Br
ENDROOT
BRANCH   2   8
ATOM      8  O   UNL     1      -0.682   1.547   1.184  0.00  0.00    -0.491 OA
ATOM      9  C   UNL     1      -0.013   1.086   0.008  0.00  0.00    +0.277 C 
ENDBRANCH   2   8
BRANCH   1  10
ATOM     10  O   UNL     1      -1.957   2.573   3.399  0.00  0.00    -0.483 OA
BRANCH  10  11
ATOM     11  C   UNL     1      -1.102   2.184   4.476  0.00  0.00    +0.264 C 
BRANCH  11  16
ATOM     12  C   UNL     1      -3.970  -1.353   8.033  0.00  0.00    +0.044 C 
ATOM     13  C   UNL     1      -3.222  -0.430   7.106  0.00  0.00    -0.050 A 
ATOM     14  C   UNL     1      -2.507  -0.950   6.043  0.00  0.00    +0.004 A 
ATOM     15  C   UNL     1      -1.820  -0.104   5.192  0.00  0.00    +0.007 A 
ATOM     16  C   UNL     1      -1.850   1.262   5.404  0.00  0.00    -0.010 A 
ATOM     17  C   UNL     1      -2.561   1.781   6.469  0.00  0.00    +0.007 A 
ATOM     18  C   UNL     1      -3.251   0.935   7.317  0.00  0.00    +0.004 A 
ENDBRANCH  11  16
ENDBRANCH  10  11
ENDBRANCH   1  10
BRANCH   4  19
ATOM     19  C   UNL     1       0.207   6.050  -0.475  0.00  0.00    -0.047 C 
BRANCH  19  20
ATOM     20  N   UNL     1      -0.811   6.340  -1.492  0.00  0.00    +0.382 N 
ATOM     21  H   UNL     1      -1.124   5.402  -1.975  0.00  0.00    -0.085 HD
ATOM     22  H   UNL     1      -1.681   6.814  -1.016  0.00  0.00    -0.085 HD
BRANCH  20  23
ATOM     23  C   UNL     1      -0.285   7.247  -2.521  0.00  0.00    -0.081 C 
BRANCH  23  24
ATOM     24  C   UNL     1      -1.372   7.524  -3.561  0.00  0.00    -0.008 C 
BRANCH  24  25
ATOM     25  C   UNL     1      -0.824   8.469  -4.633  0.00  0.00    +0.075 C 
BRANCH  25  26
ATOM     26  S   UNL     1      -2.110   8.797  -5.863  0.00  0.00    -0.085 S 
BRANCH  26  27
ATOM     27  C   UNL     1      -1.232   9.878  -6.943  0.00  0.00    +0.209 A 
ATOM     28  N   UNL     1       0.015  10.276  -6.806  0.00  0.00    -0.102 NA
ATOM     29  N   UNL     1       0.344  11.060  -7.768  0.00  0.00    -0.022 NA
ATOM     30  N   UNL     1      -0.647  11.219  -8.577  0.00  0.00    -0.043 NA
ATOM     31  N   UNL     1      -1.711  10.450  -8.073  0.00  0.00    -0.223 N 
ATOM     32  C   UNL     1      -3.050  10.301  -8.646  0.00  0.00    +0.177 C 
ENDBRANCH  26  27
ENDBRANCH  25  26
ENDBRANCH  24  25
ENDBRANCH  23  24
ENDBRANCH  20  23
ENDBRANCH  19  20
ENDBRANCH   4  19
TORSDOF 11
