REMARK  Name = ZINC12490328
REMARK  13 active torsions:
REMARK  status: ('A' for Active; 'I' for Inactive)
REMARK    1  A    between atoms: C_1  and  C_2
REMARK    2  A    between atoms: C_2  and  C_3
REMARK    3  A    between atoms: C_2  and  C_4
REMARK    4  A    between atoms: C_2  and  N_5
REMARK    5  A    between atoms: C_6  and  C_8
REMARK    6  A    between atoms: C_8  and  C_10
REMARK    7  A    between atoms: C_8  and  N_16
REMARK    8  A    between atoms: N_16  and  C_17
REMARK    9  A    between atoms: C_22  and  O_23
REMARK   10  A    between atoms: O_23  and  C_24
REMARK   11  A    between atoms: C_25  and  C_27
REMARK   12  A    between atoms: C_27  and  N_28
REMARK   13  A    between atoms: C_29  and  C_31
REMARK                            x       y       z     vdW  Elec       q    Type
REMARK                         _______ _______ _______ _____ _____    ______ ____
ROOT
ATOM      1  N   UNL     1      -0.841  -1.161  -0.090  0.00  0.00    -0.251 N 
ATOM      2  C   UNL     1      -0.625  -2.087  -1.046  0.00  0.00    +0.238 C 
ATOM      3  O   UNL     1       0.317  -1.971  -1.800  0.00  0.00    -0.273 OA
ENDROOT
BRANCH   1   4
ATOM      4  C   UNL     1      -1.930  -1.294   0.781  0.00  0.00    +0.079 A 
ATOM      5  C   UNL     1      -3.144  -0.695   0.475  0.00  0.00    +0.027 A 
ATOM      6  C   UNL     1      -4.216  -0.828   1.337  0.00  0.00    +0.002 A 
ATOM      7  C   UNL     1      -4.083  -1.558   2.504  0.00  0.00    +0.004 A 
ATOM      8  C   UNL     1      -2.877  -2.157   2.816  0.00  0.00    +0.047 A 
ATOM      9  C   UNL     1      -1.799  -2.033   1.955  0.00  0.00    +0.141 A 
BRANCH   9  10
ATOM     10  O   UNL     1      -0.614  -2.627   2.257  0.00  0.00    -0.493 OA
ATOM     11  C   UNL     1      -0.552  -3.369   3.477  0.00  0.00    +0.277 C 
ENDBRANCH   9  10
ENDBRANCH   1   4
BRANCH   1  12
ATOM     12  C   UNL     1       0.062  -0.014   0.036  0.00  0.00    +0.197 C 
BRANCH  12  13
ATOM     13  C   UNL     1       0.034   0.791  -1.237  0.00  0.00    -0.018 A 
ATOM     14  C   UNL     1      -1.173   1.216  -1.760  0.00  0.00    +0.006 A 
ATOM     15  C   UNL     1      -1.199   1.958  -2.925  0.00  0.00    +0.000 A 
ATOM     16  C   UNL     1      -0.018   2.267  -3.574  0.00  0.00    +0.000 A 
ATOM     17  C   UNL     1       1.189   1.838  -3.055  0.00  0.00    +0.000 A 
ATOM     18  C   UNL     1       1.215   1.099  -1.886  0.00  0.00    +0.006 A 
ENDBRANCH  12  13
BRANCH  12  20
ATOM     19  N   UNL     1       0.531   1.367   2.034  0.00  0.00    -0.309 N 
ATOM     20  C   UNL     1      -0.382   0.851   1.187  0.00  0.00    +0.239 C 
ATOM     21  O   UNL     1      -1.561   1.082   1.352  0.00  0.00    -0.273 OA
ATOM     22  H   UNL     1       1.474   1.182   1.902  0.00  0.00    +0.149 HD
BRANCH  19  24
ATOM     23  C   UNL     1      -0.836   1.407   4.061  0.00  0.00    +0.031 C 
ATOM     24  C   UNL     1       0.099   2.208   3.153  0.00  0.00    +0.026 C 
ATOM     25  C   UNL     1       1.322   2.662   3.952  0.00  0.00    +0.031 C 
ATOM     26  C   UNL     1      -0.641   3.434   2.614  0.00  0.00    +0.031 C 
ENDBRANCH  19  24
ENDBRANCH  12  20
ENDBRANCH   1  12
BRANCH   2  27
ATOM     27  C   UNL     1      -1.555  -3.266  -1.176  0.00  0.00    +0.201 C 
BRANCH  27  28
ATOM     28  N   UNL     1      -1.109  -4.120  -2.280  0.00  0.00    -0.302 N 
ATOM     29  C   UNL     1      -1.793  -5.240  -2.583  0.00  0.00    +0.251 C 
ATOM     30  O   UNL     1      -2.781  -5.543  -1.941  0.00  0.00    -0.270 OA
ATOM     31  H   UNL     1      -0.321  -3.878  -2.792  0.00  0.00    +0.150 HD
BRANCH  29  32
ATOM     32  C   UNL     1      -1.346  -6.095  -3.688  0.00  0.00    +0.074 A 
ATOM     33  C   UNL     1      -1.897  -7.278  -4.154  0.00  0.00    +0.021 A 
ATOM     34  C   UNL     1      -1.273  -7.881  -5.218  0.00  0.00    +0.008 A 
ATOM     35  C   UNL     1      -0.162  -7.306  -5.748  0.00  0.00    +0.046 A 
ATOM     36  S   UNL     1       0.052  -5.887  -4.776  0.00  0.00    -0.092 S 
ENDBRANCH  29  32
ENDBRANCH  27  28
ENDBRANCH   2  27
TORSDOF 9
