REMARK  Name = ZINC39659028
REMARK  6 active torsions:
REMARK  status: ('A' for Active; 'I' for Inactive)
REMARK    1  A    between atoms: C_1  and  C_2
REMARK    2  A    between atoms: C_2  and  C_35
REMARK    3  A    between atoms: C_5  and  C_8
REMARK    4  A    between atoms: C_8  and  N_9
REMARK    5  A    between atoms: C_10  and  C_12
REMARK    6  A    between atoms: C_23  and  C_25
REMARK                            x       y       z     vdW  Elec       q    Type
REMARK                         _______ _______ _______ _____ _____    ______ ____
ROOT
ATOM      1  C   UNL     1       3.737  -1.045   5.750  0.00  0.00    +0.100 C 
ATOM      2  C   UNL     1       2.255  -0.837   6.133  0.00  0.00    +0.121 C 
ATOM      3  N   UNL     1       1.881  -2.069   6.867  0.00  0.00    -0.296 N 
ATOM      4  C   UNL     1       3.073  -2.384   7.690  0.00  0.00    +0.115 C 
ATOM      5  C   UNL     1       4.271  -2.058   6.776  0.00  0.00    -0.004 C 
ATOM      6  C   UNL     1       5.403  -1.438   7.591  0.00  0.00    -0.010 C 
ATOM      7  C   UNL     1       5.957  -2.483   8.563  0.00  0.00    -0.082 C 
ATOM      8  N   UNL     1       6.448  -3.644   7.811  0.00  0.00    +0.379 N 
ATOM      9  C   UNL     1       5.335  -4.289   7.104  0.00  0.00    -0.082 C 
ATOM     10  C   UNL     1       4.754  -3.321   6.070  0.00  0.00    -0.010 C 
ATOM     11  C   UNL     1       0.719  -2.749   6.801  0.00  0.00    +0.247 C 
ATOM     12  O   UNL     1      -0.123  -2.436   5.983  0.00  0.00    -0.270 OA
ATOM     13  H   UNL     1       7.139  -3.341   7.141  0.00  0.00    -0.086 HD
ATOM     14  H   UNL     1       6.868  -4.303   8.448  0.00  0.00    -0.086 HD
ENDROOT
BRANCH  11  15
ATOM     15  C   UNL     1       0.470  -3.876   7.724  0.00  0.00    +0.037 A 
ATOM     16  C   UNL     1       1.187  -3.961   8.931  0.00  0.00    +0.013 A 
ATOM     17  C   UNL     1       0.975  -4.986   9.796  0.00  0.00    +0.009 A 
ATOM     18  C   UNL     1       0.029  -5.981   9.489  0.00  0.00    -0.018 A 
ATOM     19  C   UNL     1      -0.207  -7.051  10.368  0.00  0.00    +0.008 A 
ATOM     20  C   UNL     1      -1.129  -7.999  10.044  0.00  0.00    +0.001 A 
ATOM     21  C   UNL     1      -1.846  -7.927   8.851  0.00  0.00    +0.001 A 
ATOM     22  C   UNL     1      -1.645  -6.905   7.975  0.00  0.00    +0.008 A 
ATOM     23  C   UNL     1      -0.700  -5.907   8.275  0.00  0.00    -0.017 A 
ATOM     24  C   UNL     1      -0.473  -4.836   7.397  0.00  0.00    +0.021 A 
ENDBRANCH  11  15
BRANCH   1  26
ATOM     25  N   UNL     1       4.972  -1.418   3.640  0.00  0.00    -0.312 N 
ATOM     26  C   UNL     1       3.845  -1.604   4.355  0.00  0.00    +0.218 C 
ATOM     27  O   UNL     1       2.917  -2.222   3.876  0.00  0.00    -0.275 OA
ATOM     28  H   UNL     1       5.713  -0.924   4.023  0.00  0.00    +0.149 HD
BRANCH  25  29
ATOM     29  C   UNL     1       5.077  -1.962   2.284  0.00  0.00    +0.138 C 
BRANCH  29  34
ATOM     30  C   UNL     1       8.920   0.187   1.022  0.00  0.00    +0.074 C 
ATOM     31  C   UNL     1       7.536  -0.063   0.419  0.00  0.00    +0.165 C 
ATOM     32  O   UNL     1       7.554  -1.279  -0.339  0.00  0.00    -0.347 OA
ATOM     33  C   UNL     1       6.595  -2.172   0.262  0.00  0.00    +0.196 C 
ATOM     34  C   UNL     1       6.446  -1.613   1.698  0.00  0.00    +0.164 C 
ATOM     35  O   UNL     1       6.566  -0.188   1.473  0.00  0.00    -0.342 OA
ATOM     36  C   UNL     1       7.155   1.104  -0.494  0.00  0.00    +0.074 C 
ENDBRANCH  29  34
ENDBRANCH  25  29
ENDBRANCH   1  26
TORSDOF 4
