REMARK  Name = ZINC40800507
REMARK  8 active torsions:
REMARK  status: ('A' for Active; 'I' for Inactive)
REMARK    1  A    between atoms: C_1  and  N_2
REMARK    2  A    between atoms: C_7  and  O_27
REMARK    3  A    between atoms: C_10  and  C_11
REMARK    4  A    between atoms: N_13  and  C_14
REMARK    5  A    between atoms: C_15  and  C_23
REMARK    6  A    between atoms: C_23  and  O_25
REMARK    7  A    between atoms: O_25  and  C_26
REMARK    8  A    between atoms: O_27  and  C_28
REMARK                            x       y       z     vdW  Elec       q    Type
REMARK                         _______ _______ _______ _____ _____    ______ ____
ROOT
ATOM      1  C   UNL     1      -0.187  -0.356   2.508  0.00  0.00    +0.265 C 
ATOM      2  O   UNL     1      -0.100  -1.153   3.424  0.00  0.00    -0.268 OA
ATOM      3  N   UNL     1      -0.392   0.950   2.768  0.00  0.00    -0.274 N 
ATOM      4  H   UNL     1      -0.537   1.573   2.038  0.00  0.00    +0.156 HD
ENDROOT
BRANCH   1  14
ATOM      5  C   UNL     1       0.070  -3.300   1.611  0.00  0.00    +0.149 C 
ATOM      6  N   UNL     1       0.045  -2.138   0.720  0.00  0.00    -0.339 N 
ATOM      7  C   UNL     1       0.127  -2.179  -0.652  0.00  0.00    +0.053 A 
ATOM      8  C   UNL     1       0.248  -3.222  -1.566  0.00  0.00    +0.026 A 
ATOM      9  C   UNL     1       0.309  -2.953  -2.916  0.00  0.00    +0.006 A 
ATOM     10  C   UNL     1       0.250  -1.648  -3.382  0.00  0.00    +0.046 A 
ATOM     11  C   UNL     1       0.129  -0.595  -2.498  0.00  0.00    +0.129 A 
ATOM     12  C   UNL     1       0.066  -0.851  -1.117  0.00  0.00    +0.042 A 
ATOM     13  C   UNL     1      -0.054  -0.019   0.020  0.00  0.00    +0.044 A 
ATOM     14  C   UNL     1      -0.070  -0.819   1.119  0.00  0.00    +0.106 A 
BRANCH  11  15
ATOM     15  O   UNL     1       0.073   0.681  -2.959  0.00  0.00    -0.494 OA
ATOM     16  C   UNL     1       0.143   0.864  -4.375  0.00  0.00    +0.277 C 
ENDBRANCH  11  15
ENDBRANCH   1  14
BRANCH   3  17
ATOM     17  C   UNL     1      -0.396   1.403   4.076  0.00  0.00    +0.087 A 
ATOM     18  C   UNL     1      -0.595   2.700   4.529  0.00  0.00    +0.091 A 
ATOM     19  C   UNL     1      -0.550   2.914   5.966  0.00  0.00    -0.021 A 
ATOM     20  C   UNL     1      -0.316   1.795   6.685  0.00  0.00    -0.004 A 
ATOM     21  S   UNL     1      -0.169   0.509   5.479  0.00  0.00    -0.077 S 
ATOM     22  C   UNL     1      -0.211   1.689   8.175  0.00  0.00    +0.043 C 
ATOM     23  C   UNL     1      -0.035   3.103   8.748  0.00  0.00    +0.005 C 
ATOM     24  C   UNL     1      -1.080   4.027   8.118  0.00  0.00    +0.005 C 
ATOM     25  C   UNL     1      -0.746   4.263   6.643  0.00  0.00    +0.037 C 
BRANCH  18  26
ATOM     26  C   UNL     1      -0.838   3.804   3.600  0.00  0.00    +0.342 C 
ATOM     27  O   UNL     1      -1.976   4.084   3.273  0.00  0.00    -0.245 OA
BRANCH  26  28
ATOM     28  O   UNL     1       0.199   4.511   3.107  0.00  0.00    -0.464 OA
ATOM     29  C   UNL     1      -0.111   5.575   2.205  0.00  0.00    +0.280 C 
ENDBRANCH  26  28
ENDBRANCH  18  26
ENDBRANCH   3  17
TORSDOF 5
