REMARK  Name = ZINC13205716
REMARK  14 active torsions:
REMARK  status: ('A' for Active; 'I' for Inactive)
REMARK    1  A    between atoms: C_1  and  C_2
REMARK    2  A    between atoms: C_2  and  C_3
REMARK    3  A    between atoms: C_8  and  N_9
REMARK    4  A    between atoms: C_10  and  C_12
REMARK    5  A    between atoms: C_12  and  N_13
REMARK    6  A    between atoms: N_13  and  C_14
REMARK    7  A    between atoms: C_15  and  C_17
REMARK    8  A    between atoms: C_17  and  C_19
REMARK    9  A    between atoms: C_17  and  S_20
REMARK   10  A    between atoms: S_20  and  C_21
REMARK   11  A    between atoms: C_24  and  C_29
REMARK   12  A    between atoms: N_25  and  C_26
REMARK   13  A    between atoms: C_26  and  C_27
REMARK   14  A    between atoms: C_33  and  C_35
REMARK                            x       y       z     vdW  Elec       q    Type
REMARK                         _______ _______ _______ _____ _____    ______ ____
ROOT
ATOM      1  C   UNL     1      -0.011  10.279   0.103  0.00  0.00    +0.137 C 
ATOM      2  C   UNL     1       1.178  10.095  -0.843  0.00  0.00    +0.029 C 
ENDROOT
BRANCH   1   5
ATOM      3  N   UNL     1       0.216  12.643   0.796  0.00  0.00    -0.295 N 
ATOM      4  C   UNL     1       1.376  12.246   1.599  0.00  0.00    +0.132 C 
ATOM      5  C   UNL     1      -0.454  11.719   0.079  0.00  0.00    +0.229 C 
ATOM      6  O   UNL     1      -1.414  12.047  -0.586  0.00  0.00    -0.274 OA
BRANCH   3   7
ATOM      7  C   UNL     1      -0.214  14.043   0.773  0.00  0.00    +0.203 C 
BRANCH   7   9
ATOM      8  N   UNL     1      -1.752  15.503   2.046  0.00  0.00    -0.284 N 
ATOM      9  C   UNL     1      -1.214  14.279   1.875  0.00  0.00    +0.235 C 
ATOM     10  O   UNL     1      -1.536  13.368   2.608  0.00  0.00    -0.274 OA
ATOM     11  H   UNL     1      -1.543  16.216   1.423  0.00  0.00    +0.155 HD
BRANCH   8  17
ATOM     12  C   UNL     1      -2.615  16.987   3.745  0.00  0.00    -0.026 A 
ATOM     13  C   UNL     1      -3.465  17.223   4.809  0.00  0.00    +0.005 A 
ATOM     14  C   UNL     1      -4.312  16.225   5.253  0.00  0.00    +0.000 A 
ATOM     15  C   UNL     1      -4.312  14.988   4.635  0.00  0.00    +0.002 A 
ATOM     16  C   UNL     1      -3.468  14.747   3.568  0.00  0.00    +0.023 A 
ATOM     17  C   UNL     1      -2.612  15.746   3.123  0.00  0.00    +0.037 A 
BRANCH  12  19
ATOM     18  C   UNL     1      -2.349  18.821   2.098  0.00  0.00    +0.009 C 
ATOM     19  C   UNL     1      -1.692  18.076   3.261  0.00  0.00    +0.033 C 
ENDBRANCH  12  19
ENDBRANCH   8  17
ENDBRANCH   7   9
ENDBRANCH   3   7
ENDBRANCH   1   5
BRANCH   1  20
ATOM     20  S   UNL     1      -1.377   9.219  -0.431  0.00  0.00    -0.073 S 
BRANCH  20  21
ATOM     21  C   UNL     1      -0.654   7.633  -0.168  0.00  0.00    +0.193 A 
ATOM     22  N   UNL     1       0.553   7.394   0.292  0.00  0.00    -0.122 NA
ATOM     23  N   UNL     1       0.755   6.126   0.363  0.00  0.00    -0.128 NA
ATOM     24  C   UNL     1      -0.307   5.479  -0.056  0.00  0.00    +0.165 A 
ATOM     25  N   UNL     1      -1.244   6.425  -0.406  0.00  0.00    -0.291 N 
BRANCH  24  26
ATOM     26  C   UNL     1      -0.469   4.012  -0.132  0.00  0.00    +0.020 A 
ATOM     27  C   UNL     1      -1.746   3.449  -0.184  0.00  0.00    +0.011 A 
ATOM     28  C   UNL     1      -1.890   2.080  -0.260  0.00  0.00    +0.001 A 
ATOM     29  C   UNL     1      -0.773   1.263  -0.273  0.00  0.00    +0.003 A 
ATOM     30  C   UNL     1       0.495   1.814  -0.222  0.00  0.00    -0.050 A 
ATOM     31  C   UNL     1       0.653   3.183  -0.151  0.00  0.00    +0.015 A 
ATOM     32  C   UNL     1       1.706   0.917  -0.243  0.00  0.00    +0.044 C 
ENDBRANCH  24  26
BRANCH  25  33
ATOM     33  C   UNL     1      -2.592   6.185  -0.926  0.00  0.00    +0.250 C 
BRANCH  33  34
ATOM     34  C   UNL     1      -3.579   6.197   0.213  0.00  0.00    +0.375 C 
ATOM     35  O   UNL     1      -3.195   6.386   1.343  0.00  0.00    -0.244 OA
ATOM     36  O   UNL     1      -4.884   5.997  -0.027  0.00  0.00    -0.244 OA
ENDBRANCH  33  34
ENDBRANCH  25  33
ENDBRANCH  20  21
ENDBRANCH   1  20
TORSDOF 10
