REMARK  Name = ZINC48353793
REMARK  6 active torsions:
REMARK  status: ('A' for Active; 'I' for Inactive)
REMARK    1  A    between atoms: C_4  and  N_22
REMARK    2  A    between atoms: C_5  and  N_7
REMARK    3  A    between atoms: N_7  and  S_8
REMARK    4  A    between atoms: S_8  and  C_11
REMARK    5  A    between atoms: C_16  and  O_17
REMARK    6  A    between atoms: O_17  and  C_18
REMARK                            x       y       z     vdW  Elec       q    Type
REMARK                         _______ _______ _______ _____ _____    ______ ____
ROOT
ATOM      1  S   UNL     1      -0.186  -2.929  -0.012  0.00  0.00    +0.095 S 
ATOM      2  O   UNL     1      -0.805  -2.672   1.240  0.00  0.00    -0.148 OA
ATOM      3  O   UNL     1      -0.830  -2.658  -1.250  0.00  0.00    -0.148 OA
ENDROOT
BRANCH   1   4
ATOM      4  C   UNL     1       0.231  -4.641  -0.026  0.00  0.00    +0.152 A 
ATOM      5  C   UNL     1      -0.091  -5.440   1.054  0.00  0.00    +0.032 A 
ATOM      6  C   UNL     1       0.236  -6.783   1.044  0.00  0.00    +0.002 A 
ATOM      7  C   UNL     1       0.886  -7.330  -0.047  0.00  0.00    +0.004 A 
ATOM      8  C   UNL     1       1.210  -6.536  -1.130  0.00  0.00    +0.048 A 
ATOM      9  C   UNL     1       0.878  -5.189  -1.124  0.00  0.00    +0.157 A 
BRANCH   9  10
ATOM     10  O   UNL     1       1.190  -4.407  -2.191  0.00  0.00    -0.404 OA
BRANCH  10  11
ATOM     11  C   UNL     1       1.856  -5.038  -3.286  0.00  0.00    +0.575 C 
ATOM     12  F   UNL     1       1.049  -6.062  -3.794  0.00  0.00    -0.133 F 
ATOM     13  F   UNL     1       2.100  -4.095  -4.290  0.00  0.00    -0.133 F 
ATOM     14  F   UNL     1       3.070  -5.577  -2.846  0.00  0.00    -0.133 F 
ENDBRANCH  10  11
ENDBRANCH   9  10
ENDBRANCH   1   4
BRANCH   1  15
ATOM     15  N   UNL     1       1.235  -2.079  -0.021  0.00  0.00    -0.096 NA
BRANCH  15  20
ATOM     16  C   UNL     1      -0.017   1.377   0.010  0.00  0.00    +0.002 A 
ATOM     17  C   UNL     1       1.169   2.089   0.002  0.00  0.00    +0.002 A 
ATOM     18  C   UNL     1       2.380   1.423  -0.013  0.00  0.00    +0.030 A 
ATOM     19  C   UNL     1       2.409   0.037  -0.021  0.00  0.00    +0.090 A 
ATOM     20  C   UNL     1       1.213  -0.681  -0.013  0.00  0.00    +0.100 A 
ATOM     21  C   UNL     1       0.002  -0.004   0.002  0.00  0.00    +0.029 A 
BRANCH  19  22
ATOM     22  N   UNL     1       3.637  -0.641  -0.037  0.00  0.00    -0.238 N 
ATOM     23  C   UNL     1       4.862  -0.069  -0.040  0.00  0.00    +0.114 A 
ATOM     24  C   UNL     1       5.780  -1.063  -0.057  0.00  0.00    +0.041 A 
ATOM     25  C   UNL     1       5.095  -2.283  -0.064  0.00  0.00    +0.135 A 
ATOM     26  N   UNL     1       3.811  -2.031  -0.045  0.00  0.00    -0.175 NA
ENDBRANCH  19  22
ENDBRANCH  15  20
ENDBRANCH   1  15
TORSDOF 6
