REMARK  Name = ZINC20113652
REMARK  11 active torsions:
REMARK  status: ('A' for Active; 'I' for Inactive)
REMARK    1  A    between atoms: C_1  and  N_2
REMARK    2  A    between atoms: C_9  and  O_35
REMARK    3  A    between atoms: C_11  and  C_13
REMARK    4  A    between atoms: N_19  and  C_22
REMARK    5  A    between atoms: C_22  and  C_23
REMARK    6  A    between atoms: C_23  and  C_24
REMARK    7  A    between atoms: C_27  and  O_32
REMARK    8  A    between atoms: C_28  and  O_30
REMARK    9  A    between atoms: O_30  and  C_31
REMARK   10  A    between atoms: O_32  and  C_33
REMARK   11  A    between atoms: O_35  and  C_36
REMARK                            x       y       z     vdW  Elec       q    Type
REMARK                         _______ _______ _______ _____ _____    ______ ____
ROOT
ATOM      1  C   UNL     1      -0.077  -0.129   2.421  0.00  0.00    +0.072 A 
ATOM      2  C   UNL     1      -1.421  -0.519   2.549  0.00  0.00    +0.260 A 
ATOM      3  N   UNL     1      -2.108  -0.185   3.660  0.00  0.00    -0.275 N 
ATOM      4  H   UNL     1      -3.036  -0.453   3.751  0.00  0.00    +0.173 HD
ATOM      5  C   UNL     1      -1.516   0.517   4.643  0.00  0.00    +0.332 A 
ATOM      6  O   UNL     1      -2.152   0.809   5.638  0.00  0.00    -0.246 OA
ATOM      7  N   UNL     1      -0.230   0.901   4.542  0.00  0.00    -0.260 N 
ATOM      8  C   UNL     1       0.507   0.578   3.431  0.00  0.00    +0.262 A 
ATOM      9  O   UNL     1       1.798   0.961   3.336  0.00  0.00    -0.267 OA
ATOM     10  O   UNL     1      -1.963  -1.155   1.661  0.00  0.00    -0.267 OA
ENDROOT
BRANCH   1  21
ATOM     11  C   UNL     1      -0.018   1.465   0.010  0.00  0.00    -0.095 C 
ATOM     12  N   UNL     1       0.002  -0.004   0.002  0.00  0.00    +0.386 N 
ATOM     13  C   UNL     1       0.701  -0.480  -1.202  0.00  0.00    -0.073 C 
ATOM     14  C   UNL     1       0.446  -1.981  -1.351  0.00  0.00    +0.017 C 
ATOM     15  C   UNL     1       0.760  -2.683  -0.055  0.00  0.00    -0.040 A 
ATOM     16  C   UNL     1       0.930  -4.059  -0.071  0.00  0.00    +0.053 A 
ATOM     17  C   UNL     1       1.217  -4.745   1.097  0.00  0.00    +0.170 A 
ATOM     18  C   UNL     1       1.333  -4.047   2.295  0.00  0.00    +0.208 A 
ATOM     19  C   UNL     1       1.163  -2.670   2.307  0.00  0.00    +0.167 A 
ATOM     20  C   UNL     1       0.878  -1.987   1.129  0.00  0.00    -0.008 A 
ATOM     21  C   UNL     1       0.711  -0.491   1.189  0.00  0.00    +0.008 C 
ATOM     22  O   UNL     1       1.614  -4.937   3.293  0.00  0.00    -0.449 OA
ATOM     23  C   UNL     1       1.266  -6.230   2.764  0.00  0.00    +0.467 C 
ATOM     24  O   UNL     1       1.426  -6.072   1.342  0.00  0.00    -0.452 OA
ATOM     25  H   UNL     1      -0.944  -0.355   0.006  0.00  0.00    -0.081 HD
BRANCH  19  26
ATOM     26  O   UNL     1       1.277  -1.985   3.477  0.00  0.00    -0.491 OA
ATOM     27  C   UNL     1       2.576  -1.502   3.822  0.00  0.00    +0.277 C 
ENDBRANCH  19  26
ENDBRANCH   1  21
BRANCH   7  28
ATOM     28  C   UNL     1       0.389   1.665   5.629  0.00  0.00    +0.134 C 
BRANCH  28  29
ATOM     29  C   UNL     1       1.020   0.701   6.635  0.00  0.00    +0.057 C 
BRANCH  29  30
ATOM     30  C   UNL     1       1.657   1.486   7.752  0.00  0.00    -0.042 A 
ATOM     31  C   UNL     1       2.976   1.887   7.649  0.00  0.00    +0.007 A 
ATOM     32  C   UNL     1       3.564   2.608   8.671  0.00  0.00    +0.049 A 
ATOM     33  C   UNL     1       2.832   2.931   9.802  0.00  0.00    +0.161 A 
ATOM     34  C   UNL     1       1.504   2.528   9.906  0.00  0.00    +0.162 A 
ATOM     35  C   UNL     1       0.919   1.810   8.875  0.00  0.00    +0.053 A 
BRANCH  34  36
ATOM     36  O   UNL     1       0.780   2.842  11.014  0.00  0.00    -0.491 OA
ATOM     37  C   UNL     1      -0.577   2.395  11.051  0.00  0.00    +0.277 C 
ENDBRANCH  34  36
BRANCH  33  38
ATOM     38  O   UNL     1       3.409   3.639  10.809  0.00  0.00    -0.491 OA
ATOM     39  C   UNL     1       4.776   4.019  10.635  0.00  0.00    +0.277 C 
ENDBRANCH  33  38
ENDBRANCH  29  30
ENDBRANCH  28  29
ENDBRANCH   7  28
TORSDOF 7
