REMARK  Name = ZINC49881228
REMARK  3 active torsions:
REMARK  status: ('A' for Active; 'I' for Inactive)
REMARK    1  A    between atoms: C_3  and  S_9
REMARK    2  A    between atoms: C_6  and  C_7
REMARK    3  A    between atoms: S_9  and  C_12
REMARK                            x       y       z     vdW  Elec       q    Type
REMARK                         _______ _______ _______ _____ _____    ______ ____
ROOT
ATOM      1  S   UNL     1       3.889   2.325  -0.023  0.00  0.00    +0.031 S 
ATOM      2  O   UNL     1       4.872   1.468  -0.587  0.00  0.00    -0.164 OA
ATOM      3  O   UNL     1       3.592   3.605  -0.564  0.00  0.00    -0.164 OA
ENDROOT
BRANCH   1   6
ATOM      4  C   UNL     1      -0.017   1.392   0.010  0.00  0.00    +0.021 A 
ATOM      5  C   UNL     1       1.170   2.095   0.002  0.00  0.00    +0.028 A 
ATOM      6  C   UNL     1       2.378   1.419  -0.013  0.00  0.00    +0.094 A 
ATOM      7  C   UNL     1       2.404   0.036  -0.021  0.00  0.00    +0.028 A 
ATOM      8  C   UNL     1       1.224  -0.679  -0.014  0.00  0.00    +0.021 A 
ATOM      9  C   UNL     1       0.002  -0.004   0.002  0.00  0.00    +0.052 A 
BRANCH   9  10
ATOM     10  C   UNL     1      -1.226  -0.740   0.010  0.00  0.00    +0.099 C 
ATOM     11  N   UNL     1      -2.201  -1.324   0.017  0.00  0.00    -0.191 NA
ENDBRANCH   9  10
ENDBRANCH   1   6
BRANCH   1  12
ATOM     12  C   UNL     1       4.352   2.584   1.658  0.00  0.00    +0.132 A 
ATOM     13  C   UNL     1       5.122   1.809   2.460  0.00  0.00    +0.036 A 
ATOM     14  C   UNL     1       5.355   2.214   3.761  0.00  0.00    +0.029 A 
ATOM     15  C   UNL     1       4.806   3.376   4.196  0.00  0.00    +0.080 A 
ATOM     16  S   UNL     1       3.935   3.939   2.743  0.00  0.00    -0.058 S 
ATOM     17 CL   UNL     1       4.926   4.124   5.757  0.00  0.00    -0.076 Cl
ENDBRANCH   1  12
TORSDOF 3
