REMARK  Name = ZINC40570152
REMARK  9 active torsions:
REMARK  status: ('A' for Active; 'I' for Inactive)
REMARK    1  A    between atoms: C_1  and  C_2
REMARK    2  A    between atoms: C_2  and  C_4
REMARK    3  A    between atoms: C_5  and  N_28
REMARK    4  A    between atoms: C_7  and  C_18
REMARK    5  A    between atoms: N_15  and  C_17
REMARK    6  A    between atoms: C_21  and  O_26
REMARK    7  A    between atoms: C_22  and  O_24
REMARK    8  A    between atoms: O_24  and  C_25
REMARK    9  A    between atoms: O_26  and  C_27
REMARK                            x       y       z     vdW  Elec       q    Type
REMARK                         _______ _______ _______ _____ _____    ______ ____
ROOT
ATOM      1  C   UNL     1      -1.280  -0.810  -0.538  0.00  0.00    +0.077 A 
ATOM      2  C   UNL     1      -1.385  -2.094  -0.029  0.00  0.00    +0.052 A 
ATOM      3  C   UNL     1      -2.663  -2.512   0.517  0.00  0.00    +0.037 A 
ATOM      4  C   UNL     1      -3.021  -3.768   1.091  0.00  0.00    -0.003 A 
ATOM      5  C   UNL     1      -4.319  -3.956   1.559  0.00  0.00    -0.034 A 
ATOM      6  C   UNL     1      -5.240  -2.932   1.465  0.00  0.00    +0.043 A 
ATOM      7  N   UNL     1      -4.896  -1.770   0.928  0.00  0.00    -0.244 NA
ATOM      8  C   UNL     1      -3.687  -1.540   0.471  0.00  0.00    +0.112 A 
ATOM      9  S   UNL     1      -2.908  -0.133  -0.283  0.00  0.00    -0.064 S 
ATOM     10  C   UNL     1      -6.652  -3.098   1.968  0.00  0.00    +0.037 C 
ATOM     11  C   UNL     1      -6.961  -4.582   2.163  0.00  0.00    -0.073 C 
ATOM     12  N   UNL     1      -5.890  -5.181   2.974  0.00  0.00    +0.381 N 
ATOM     13  C   UNL     1      -4.678  -5.291   2.157  0.00  0.00    -0.041 C 
ATOM     14  C   UNL     1      -6.303  -6.518   3.424  0.00  0.00    -0.096 C 
ATOM     15  H   UNL     1      -5.705  -4.596   3.775  0.00  0.00    -0.082 HD
ENDROOT
BRANCH   4  16
ATOM     16  C   UNL     1      -2.024  -4.859   1.187  0.00  0.00    -0.013 A 
ATOM     17  C   UNL     1      -0.970  -4.764   2.097  0.00  0.00    +0.012 A 
ATOM     18  C   UNL     1      -0.043  -5.781   2.186  0.00  0.00    +0.050 A 
ATOM     19  C   UNL     1      -0.155  -6.900   1.373  0.00  0.00    +0.162 A 
ATOM     20  C   UNL     1      -1.204  -7.000   0.462  0.00  0.00    +0.162 A 
ATOM     21  C   UNL     1      -2.140  -5.986   0.373  0.00  0.00    +0.058 A 
BRANCH  20  22
ATOM     22  O   UNL     1      -1.312  -8.097  -0.334  0.00  0.00    -0.491 OA
ATOM     23  C   UNL     1      -2.413  -8.132  -1.245  0.00  0.00    +0.277 C 
ENDBRANCH  20  22
BRANCH  19  24
ATOM     24  O   UNL     1       0.761  -7.899   1.464  0.00  0.00    -0.491 OA
ATOM     25  C   UNL     1       1.812  -7.731   2.419  0.00  0.00    +0.277 C 
ENDBRANCH  19  24
ENDBRANCH   4  16
BRANCH   1  27
ATOM     26  C   UNL     1      -0.253   1.232  -1.603  0.00  0.00    +0.092 C 
ATOM     27  C   UNL     1      -0.159  -0.189  -1.111  0.00  0.00    +0.168 C 
ATOM     28  O   UNL     1       0.888  -0.799  -1.212  0.00  0.00    -0.292 OA
ENDBRANCH   1  27
BRANCH   2  29
ATOM     29  N   UNL     1      -0.301  -2.955  -0.042  0.00  0.00    -0.356 N 
ATOM     30  H   UNL     1       0.597  -2.602  -0.136  0.00  0.00    +0.142 HD
ATOM     31  H   UNL     1      -0.441  -3.911   0.043  0.00  0.00    +0.142 HD
ENDBRANCH   2  29
TORSDOF 5
