REMARK  Name = ZINC17636393
REMARK  4 active torsions:
REMARK  status: ('A' for Active; 'I' for Inactive)
REMARK    1  A    between atoms: C_4  and  C_7
REMARK    2  A    between atoms: C_10  and  C_13
REMARK    3  A    between atoms: C_15  and  C_23
REMARK    4  A    between atoms: N_25  and  C_26
REMARK                            x       y       z     vdW  Elec       q    Type
REMARK                         _______ _______ _______ _____ _____    ______ ____
ROOT
ATOM      1  C   UNL     1      -1.141   5.880   0.031  0.00  0.00    +0.072 A 
ATOM      2  C   UNL     1      -2.403   5.264   0.039  0.00  0.00    +0.042 A 
ATOM      3  C   UNL     1      -2.484   3.879   0.046  0.00  0.00    +0.048 A 
ATOM      4  C   UNL     1      -1.226   3.132   0.045  0.00  0.00    +0.013 A 
ATOM      5  C   UNL     1      -1.207   1.733   0.047  0.00  0.00    +0.011 A 
ATOM      6  C   UNL     1      -0.012   1.076   0.051  0.00  0.00    +0.001 A 
ATOM      7  C   UNL     1       1.190   1.780   0.043  0.00  0.00    +0.002 A 
ATOM      8  C   UNL     1       1.207   3.141   0.036  0.00  0.00    +0.028 A 
ATOM      9  C   UNL     1      -0.006   3.854   0.037  0.00  0.00    +0.072 A 
ATOM     10  N   UNL     1      -0.021   5.188   0.030  0.00  0.00    -0.247 NA
ENDROOT
BRANCH   1  14
ATOM     11  C   UNL     1      -0.931  10.128   0.008  0.00  0.00    -0.018 A 
ATOM     12  C   UNL     1       0.241   9.372   0.007  0.00  0.00    +0.009 A 
ATOM     13  C   UNL     1       0.173   7.997   0.015  0.00  0.00    +0.010 A 
ATOM     14  C   UNL     1      -1.068   7.360   0.023  0.00  0.00    +0.000 A 
ATOM     15  C   UNL     1      -2.240   8.116   0.018  0.00  0.00    +0.010 A 
ATOM     16  C   UNL     1      -2.172   9.492   0.016  0.00  0.00    +0.009 A 
BRANCH  11  20
ATOM     17  C   UNL     1      -0.720  14.375  -0.014  0.00  0.00    +0.000 A 
ATOM     18  C   UNL     1      -1.952  13.746  -0.006  0.00  0.00    +0.001 A 
ATOM     19  C   UNL     1      -2.027  12.368   0.001  0.00  0.00    +0.008 A 
ATOM     20  C   UNL     1      -0.857  11.610   0.000  0.00  0.00    -0.018 A 
ATOM     21  C   UNL     1       0.381  12.248  -0.002  0.00  0.00    +0.008 A 
ATOM     22  C   UNL     1       0.444  13.627  -0.014  0.00  0.00    +0.001 A 
ENDBRANCH  11  20
ENDBRANCH   1  14
BRANCH   3  23
ATOM     23  C   UNL     1      -3.791   3.186   0.055  0.00  0.00    +0.245 C 
ATOM     24  O   UNL     1      -3.837   1.975  -0.043  0.00  0.00    -0.270 OA
ATOM     25  N   UNL     1      -4.930   3.896   0.171  0.00  0.00    -0.307 N 
ATOM     26  H   UNL     1      -4.894   4.862   0.249  0.00  0.00    +0.149 HD
BRANCH  25  27
ATOM     27  C   UNL     1      -6.224   3.209   0.179  0.00  0.00    +0.096 C 
ATOM     28  C   UNL     1      -6.539   2.730   1.606  0.00  0.00    +0.046 C 
ATOM     29  C   UNL     1      -8.031   2.293   1.652  0.00  0.00    +0.168 C 
ATOM     30  S   UNL     1      -8.803   3.622   0.636  0.00  0.00    -0.029 S 
ATOM     31  O   UNL     1      -9.230   4.671   1.494  0.00  0.00    -0.174 OA
ATOM     32  O   UNL     1      -9.730   3.034  -0.266  0.00  0.00    -0.174 OA
ATOM     33  C   UNL     1      -7.326   4.183  -0.305  0.00  0.00    +0.188 C 
ENDBRANCH  25  27
ENDBRANCH   3  23
TORSDOF 4
