REMARK  Name = ZINC64073311
REMARK  5 active torsions:
REMARK  status: ('A' for Active; 'I' for Inactive)
REMARK    1  A    between atoms: C_7  and  C_10
REMARK    2  A    between atoms: C_10  and  C_12
REMARK    3  A    between atoms: C_10  and  C_29
REMARK    4  A    between atoms: C_12  and  N_13
REMARK    5  A    between atoms: C_14  and  C_16
REMARK                            x       y       z     vdW  Elec       q    Type
REMARK                         _______ _______ _______ _____ _____    ______ ____
ROOT
ATOM      1  C   UNL     1      -0.009  -2.969  -1.478  0.00  0.00    +0.113 C 
ENDROOT
BRANCH   1   2
ATOM      2  N   UNL     1      -0.679  -4.272  -1.488  0.00  0.00    -0.314 N 
ATOM      3  C   UNL     1      -0.526  -5.100  -2.541  0.00  0.00    +0.218 C 
ATOM      4  O   UNL     1       0.165  -4.766  -3.480  0.00  0.00    -0.275 OA
ATOM      5  H   UNL     1      -1.232  -4.540  -0.737  0.00  0.00    +0.149 HD
BRANCH   3   6
ATOM      6  C   UNL     1      -1.215  -6.441  -2.551  0.00  0.00    +0.092 C 
ATOM      7  C   UNL     1      -0.881  -7.177  -3.851  0.00  0.00    +0.016 C 
ATOM      8  C   UNL     1      -1.553  -8.552  -3.848  0.00  0.00    +0.020 C 
ATOM      9  C   UNL     1      -3.073  -8.373  -3.770  0.00  0.00    +0.106 C 
ATOM     10  N   UNL     1      -3.392  -7.542  -2.601  0.00  0.00    -0.313 N 
ATOM     11  C   UNL     1      -2.731  -6.238  -2.458  0.00  0.00    +0.119 C 
ATOM     12  C   UNL     1      -4.303  -7.982  -1.647  0.00  0.00    +0.140 A 
ATOM     13  C   UNL     1      -5.094  -9.101  -1.900  0.00  0.00    +0.154 A 
ATOM     14  N   UNL     1      -5.957  -9.515  -0.993  0.00  0.00    -0.258 NA
ATOM     15  C   UNL     1      -6.072  -8.869   0.156  0.00  0.00    +0.130 A 
ATOM     16  C   UNL     1      -5.289  -7.759   0.411  0.00  0.00    +0.132 A 
ATOM     17  N   UNL     1      -4.418  -7.341  -0.492  0.00  0.00    -0.237 NA
ENDBRANCH   3   6
ENDBRANCH   1   2
BRANCH   1  18
ATOM     18  C   UNL     1      -0.346  -2.233  -0.180  0.00  0.00    +0.048 C 
BRANCH  18  25
ATOM     19  C   UNL     1      -3.704  -3.415   2.715  0.00  0.00    +0.001 A 
ATOM     20  C   UNL     1      -4.957  -2.895   2.365  0.00  0.00    +0.002 A 
ATOM     21  C   UNL     1      -5.146  -2.120   1.275  0.00  0.00    +0.026 A 
ATOM     22  C   UNL     1      -4.054  -1.797   0.425  0.00  0.00    +0.043 A 
ATOM     23  N   UNL     1      -3.982  -1.079  -0.670  0.00  0.00    -0.380 N 
ATOM     24  C   UNL     1      -2.592  -1.079  -1.139  0.00  0.00    +0.145 C 
ATOM     25  C   UNL     1      -1.819  -1.920  -0.148  0.00  0.00    -0.036 C 
ATOM     26  C   UNL     1      -2.719  -2.334   0.774  0.00  0.00    -0.001 A 
ATOM     27  C   UNL     1      -2.599  -3.168   1.975  0.00  0.00    +0.010 A 
ATOM     28  H   UNL     1      -4.724  -0.624  -1.098  0.00  0.00    +0.160 HD
ENDBRANCH  18  25
BRANCH  18  29
ATOM     29  C   UNL     1       0.454  -0.931  -0.110  0.00  0.00    +0.063 C 
ATOM     30  C   UNL     1       1.968  -1.203   0.097  0.00  0.00    +0.042 C 
ATOM     31  C   UNL     1       2.564  -0.199   1.030  0.00  0.00    -0.019 C 
ATOM     32  C   UNL     1       1.780   0.511   1.818  0.00  0.00    +0.036 C 
ATOM     33  S   UNL     1       0.113  -0.011   1.449  0.00  0.00    -0.129 S 
ENDBRANCH  18  29
ENDBRANCH   1  18
TORSDOF 5
