REMARK  Name = ZINC15859348
REMARK  8 active torsions:
REMARK  status: ('A' for Active; 'I' for Inactive)
REMARK    1  A    between atoms: C_1  and  C_2
REMARK    2  A    between atoms: C_2  and  C_3
REMARK    3  A    between atoms: C_2  and  C_4
REMARK    4  A    between atoms: C_7  and  C_10
REMARK    5  A    between atoms: C_10  and  C_12
REMARK    6  A    between atoms: C_10  and  N_63
REMARK    7  A    between atoms: C_13  and  N_21
REMARK    8  A    between atoms: C_22  and  C_24
REMARK                            x       y       z     vdW  Elec       q    Type
REMARK                         _______ _______ _______ _____ _____    ______ ____
ROOT
ATOM      1  C   UNL     1      -1.974   3.852   6.964  0.00  0.00    +0.118 A 
ATOM      2  C   UNL     1      -1.383   2.645   6.892  0.00  0.00    +0.082 A 
ATOM      3  C   UNL     1      -0.048   2.879   6.319  0.00  0.00    +0.042 A 
ATOM      4  C   UNL     1       1.030   2.057   5.996  0.00  0.00    +0.013 A 
ATOM      5  C   UNL     1       2.163   2.604   5.461  0.00  0.00    +0.001 A 
ATOM      6  C   UNL     1       2.245   3.971   5.239  0.00  0.00    +0.004 A 
ATOM      7  C   UNL     1       1.189   4.799   5.552  0.00  0.00    +0.047 A 
ATOM      8  C   UNL     1       0.029   4.263   6.097  0.00  0.00    +0.137 A 
ATOM      9  O   UNL     1      -1.143   4.801   6.491  0.00  0.00    -0.459 OA
ENDROOT
BRANCH   2  10
ATOM     10  N   UNL     1      -1.930   1.412   7.284  0.00  0.00    -0.276 N 
ATOM     11  C   UNL     1      -1.663   0.916   8.508  0.00  0.00    +0.284 C 
ATOM     12  O   UNL     1      -1.024   1.575   9.307  0.00  0.00    -0.266 OA
ATOM     13  H   UNL     1      -2.499   0.918   6.673  0.00  0.00    +0.155 HD
BRANCH  11  14
ATOM     14  C   UNL     1      -2.144  -0.420   8.878  0.00  0.00    +0.189 A 
ATOM     15  C   UNL     1      -1.945  -1.040  10.078  0.00  0.00    +0.054 A 
ATOM     16  C   UNL     1      -2.573  -2.292   9.994  0.00  0.00    +0.042 A 
ATOM     17  C   UNL     1      -3.120  -2.381   8.762  0.00  0.00    +0.196 A 
ATOM     18  O   UNL     1      -2.864  -1.248   8.094  0.00  0.00    -0.458 OA
ENDBRANCH  11  14
ENDBRANCH   2  10
BRANCH   1  19
ATOM     19  C   UNL     1      -3.363   4.103   7.491  0.00  0.00    +0.032 C 
BRANCH  19  25
ATOM     20  C   UNL     1      -2.368   5.080   9.470  0.00  0.00    -0.077 C 
ATOM     21  C   UNL     1      -2.270   6.365  10.296  0.00  0.00    -0.019 C 
ATOM     22  C   UNL     1      -3.647   6.699  10.877  0.00  0.00    -0.004 C 
ATOM     23  C   UNL     1      -4.654   6.840   9.732  0.00  0.00    -0.019 C 
ATOM     24  C   UNL     1      -4.683   5.542   8.922  0.00  0.00    -0.077 C 
ATOM     25  N   UNL     1      -3.334   5.290   8.371  0.00  0.00    +0.389 N 
ATOM     26  H   UNL     1      -3.041   6.106   7.821  0.00  0.00    -0.080 HD
ENDBRANCH  19  25
BRANCH  19  30
ATOM     27  C   UNL     1      -6.009   4.867   4.226  0.00  0.00    -0.045 A 
ATOM     28  C   UNL     1      -5.182   5.871   4.695  0.00  0.00    +0.004 A 
ATOM     29  C   UNL     1      -4.329   5.625   5.755  0.00  0.00    +0.003 A 
ATOM     30  C   UNL     1      -4.296   4.373   6.339  0.00  0.00    -0.054 A 
ATOM     31  C   UNL     1      -5.120   3.368   5.867  0.00  0.00    +0.003 A 
ATOM     32  C   UNL     1      -5.976   3.615   4.810  0.00  0.00    +0.004 A 
BRANCH  27  34
ATOM     33  C   UNL     1      -6.130   5.557   1.847  0.00  0.00    +0.012 C 
ATOM     34  C   UNL     1      -6.942   5.137   3.074  0.00  0.00    +0.013 C 
ATOM     35  C   UNL     1      -7.910   6.259   3.454  0.00  0.00    +0.012 C 
ENDBRANCH  27  34
ENDBRANCH  19  30
ENDBRANCH   1  19
TORSDOF 6
