REMARK  Name = ZINC06909543
REMARK  3 active torsions:
REMARK  status: ('A' for Active; 'I' for Inactive)
REMARK    1  A    between atoms: C_11  and  C_13
REMARK    2  A    between atoms: C_14  and  C_15
REMARK    3  A    between atoms: C_18  and  N_21
REMARK                            x       y       z     vdW  Elec       q    Type
REMARK                         _______ _______ _______ _____ _____    ______ ____
ROOT
ATOM      1  C   UNL     1       4.971  -2.553  -0.074  0.00  0.00    +0.047 C 
ATOM      2  C   UNL     1       6.093  -1.802  -0.064  0.00  0.00    +0.011 C 
ENDROOT
BRANCH   1  13
ATOM      3  C   UNL     1      -0.017   1.374   0.012  0.00  0.00    +0.001 A 
ATOM      4  C   UNL     1       1.169   2.097   0.021  0.00  0.00    +0.002 A 
ATOM      5  C   UNL     1       2.379   1.463   0.006  0.00  0.00    +0.028 A 
ATOM      6  C   UNL     1       2.432   0.065  -0.020  0.00  0.00    +0.078 A 
ATOM      7  C   UNL     1       1.225  -0.672  -0.029  0.00  0.00    +0.065 A 
ATOM      8  C   UNL     1       0.002  -0.004  -0.013  0.00  0.00    +0.015 A 
ATOM      9  C   UNL     1       1.305  -2.140  -0.056  0.00  0.00    +0.259 A 
ATOM     10  O   UNL     1       0.301  -2.827  -0.065  0.00  0.00    -0.267 OA
ATOM     11  N   UNL     1       2.538  -2.698  -0.069  0.00  0.00    -0.307 N 
ATOM     12  H   UNL     1       2.630  -3.664  -0.087  0.00  0.00    +0.170 HD
ATOM     13  C   UNL     1       3.659  -1.907  -0.059  0.00  0.00    +0.134 A 
ATOM     14  N   UNL     1       3.606  -0.594  -0.035  0.00  0.00    -0.230 NA
ENDBRANCH   1  13
BRANCH   2  15
ATOM     15  C   UNL     1       7.412  -2.452  -0.080  0.00  0.00    -0.025 A 
ATOM     16  C   UNL     1       7.506  -3.848  -0.111  0.00  0.00    +0.010 A 
ATOM     17  C   UNL     1       8.743  -4.452  -0.126  0.00  0.00    +0.024 A 
ATOM     18  C   UNL     1       9.898  -3.676  -0.110  0.00  0.00    +0.030 A 
ATOM     19  C   UNL     1       9.809  -2.287  -0.079  0.00  0.00    +0.024 A 
ATOM     20  C   UNL     1       8.576  -1.675  -0.070  0.00  0.00    +0.010 A 
BRANCH  18  21
ATOM     21  N   UNL     1      11.148  -4.291  -0.125  0.00  0.00    -0.330 N 
ATOM     22  C   UNL     1      12.375  -3.490  -0.231  0.00  0.00    +0.105 C 
ATOM     23  C   UNL     1      13.309  -3.865   0.924  0.00  0.00    +0.019 C 
ATOM     24  C   UNL     1      13.543  -5.378   0.915  0.00  0.00    +0.003 C 
ATOM     25  C   UNL     1      12.210  -6.102   1.117  0.00  0.00    +0.019 C 
ATOM     26  C   UNL     1      11.264  -5.752  -0.029  0.00  0.00    +0.105 C 
ENDBRANCH  18  21
ENDBRANCH   2  15
TORSDOF 3
