REMARK  Name = ZINC65277125
REMARK  7 active torsions:
REMARK  status: ('A' for Active; 'I' for Inactive)
REMARK    1  A    between atoms: C_1  and  C_2
REMARK    2  A    between atoms: C_4  and  C_20
REMARK    3  A    between atoms: C_7  and  N_8
REMARK    4  A    between atoms: N_8  and  C_9
REMARK    5  A    between atoms: C_9  and  C_10
REMARK    6  A    between atoms: C_12  and  C_15
REMARK    7  A    between atoms: N_22  and  C_23
REMARK                            x       y       z     vdW  Elec       q    Type
REMARK                         _______ _______ _______ _____ _____    ______ ____
ROOT
ATOM      1  C   UNL     1      -0.018   1.503   0.010  0.00  0.00    +0.045 C 
ATOM      2  C   UNL     1       0.002  -0.004   0.002  0.00  0.00    -0.029 A 
ATOM      3  C   UNL     1       0.006  -0.685  -1.194  0.00  0.00    +0.018 A 
ATOM      4  C   UNL     1       0.025  -2.083  -1.201  0.00  0.00    +0.037 A 
ATOM      5  C   UNL     1       0.041  -2.784   0.008  0.00  0.00    +0.015 A 
ATOM      6  C   UNL     1       0.037  -2.098   1.201  0.00  0.00    +0.024 A 
ATOM      7  C   UNL     1       0.023  -0.706   1.204  0.00  0.00    +0.030 A 
ENDROOT
BRANCH   4   8
ATOM      8  C   UNL     1       0.029  -2.815  -2.481  0.00  0.00    +0.244 C 
ATOM      9  O   UNL     1       0.015  -2.204  -3.532  0.00  0.00    -0.270 OA
ATOM     10  N   UNL     1       0.047  -4.163  -2.486  0.00  0.00    -0.308 N 
ATOM     11  H   UNL     1       0.059  -4.651  -1.648  0.00  0.00    +0.149 HD
BRANCH  10  12
ATOM     12  C   UNL     1       0.051  -4.891  -3.758  0.00  0.00    +0.073 C 
ATOM     13  C   UNL     1      -1.397  -5.126  -4.236  0.00  0.00    +0.022 C 
ATOM     14  C   UNL     1      -1.361  -6.537  -4.875  0.00  0.00    +0.002 C 
ATOM     15  C   UNL     1      -0.404  -7.313  -3.937  0.00  0.00    +0.002 C 
ATOM     16  C   UNL     1       0.682  -6.281  -3.567  0.00  0.00    +0.022 C 
ENDBRANCH  10  12
ENDBRANCH   4   8
BRANCH   7  17
ATOM     17  N   UNL     1       0.025  -0.015   2.411  0.00  0.00    -0.335 N 
ATOM     18  H   UNL     1       0.012   0.955   2.414  0.00  0.00    +0.147 HD
BRANCH  17  19
ATOM     19  C   UNL     1       0.047  -0.752   3.677  0.00  0.00    +0.200 C 
BRANCH  19  20
ATOM     20  C   UNL     1       0.045   0.223   4.826  0.00  0.00    +0.245 A 
ATOM     21  N   UNL     1      -1.013   0.697   5.419  0.00  0.00    -0.190 NA
ATOM     22  C   UNL     1      -0.651   1.542   6.402  0.00  0.00    +0.209 A 
ATOM     23  N   UNL     1       0.660   1.607   6.436  0.00  0.00    -0.055 NA
ATOM     24  O   UNL     1       1.131   0.744   5.412  0.00  0.00    -0.336 OA
BRANCH  22  25
ATOM     25  C   UNL     1      -1.574   2.273   7.295  0.00  0.00    +0.060 A 
ATOM     26  C   UNL     1      -1.283   3.149   8.308  0.00  0.00    +0.019 A 
ATOM     27  C   UNL     1      -2.321   3.716   9.011  0.00  0.00    +0.008 A 
ATOM     28  C   UNL     1      -3.599   3.392   8.681  0.00  0.00    +0.046 A 
ATOM     29  S   UNL     1      -3.359   2.253   7.328  0.00  0.00    -0.093 S 
ENDBRANCH  22  25
ENDBRANCH  19  20
ENDBRANCH  17  19
ENDBRANCH   7  17
TORSDOF 6
