REMARK  Name = ZINC44784638
REMARK  5 active torsions:
REMARK  status: ('A' for Active; 'I' for Inactive)
REMARK    1  A    between atoms: C_1  and  C_2
REMARK    2  A    between atoms: C_7  and  C_21
REMARK    3  A    between atoms: C_10  and  C_12
REMARK    4  A    between atoms: C_12  and  C_17
REMARK    5  A    between atoms: N_18  and  O_19
REMARK                            x       y       z     vdW  Elec       q    Type
REMARK                         _______ _______ _______ _____ _____    ______ ____
ROOT
ATOM      1  C   UNL     1      -2.510   1.935   3.577  0.00  0.00    +0.105 C 
ATOM      2  C   UNL     1      -1.197   2.527   4.117  0.00  0.00    +0.024 C 
ATOM      3  C   UNL     1      -0.434   3.089   2.899  0.00  0.00    +0.001 C 
ATOM      4  C   UNL     1      -1.540   3.356   1.848  0.00  0.00    +0.001 C 
ATOM      5  C   UNL     1      -2.500   2.157   2.051  0.00  0.00    +0.024 C 
ENDROOT
BRANCH   1  13
ATOM      6  C   UNL     1      -3.706   1.034   7.245  0.00  0.00    +0.028 C 
ATOM      7  C   UNL     1      -4.598   1.883   6.336  0.00  0.00    +0.073 C 
ATOM      8  C   UNL     1      -5.554   2.720   7.192  0.00  0.00    +0.022 C 
ATOM      9  C   UNL     1      -4.747   3.725   8.017  0.00  0.00    +0.004 C 
ATOM     10  C   UNL     1      -3.989   4.666   7.077  0.00  0.00    +0.022 C 
ATOM     11  C   UNL     1      -3.015   3.852   6.221  0.00  0.00    +0.073 C 
ATOM     12  N   UNL     1      -3.763   2.787   5.533  0.00  0.00    -0.295 N 
ATOM     13  C   UNL     1      -3.688   2.644   4.194  0.00  0.00    +0.229 C 
ATOM     14  O   UNL     1      -4.568   3.086   3.487  0.00  0.00    -0.275 OA
ATOM     15  C   UNL     1      -2.353   4.765   5.187  0.00  0.00    +0.028 C 
ENDBRANCH   1  13
BRANCH   1  16
ATOM     16  C   UNL     1      -2.577   0.461   3.884  0.00  0.00    +0.147 C 
ATOM     17  N   UNL     1      -1.563  -0.135   4.418  0.00  0.00    -0.076 NA
ATOM     18  N   UNL     1      -3.720  -0.251   3.595  0.00  0.00    -0.343 N 
ATOM     19  H   UNL     1      -4.518   0.212   3.296  0.00  0.00    +0.144 HD
ATOM     20  H   UNL     1      -3.727  -1.217   3.690  0.00  0.00    +0.144 HD
BRANCH  17  21
ATOM     21  O   UNL     1      -1.626  -1.520   4.705  0.00  0.00    -0.408 OA
ATOM     22  H   UNL     1      -0.820  -1.876   5.103  0.00  0.00    +0.328 HD
ENDBRANCH  17  21
ENDBRANCH   1  16
TORSDOF 3
