REMARK  Name = ZINC67219018
REMARK  8 active torsions:
REMARK  status: ('A' for Active; 'I' for Inactive)
REMARK    1  A    between atoms: C_1  and  C_2
REMARK    2  A    between atoms: C_3  and  C_15
REMARK    3  A    between atoms: N_6  and  C_9
REMARK    4  A    between atoms: N_7  and  C_8
REMARK    5  A    between atoms: C_15  and  N_16
REMARK    6  A    between atoms: N_16  and  C_17
REMARK    7  A    between atoms: C_17  and  C_18
REMARK    8  A    between atoms: N_20  and  C_21
REMARK                            x       y       z     vdW  Elec       q    Type
REMARK                         _______ _______ _______ _____ _____    ______ ____
ROOT
ATOM      1  C   UNL     1      -2.099   0.172   0.623  0.00  0.00    -0.039 C 
ENDROOT
BRANCH   1   4
ATOM      2  C   UNL     1      -0.159   2.471  -0.185  0.00  0.00    +0.065 C 
ATOM      3  C   UNL     1       0.089   0.998  -0.382  0.00  0.00    +0.039 A 
ATOM      4  C   UNL     1      -0.752   0.003  -0.032  0.00  0.00    +0.022 A 
ATOM      5  C   UNL     1      -0.149  -1.226  -0.386  0.00  0.00    +0.273 A 
ATOM      6  O   UNL     1      -0.625  -2.335  -0.217  0.00  0.00    -0.266 OA
ATOM      7  N   UNL     1       1.047  -0.949  -0.944  0.00  0.00    -0.217 N 
ATOM      8  N   UNL     1       1.200   0.444  -0.950  0.00  0.00    -0.284 N 
ATOM      9  C   UNL     1       2.355   1.178  -1.473  0.00  0.00    +0.171 C 
BRANCH   7  10
ATOM     10  C   UNL     1       1.965  -1.883  -1.433  0.00  0.00    +0.067 A 
ATOM     11  C   UNL     1       3.301  -1.806  -1.062  0.00  0.00    +0.028 A 
ATOM     12  C   UNL     1       4.206  -2.730  -1.546  0.00  0.00    +0.002 A 
ATOM     13  C   UNL     1       3.783  -3.732  -2.401  0.00  0.00    +0.000 A 
ATOM     14  C   UNL     1       2.453  -3.811  -2.773  0.00  0.00    +0.002 A 
ATOM     15  C   UNL     1       1.543  -2.894  -2.287  0.00  0.00    +0.028 A 
ENDBRANCH   7  10
ENDBRANCH   1   4
BRANCH   1  16
ATOM     16  N   UNL     1      -3.147   0.174  -0.407  0.00  0.00    +0.388 N 
ATOM     17  H   UNL     1      -2.987   0.936  -1.049  0.00  0.00    -0.085 HD
ATOM     18  H   UNL     1      -3.125  -0.700  -0.910  0.00  0.00    -0.085 HD
BRANCH  16  19
ATOM     19  C   UNL     1      -4.460   0.339   0.231  0.00  0.00    +0.016 C 
BRANCH  19  20
ATOM     20  C   UNL     1      -5.535   0.341  -0.825  0.00  0.00    +0.200 C 
ATOM     21  O   UNL     1      -5.237   0.217  -1.994  0.00  0.00    -0.278 OA
ATOM     22  N   UNL     1      -6.828   0.480  -0.470  0.00  0.00    -0.287 N 
ATOM     23  H   UNL     1      -7.061   0.648   0.457  0.00  0.00    +0.155 HD
BRANCH  22  24
ATOM     24  C   UNL     1      -7.834   0.382  -1.438  0.00  0.00    +0.033 A 
ATOM     25  C   UNL     1      -8.942   1.217  -1.377  0.00  0.00    +0.025 A 
ATOM     26  C   UNL     1      -9.933   1.118  -2.334  0.00  0.00    +0.022 A 
ATOM     27  C   UNL     1      -9.823   0.188  -3.353  0.00  0.00    +0.041 A 
ATOM     28  C   UNL     1      -8.720  -0.645  -3.416  0.00  0.00    +0.022 A 
ATOM     29  C   UNL     1      -7.723  -0.547  -2.465  0.00  0.00    +0.025 A 
ATOM     30 CL   UNL     1     -11.071   0.066  -4.553  0.00  0.00    -0.084 Cl
ENDBRANCH  22  24
ENDBRANCH  19  20
ENDBRANCH  16  19
ENDBRANCH   1  16
TORSDOF 6
