REMARK  Name = ZINC33008708
REMARK  2 active torsions:
REMARK  status: ('A' for Active; 'I' for Inactive)
REMARK    1  A    between atoms: C_13  and  C_15
REMARK    2  A    between atoms: N_17  and  C_18
REMARK                            x       y       z     vdW  Elec       q    Type
REMARK                         _______ _______ _______ _____ _____    ______ ____
ROOT
ATOM      1  C   UNL     1       1.585  -4.996  -0.041  0.00  0.00    +0.002 A 
ATOM      2  C   UNL     1       0.262  -4.578  -0.025  0.00  0.00    +0.002 A 
ATOM      3  C   UNL     1      -0.047  -3.234  -0.015  0.00  0.00    +0.028 A 
ATOM      4  C   UNL     1       0.971  -2.292  -0.020  0.00  0.00    +0.077 A 
ATOM      5  C   UNL     1       2.312  -2.709  -0.035  0.00  0.00    +0.091 A 
ATOM      6  C   UNL     1       2.608  -4.075  -0.045  0.00  0.00    +0.030 A 
ATOM      7  N   UNL     1       3.083  -1.589  -0.036  0.00  0.00    -0.221 NA
ATOM      8  C   UNL     1       2.319  -0.541  -0.023  0.00  0.00    +0.182 A 
ATOM      9  N   UNL     1       0.985  -0.900  -0.012  0.00  0.00    -0.254 N 
ATOM     10  C   UNL     1       0.002  -0.004   0.002  0.00  0.00    +0.259 A 
ATOM     11  O   UNL     1      -1.108  -0.503   0.009  0.00  0.00    -0.267 OA
ATOM     12  C   UNL     1      -0.017   1.388   0.010  0.00  0.00    +0.091 A 
ATOM     13  C   UNL     1       1.114   2.167   0.003  0.00  0.00    +0.082 A 
ATOM     14  S   UNL     1       2.624   1.210  -0.016  0.00  0.00    -0.046 S 
ENDROOT
BRANCH  13  15
ATOM     15  C   UNL     1       1.086   3.650   0.011  0.00  0.00    +0.251 C 
ATOM     16  O   UNL     1       0.023   4.237   0.024  0.00  0.00    -0.270 OA
ATOM     17  N   UNL     1       2.240   4.346   0.004  0.00  0.00    -0.308 N 
ATOM     18  H   UNL     1       3.203   3.814  -0.008  0.00  0.00    +0.149 HD
BRANCH  17  19
ATOM     19  C   UNL     1       2.212   5.810   0.011  0.00  0.00    +0.073 C 
ATOM     20  C   UNL     1       2.027   6.314  -1.435  0.00  0.00    +0.022 C 
ATOM     21  C   UNL     1       1.494   7.721  -1.385  0.00  0.00    +0.002 C 
ATOM     22  C   UNL     1       2.613   8.777  -1.467  0.00  0.00    +0.000 C 
ATOM     23  C   UNL     1       3.844   8.409  -0.618  0.00  0.00    +0.000 C 
ATOM     24  C   UNL     1       3.469   7.840   0.724  0.00  0.00    +0.002 C 
ATOM     25  C   UNL     1       3.442   6.302   0.615  0.00  0.00    +0.022 C 
ENDBRANCH  17  19
ENDBRANCH  13  15
TORSDOF 2
