REMARK  Name = ZINC37866349
REMARK  7 active torsions:
REMARK  status: ('A' for Active; 'I' for Inactive)
REMARK    1  A    between atoms: C_1  and  C_2
REMARK    2  A    between atoms: C_9  and  C_16
REMARK    3  A    between atoms: C_11  and  O_12
REMARK    4  A    between atoms: C_16  and  O_17
REMARK    5  A    between atoms: O_17  and  C_18
REMARK    6  A    between atoms: C_18  and  C_20
REMARK    7  A    between atoms: C_20  and  C_21
REMARK                            x       y       z     vdW  Elec       q    Type
REMARK                         _______ _______ _______ _____ _____    ______ ____
ROOT
ATOM      1  C   UNL     1       5.144  -6.630  -4.717  0.00  0.00    +0.109 C 
ATOM      2  C   UNL     1       4.118  -6.612  -3.612  0.00  0.00    +0.214 C 
ATOM      3  O   UNL     1       4.387  -6.103  -2.539  0.00  0.00    -0.276 OA
ATOM      4  N   UNL     1       2.929  -7.149  -3.808  0.00  0.00    -0.286 N 
ATOM      5  C   UNL     1       1.960  -7.019  -2.861  0.00  0.00    +0.037 A 
ATOM      6  C   UNL     1       0.840  -7.869  -2.887  0.00  0.00    +0.024 A 
ATOM      7  C   UNL     1      -0.134  -7.750  -1.947  0.00  0.00    +0.014 A 
ATOM      8  C   UNL     1      -0.025  -6.773  -0.942  0.00  0.00    +0.024 A 
ATOM      9  C   UNL     1      -1.025  -6.634   0.043  0.00  0.00    +0.007 A 
ATOM     10  C   UNL     1      -0.869  -5.659   1.008  0.00  0.00    +0.095 A 
ATOM     11  C   UNL     1       0.253  -4.843   0.993  0.00  0.00    +0.285 A 
ATOM     12  O   UNL     1       1.199  -4.978   0.057  0.00  0.00    -0.425 OA
ATOM     13  C   UNL     1       1.097  -5.915  -0.909  0.00  0.00    +0.141 A 
ATOM     14  C   UNL     1       2.086  -6.048  -1.867  0.00  0.00    +0.070 A 
ATOM     15  H   UNL     1       2.746  -7.636  -4.627  0.00  0.00    +0.155 HD
ENDROOT
BRANCH  11  16
ATOM     16  O   UNL     1       0.393  -3.896   1.940  0.00  0.00    -0.480 OA
ATOM     17  H   UNL     1       1.202  -3.373   1.856  0.00  0.00    +0.295 HD
ENDBRANCH  11  16
BRANCH   9  18
ATOM     18  C   UNL     1      -2.237  -7.529   0.042  0.00  0.00    +0.268 C 
BRANCH  18  19
ATOM     19  O   UNL     1      -3.420  -6.730  -0.022  0.00  0.00    -0.460 OA
BRANCH  19  20
ATOM     20  C   UNL     1      -4.594  -7.380  -0.032  0.00  0.00    +0.309 C 
ATOM     21  O   UNL     1      -4.617  -8.587   0.013  0.00  0.00    -0.251 OA
BRANCH  20  22
ATOM     22  C   UNL     1      -5.884  -6.604  -0.098  0.00  0.00    +0.144 C 
BRANCH  22  23
ATOM     23  C   UNL     1      -7.066  -7.576  -0.095  0.00  0.00    +0.148 C 
ATOM     24  C   UNL     1      -8.351  -6.811  -0.274  0.00  0.00    +0.231 C 
ATOM     25  O   UNL     1      -8.840  -6.756  -1.383  0.00  0.00    -0.274 OA
ATOM     26  N   UNL     1      -8.976  -6.194   0.723  0.00  0.00    -0.284 N 
ATOM     27  C   UNL     1      -8.636  -6.242   2.072  0.00  0.00    +0.047 A 
ATOM     28  C   UNL     1      -9.159  -5.286   2.938  0.00  0.00    +0.024 A 
ATOM     29  C   UNL     1      -8.830  -5.306   4.278  0.00  0.00    +0.002 A 
ATOM     30  C   UNL     1      -7.976  -6.274   4.776  0.00  0.00    +0.001 A 
ATOM     31  C   UNL     1      -7.451  -7.231   3.928  0.00  0.00    +0.016 A 
ATOM     32  C   UNL     1      -7.782  -7.219   2.583  0.00  0.00    +0.030 A 
ATOM     33  S   UNL     1      -7.130  -8.456   1.496  0.00  0.00    -0.110 S 
ATOM     34  H   UNL     1      -9.748  -5.656   0.487  0.00  0.00    +0.155 HD
ENDBRANCH  22  23
ENDBRANCH  20  22
ENDBRANCH  19  20
ENDBRANCH  18  19
ENDBRANCH   9  18
TORSDOF 6
