REMARK  Name = ZINC01142553
REMARK  7 active torsions:
REMARK  status: ('A' for Active; 'I' for Inactive)
REMARK    1  A    between atoms: C_1  and  C_2
REMARK    2  A    between atoms: C_8  and  O_23
REMARK    3  A    between atoms: C_10  and  C_21
REMARK    4  A    between atoms: C_10  and  C_22
REMARK    5  A    between atoms: C_11  and  C_14
REMARK    6  A    between atoms: O_23  and  C_24
REMARK    7  A    between atoms: C_24  and  C_26
REMARK                            x       y       z     vdW  Elec       q    Type
REMARK                         _______ _______ _______ _____ _____    ______ ____
ROOT
ATOM      1  C   UNL     1      -2.549   3.868   0.048  0.00  0.00    +0.044 C 
ATOM      2  C   UNL     1      -1.234   3.132   0.030  0.00  0.00    -0.050 A 
ATOM      3  C   UNL     1      -1.217   1.749   0.017  0.00  0.00    +0.005 A 
ATOM      4  C   UNL     1      -0.013   1.076   0.008  0.00  0.00    +0.023 A 
ATOM      5  C   UNL     1       1.183   1.787   0.000  0.00  0.00    +0.034 A 
ATOM      6  C   UNL     1       1.165   3.173   0.005  0.00  0.00    +0.014 A 
ATOM      7  C   UNL     1      -0.049   3.841   0.021  0.00  0.00    +0.012 A 
ATOM      8  C   UNL     1       2.438   3.977  -0.009  0.00  0.00    +0.216 C 
ATOM      9  C   UNL     1       3.612   3.127   0.477  0.00  0.00    +0.029 C 
ATOM     10  C   UNL     1       3.633   1.812  -0.313  0.00  0.00    +0.110 C 
ATOM     11  N   UNL     1       2.393   1.085  -0.007  0.00  0.00    -0.336 N 
ATOM     12  C   UNL     1       4.922   3.884   0.247  0.00  0.00    +0.017 C 
ATOM     13  C   UNL     1       3.446   2.827   1.968  0.00  0.00    +0.017 C 
ATOM     14  H   UNL     1       2.413   0.135   0.186  0.00  0.00    +0.147 HD
ENDROOT
BRANCH  10  15
ATOM     15  C   UNL     1       3.705   2.104  -1.789  0.00  0.00    -0.027 A 
ATOM     16  C   UNL     1       2.559   2.450  -2.482  0.00  0.00    +0.006 A 
ATOM     17  C   UNL     1       2.625   2.723  -3.835  0.00  0.00    +0.015 A 
ATOM     18  C   UNL     1       3.836   2.639  -4.499  0.00  0.00    +0.018 A 
ATOM     19  C   UNL     1       4.981   2.287  -3.807  0.00  0.00    +0.015 A 
ATOM     20  C   UNL     1       4.915   2.020  -2.453  0.00  0.00    +0.006 A 
ATOM     21 BR   UNL     1       3.925   3.004  -6.352  0.00  0.00    -0.050 Br
ENDBRANCH  10  15
BRANCH   8  22
ATOM     22  O   UNL     1       2.288   5.129   0.862  0.00  0.00    -0.456 OA
BRANCH  22  23
ATOM     23  C   UNL     1       1.810   6.254   0.306  0.00  0.00    +0.305 C 
ATOM     24  O   UNL     1       1.527   6.275  -0.868  0.00  0.00    -0.251 OA
ATOM     25  C   UNL     1       1.627   7.490   1.148  0.00  0.00    +0.136 C 
ENDBRANCH  22  23
ENDBRANCH   8  22
TORSDOF 3
