REMARK  Name = ZINC36942223
REMARK  2 active torsions:
REMARK  status: ('A' for Active; 'I' for Inactive)
REMARK    1  A    between atoms: C_6  and  C_7
REMARK    2  A    between atoms: C_7  and  C_9
REMARK                            x       y       z     vdW  Elec       q    Type
REMARK                         _______ _______ _______ _____ _____    ______ ____
ROOT
ATOM      1  C   UNL     1      -0.005   1.384   0.128  0.00  0.00    +0.013 A 
ATOM      2  C   UNL     1       1.174   2.082   0.239  0.00  0.00    +0.024 A 
ATOM      3  C   UNL     1       2.389   1.402   0.354  0.00  0.00    +0.037 A 
ATOM      4  C   UNL     1       2.389   0.009   0.355  0.00  0.00    -0.017 A 
ATOM      5  C   UNL     1       1.219  -0.697   0.245  0.00  0.00    +0.017 A 
ATOM      6  C   UNL     1       0.003  -0.014   0.129  0.00  0.00    +0.023 A 
ATOM      7  C   UNL     1       3.835  -0.413   0.492  0.00  0.00    +0.133 C 
ATOM      8  C   UNL     1       4.593   0.895   0.563  0.00  0.00    +0.222 C 
ATOM      9  O   UNL     1       5.794   1.026   0.676  0.00  0.00    -0.275 OA
ATOM     10  N   UNL     1       3.687   1.883   0.477  0.00  0.00    -0.285 N 
ATOM     11  H   UNL     1       3.914   2.826   0.497  0.00  0.00    +0.155 HD
ENDROOT
BRANCH   6  12
ATOM     12  C   UNL     1      -1.262  -0.764   0.010  0.00  0.00    +0.195 C 
ATOM     13  O   UNL     1      -2.323  -0.171   0.010  0.00  0.00    -0.287 OA
BRANCH  12  14
ATOM     14  C   UNL     1      -1.239  -2.236  -0.110  0.00  0.00    +0.041 A 
ATOM     15  C   UNL     1      -1.579  -3.034   0.986  0.00  0.00    +0.014 A 
ATOM     16  C   UNL     1      -1.556  -4.407   0.868  0.00  0.00    +0.021 A 
ATOM     17  C   UNL     1      -1.197  -4.997  -0.334  0.00  0.00    +0.042 A 
ATOM     18  C   UNL     1      -0.859  -4.213  -1.424  0.00  0.00    +0.040 A 
ATOM     19  C   UNL     1      -0.883  -2.837  -1.321  0.00  0.00    +0.053 A 
ATOM     20 CL   UNL     1      -0.465  -1.854  -2.690  0.00  0.00    -0.083 Cl
ATOM     21 CL   UNL     1      -1.171  -6.727  -0.473  0.00  0.00    -0.083 Cl
ENDBRANCH  12  14
ENDBRANCH   6  12
TORSDOF 2
