REMARK  Name = ZINC09431542
REMARK  10 active torsions:
REMARK  status: ('A' for Active; 'I' for Inactive)
REMARK    1  A    between atoms: C_1  and  C_2
REMARK    2  A    between atoms: C_2  and  C_3
REMARK    3  A    between atoms: C_2  and  C_4
REMARK    4  A    between atoms: C_4  and  C_5
REMARK    5  A    between atoms: C_5  and  N_6
REMARK    6  A    between atoms: C_18  and  C_19
REMARK    7  A    between atoms: C_19  and  C_20
REMARK    8  A    between atoms: C_20  and  C_21
REMARK    9  A    between atoms: C_21  and  C_22
REMARK   10  A    between atoms: N_24  and  C_25
REMARK                            x       y       z     vdW  Elec       q    Type
REMARK                         _______ _______ _______ _____ _____    ______ ____
ROOT
ATOM      1  N   UNL     1      -3.480   3.425   0.025  0.00  0.00    -0.276 N 
ATOM      2  C   UNL     1      -2.244   3.972   0.024  0.00  0.00    +0.270 A 
ATOM      3  O   UNL     1      -2.110   5.183   0.025  0.00  0.00    -0.266 OA
ATOM      4  C   UNL     1      -1.119   3.138   0.006  0.00  0.00    +0.101 A 
ATOM      5  C   UNL     1      -1.230   1.746  -0.001  0.00  0.00    +0.071 A 
ATOM      6  C   UNL     1      -0.016   1.064  -0.014  0.00  0.00    +0.034 A 
ATOM      7  C   UNL     1       1.148   1.752  -0.031  0.00  0.00    +0.048 A 
ATOM      8  S   UNL     1       0.634   3.409  -0.021  0.00  0.00    -0.090 S 
ATOM      9  N   UNL     1      -2.535   1.230   0.012  0.00  0.00    -0.264 N 
ATOM     10  C   UNL     1      -3.621   2.050   0.024  0.00  0.00    +0.239 A 
ATOM     11  N   UNL     1      -4.683   1.275   0.034  0.00  0.00    -0.110 NA
ATOM     12  N   UNL     1      -4.322   0.041   0.028  0.00  0.00    -0.132 NA
ATOM     13  C   UNL     1      -3.019  -0.045   0.015  0.00  0.00    +0.139 A 
ENDROOT
BRANCH   1  14
ATOM     14  C   UNL     1      -4.665   4.286   0.039  0.00  0.00    +0.128 C 
BRANCH  14  15
ATOM     15  C   UNL     1      -5.064   4.583   1.486  0.00  0.00    +0.025 C 
BRANCH  15  17
ATOM     16  C   UNL     1      -7.489   4.725   0.901  0.00  0.00    +0.007 C 
ATOM     17  C   UNL     1      -6.302   5.482   1.500  0.00  0.00    -0.016 C 
ATOM     18  C   UNL     1      -6.626   5.881   2.941  0.00  0.00    +0.007 C 
ENDBRANCH  15  17
ENDBRANCH  14  15
ENDBRANCH   1  14
BRANCH  13  19
ATOM     19  C   UNL     1      -2.204  -1.313   0.004  0.00  0.00    +0.077 C 
BRANCH  19  20
ATOM     20  C   UNL     1      -1.914  -1.744   1.443  0.00  0.00    +0.017 C 
BRANCH  20  21
ATOM     21  C   UNL     1      -1.087  -3.031   1.432  0.00  0.00    +0.096 C 
BRANCH  21  22
ATOM     22  C   UNL     1      -0.800  -3.456   2.849  0.00  0.00    +0.217 C 
ATOM     23  O   UNL     1      -1.216  -2.795   3.777  0.00  0.00    -0.275 OA
ATOM     24  N   UNL     1      -0.081  -4.572   3.086  0.00  0.00    -0.285 N 
ATOM     25  H   UNL     1       0.195  -5.137   2.348  0.00  0.00    +0.155 HD
BRANCH  24  26
ATOM     26  C   UNL     1       0.268  -4.914   4.399  0.00  0.00    +0.034 A 
ATOM     27  C   UNL     1       1.487  -5.526   4.657  0.00  0.00    +0.026 A 
ATOM     28  C   UNL     1       1.831  -5.858   5.952  0.00  0.00    +0.040 A 
ATOM     29  C   UNL     1       0.957  -5.591   6.992  0.00  0.00    +0.124 A 
ATOM     30  C   UNL     1      -0.262  -4.986   6.736  0.00  0.00    +0.040 A 
ATOM     31  C   UNL     1      -0.608  -4.647   5.443  0.00  0.00    +0.026 A 
ATOM     32  F   UNL     1       1.294  -5.921   8.258  0.00  0.00    -0.205 F 
ENDBRANCH  24  26
ENDBRANCH  21  22
ENDBRANCH  20  21
ENDBRANCH  19  20
ENDBRANCH  13  19
TORSDOF 8
