REMARK  Name = ZINC20362797
REMARK  6 active torsions:
REMARK  status: ('A' for Active; 'I' for Inactive)
REMARK    1  A    between atoms: C_1  and  C_2
REMARK    2  A    between atoms: C_2  and  C_3
REMARK    3  A    between atoms: C_4  and  C_25
REMARK    4  A    between atoms: C_9  and  C_14
REMARK    5  A    between atoms: C_14  and  N_15
REMARK    6  A    between atoms: C_19  and  C_22
REMARK                            x       y       z     vdW  Elec       q    Type
REMARK                         _______ _______ _______ _____ _____    ______ ____
ROOT
ATOM      1  C   UNL     1      -0.030   1.807   2.395  0.00  0.00    +0.040 A 
ATOM      2  C   UNL     1      -0.718   1.572   1.248  0.00  0.00    -0.030 A 
ATOM      3  C   UNL     1      -2.163   1.809   1.247  0.00  0.00    +0.023 A 
ATOM      4  C   UNL     1      -2.930   1.579   0.099  0.00  0.00    +0.035 A 
ATOM      5  C   UNL     1      -4.277   1.802   0.127  0.00  0.00    +0.089 A 
ATOM      6  C   UNL     1      -4.894   2.253   1.294  0.00  0.00    +0.202 A 
ATOM      7  C   UNL     1      -4.150   2.480   2.440  0.00  0.00    +0.027 A 
ATOM      8  C   UNL     1      -2.781   2.258   2.429  0.00  0.00    +0.144 A 
ATOM      9  O   UNL     1      -2.038   2.473   3.536  0.00  0.00    -0.422 OA
ATOM     10  C   UNL     1      -0.713   2.262   3.542  0.00  0.00    +0.341 A 
ATOM     11  O   UNL     1      -0.084   2.469   4.564  0.00  0.00    -0.245 OA
ATOM     12  O   UNL     1      -6.234   2.470   1.307  0.00  0.00    -0.286 OA
ATOM     13 CL   UNL     1      -5.227   1.524  -1.299  0.00  0.00    -0.080 Cl
ATOM     14  C   UNL     1      -0.013   1.086   0.008  0.00  0.00    +0.045 C 
ENDROOT
BRANCH   1  16
ATOM     15  C   UNL     1       2.183   2.872   2.046  0.00  0.00    +0.009 C 
ATOM     16  C   UNL     1       1.460   1.583   2.442  0.00  0.00    +0.039 C 
ENDBRANCH   1  16
BRANCH   7  17
ATOM     17  C   UNL     1      -4.827   2.966   3.696  0.00  0.00    -0.035 C 
BRANCH  17  18
ATOM     18  N   UNL     1      -4.837   4.435   3.709  0.00  0.00    +0.383 N 
ATOM     19  C   UNL     1      -5.254   4.970   2.407  0.00  0.00    -0.078 C 
ATOM     20  C   UNL     1      -5.114   6.494   2.411  0.00  0.00    -0.018 C 
ATOM     21  C   UNL     1      -5.985   7.078   3.526  0.00  0.00    -0.001 C 
ATOM     22  C   UNL     1      -5.563   6.468   4.866  0.00  0.00    -0.031 C 
ATOM     23  C   UNL     1      -5.690   4.945   4.790  0.00  0.00    -0.075 C 
ATOM     24  C   UNL     1      -6.469   7.001   5.978  0.00  0.00    +0.005 C 
ATOM     25  H   UNL     1      -3.811   4.780   3.901  0.00  0.00    -0.081 HD
ENDBRANCH  17  18
ENDBRANCH   7  17
TORSDOF 3
