REMARK  Name = ZINC63161826
REMARK  5 active torsions:
REMARK  status: ('A' for Active; 'I' for Inactive)
REMARK    1  A    between atoms: C_3  and  C_6
REMARK    2  A    between atoms: C_6  and  C_7
REMARK    3  A    between atoms: C_6  and  N_12
REMARK    4  A    between atoms: N_15  and  C_16
REMARK    5  A    between atoms: C_18  and  C_24
REMARK                            x       y       z     vdW  Elec       q    Type
REMARK                         _______ _______ _______ _____ _____    ______ ____
ROOT
ATOM      1  N   UNL     1       4.725   0.882   0.928  0.00  0.00    -0.292 N 
ATOM      2  C   UNL     1       4.724   1.128   2.253  0.00  0.00    +0.304 C 
ATOM      3  O   UNL     1       3.928   1.917   2.724  0.00  0.00    -0.252 OA
ATOM      4  N   UNL     1       5.605   0.499   3.056  0.00  0.00    -0.265 N 
ATOM      5  H   UNL     1       5.309   0.200   0.562  0.00  0.00    +0.151 HD
ATOM      6  H   UNL     1       6.199  -0.175   2.691  0.00  0.00    +0.157 HD
ENDROOT
BRANCH   4   7
ATOM      7  C   UNL     1       5.663   0.819   4.420  0.00  0.00    +0.100 A 
ATOM      8  C   UNL     1       6.824   1.284   4.973  0.00  0.00    +0.042 A 
ATOM      9  C   UNL     1       6.855   1.598   6.340  0.00  0.00    +0.073 A 
ATOM     10  C   UNL     1       5.744   1.439   7.095  0.00  0.00    +0.098 A 
ATOM     11  N   UNL     1       4.589   0.976   6.548  0.00  0.00    -0.327 N 
ATOM     12  H   UNL     1       3.803   0.869   7.106  0.00  0.00    +0.168 HD
ATOM     13  C   UNL     1       4.521   0.671   5.238  0.00  0.00    +0.270 A 
ATOM     14  O   UNL     1       3.476   0.262   4.759  0.00  0.00    -0.266 OA
BRANCH   9  15
ATOM     15  C   UNL     1       8.125   2.111   6.966  0.00  0.00    +0.419 C 
ATOM     16  F   UNL     1       7.910   2.350   8.328  0.00  0.00    -0.166 F 
ATOM     17  F   UNL     1       9.138   1.157   6.815  0.00  0.00    -0.166 F 
ATOM     18  F   UNL     1       8.508   3.301   6.338  0.00  0.00    -0.166 F 
ENDBRANCH   9  15
ENDBRANCH   4   7
BRANCH   1  19
ATOM     19  C   UNL     1       3.844   1.645   0.041  0.00  0.00    +0.114 C 
BRANCH  19  22
ATOM     20  C   UNL     1       0.097   0.970   0.163  0.00  0.00    +0.008 A 
ATOM     21  C   UNL     1       1.261   1.713   0.109  0.00  0.00    +0.013 A 
ATOM     22  C   UNL     1       2.453   1.068   0.096  0.00  0.00    +0.010 A 
ATOM     23  S   UNL     1       1.947  -0.643   0.161  0.00  0.00    -0.100 S 
ATOM     24  C   UNL     1       0.182  -0.383   0.201  0.00  0.00    +0.045 A 
ENDBRANCH  19  22
BRANCH  19  25
ATOM     25  C   UNL     1       4.372   1.566  -1.393  0.00  0.00    +0.014 C 
ATOM     26  C   UNL     1       4.538   0.091  -1.815  0.00  0.00    +0.006 C 
ATOM     27  C   UNL     1       5.822   0.086  -2.681  0.00  0.00    +0.000 C 
ATOM     28  C   UNL     1       6.734   1.100  -1.946  0.00  0.00    +0.000 C 
ATOM     29  C   UNL     1       5.768   2.207  -1.477  0.00  0.00    +0.006 C 
ENDBRANCH  19  25
ENDBRANCH   1  19
TORSDOF 5
