REMARK  Name = ZINC06283660
REMARK  4 active torsions:
REMARK  status: ('A' for Active; 'I' for Inactive)
REMARK    1  A    between atoms: C_6  and  S_11
REMARK    2  A    between atoms: S_11  and  N_14
REMARK    3  A    between atoms: C_23  and  C_25
REMARK    4  A    between atoms: C_25  and  C_26
REMARK                            x       y       z     vdW  Elec       q    Type
REMARK                         _______ _______ _______ _____ _____    ______ ____
ROOT
ATOM      1  N   UNL     1       5.394   4.564  -1.536  0.00  0.00    -0.193 N 
ATOM      2  C   UNL     1       6.119   3.635  -2.300  0.00  0.00    +0.093 A 
ATOM      3  C   UNL     1       6.252   2.328  -1.860  0.00  0.00    +0.028 A 
ATOM      4  C   UNL     1       6.970   1.417  -2.613  0.00  0.00    +0.002 A 
ATOM      5  C   UNL     1       7.553   1.810  -3.804  0.00  0.00    +0.004 A 
ATOM      6  C   UNL     1       7.414   3.107  -4.251  0.00  0.00    +0.047 A 
ATOM      7  C   UNL     1       6.700   4.029  -3.501  0.00  0.00    +0.143 A 
ATOM      8  O   UNL     1       6.578   5.309  -3.945  0.00  0.00    -0.488 OA
ATOM      9  C   UNL     1       6.238   6.316  -2.990  0.00  0.00    +0.254 C 
ATOM     10  C   UNL     1       5.026   5.838  -2.178  0.00  0.00    +0.146 C 
ENDROOT
BRANCH   1  11
ATOM     11  S   UNL     1       4.974   4.242   0.033  0.00  0.00    +0.075 S 
ATOM     12  O   UNL     1       4.415   2.936   0.043  0.00  0.00    -0.150 OA
ATOM     13  O   UNL     1       4.264   5.379   0.505  0.00  0.00    -0.150 OA
BRANCH  11  19
ATOM     14  C   UNL     1      10.585   2.791   3.413  0.00  0.00    +0.001 A 
ATOM     15  C   UNL     1      10.007   1.616   2.936  0.00  0.00    +0.001 A 
ATOM     16  C   UNL     1       8.854   1.645   2.213  0.00  0.00    +0.008 A 
ATOM     17  C   UNL     1       8.232   2.877   1.946  0.00  0.00    -0.016 A 
ATOM     18  C   UNL     1       7.041   2.948   1.204  0.00  0.00    +0.037 A 
ATOM     19  C   UNL     1       6.467   4.158   0.965  0.00  0.00    +0.109 A 
ATOM     20  C   UNL     1       7.042   5.333   1.447  0.00  0.00    +0.029 A 
ATOM     21  C   UNL     1       8.195   5.303   2.170  0.00  0.00    +0.010 A 
ATOM     22  C   UNL     1       8.817   4.071   2.437  0.00  0.00    -0.018 A 
ATOM     23  C   UNL     1      10.008   4.001   3.180  0.00  0.00    +0.008 A 
ENDBRANCH  11  19
ENDBRANCH   1  11
BRANCH  10  24
ATOM     24  C   UNL     1       3.829   5.624  -3.107  0.00  0.00    +0.152 C 
BRANCH  24  25
ATOM     25  C   UNL     1       2.615   5.268  -2.289  0.00  0.00    +0.358 C 
ATOM     26  O   UNL     1       2.714   5.117  -1.094  0.00  0.00    -0.246 OA
ATOM     27  O   UNL     1       1.423   5.118  -2.888  0.00  0.00    -0.246 OA
ENDBRANCH  24  25
ENDBRANCH  10  24
TORSDOF 4
