REMARK  Name = ZINC13571702
REMARK  5 active torsions:
REMARK  status: ('A' for Active; 'I' for Inactive)
REMARK    1  A    between atoms: C_4  and  C_7
REMARK    2  A    between atoms: C_7  and  C_8
REMARK    3  A    between atoms: C_8  and  C_10
REMARK    4  A    between atoms: C_8  and  N_27
REMARK    5  A    between atoms: C_28  and  C_30
REMARK                            x       y       z     vdW  Elec       q    Type
REMARK                         _______ _______ _______ _____ _____    ______ ____
ROOT
ATOM      1  C   UNL     1       4.170  -0.964   1.401  0.00  0.00    +0.164 C 
ENDROOT
BRANCH   1   2
ATOM      2  C   UNL     1       5.351  -1.899   1.346  0.00  0.00    +0.236 C 
ATOM      3  O   UNL     1       6.398  -1.585   1.871  0.00  0.00    -0.274 OA
ATOM      4  N   UNL     1       5.243  -3.085   0.714  0.00  0.00    -0.300 N 
ATOM      5  C   UNL     1       4.022  -3.429  -0.027  0.00  0.00    +0.110 C 
ATOM      6  C   UNL     1       3.502  -4.779   0.480  0.00  0.00    +0.047 C 
ATOM      7  C   UNL     1       4.617  -5.821   0.379  0.00  0.00    +0.064 C 
ATOM      8  C   UNL     1       5.801  -5.399   1.250  0.00  0.00    +0.047 C 
ATOM      9  C   UNL     1       6.347  -4.054   0.747  0.00  0.00    +0.110 C 
ATOM     10  C   UNL     1       4.102  -7.161   0.833  0.00  0.00    +0.057 A 
ATOM     11  C   UNL     1       3.771  -8.162  -0.014  0.00  0.00    +0.039 A 
ATOM     12  N   UNL     1       3.357  -9.199   0.714  0.00  0.00    -0.349 N 
ATOM     13  C   UNL     1       3.416  -8.882   1.982  0.00  0.00    +0.171 A 
ATOM     14  N   UNL     1       3.877  -7.614   2.094  0.00  0.00    -0.348 N 
ATOM     15  H   UNL     1       4.020  -7.123   2.918  0.00  0.00    +0.166 HD
ATOM     16  C   UNL     1       3.879  -8.040  -1.514  0.00  0.00    +0.070 C 
ATOM     17  C   UNL     1       4.012  -6.550  -1.859  0.00  0.00    +0.088 C 
ATOM     18  N   UNL     1       5.053  -5.939  -1.022  0.00  0.00    -0.305 NA
ATOM     19  H   UNL     1       5.333  -5.042  -1.390  0.00  0.00    +0.123 HD
ATOM     20  H   UNL     1       3.060 -10.052   0.361  0.00  0.00    +0.166 HD
ENDBRANCH   1   2
BRANCH   1  21
ATOM     21  N   UNL     1       4.316  -0.061   2.546  0.00  0.00    -0.300 N 
ATOM     22  C   UNL     1       3.225   0.498   3.105  0.00  0.00    +0.245 C 
ATOM     23  O   UNL     1       2.120   0.253   2.661  0.00  0.00    -0.270 OA
ATOM     24  H   UNL     1       5.197   0.135   2.900  0.00  0.00    +0.150 HD
BRANCH  22  25
ATOM     25  C   UNL     1       3.371   1.409   4.260  0.00  0.00    +0.037 A 
ATOM     26  C   UNL     1       4.639   1.697   4.769  0.00  0.00    +0.014 A 
ATOM     27  C   UNL     1       4.769   2.548   5.846  0.00  0.00    +0.016 A 
ATOM     28  C   UNL     1       3.646   3.117   6.423  0.00  0.00    +0.018 A 
ATOM     29  C   UNL     1       2.386   2.835   5.923  0.00  0.00    +0.016 A 
ATOM     30  C   UNL     1       2.243   1.990   4.842  0.00  0.00    +0.014 A 
ATOM     31 BR   UNL     1       3.833   4.282   7.900  0.00  0.00    -0.050 Br
ENDBRANCH  22  25
ENDBRANCH   1  21
BRANCH   1  32
ATOM     32  C   UNL     1       4.108  -0.146   0.110  0.00  0.00    +0.067 C 
BRANCH  32  36
ATOM     33  C   UNL     1       0.552   2.221   0.093  0.00  0.00    +0.000 A 
ATOM     34  C   UNL     1       1.718   2.730   0.634  0.00  0.00    +0.000 A 
ATOM     35  C   UNL     1       2.869   1.964   0.639  0.00  0.00    +0.004 A 
ATOM     36  C   UNL     1       2.853   0.689   0.105  0.00  0.00    -0.045 A 
ATOM     37  C   UNL     1       1.687   0.180  -0.435  0.00  0.00    +0.004 A 
ATOM     38  C   UNL     1       0.536   0.946  -0.441  0.00  0.00    +0.000 A 
ENDBRANCH  32  36
ENDBRANCH   1  32
TORSDOF 5
