REMARK  Name = ZINC63830624
REMARK  5 active torsions:
REMARK  status: ('A' for Active; 'I' for Inactive)
REMARK    1  A    between atoms: C_10  and  C_11
REMARK    2  A    between atoms: C_11  and  N_12
REMARK    3  A    between atoms: C_18  and  C_20
REMARK    4  A    between atoms: C_20  and  C_21
REMARK    5  A    between atoms: C_21  and  C_22
REMARK                            x       y       z     vdW  Elec       q    Type
REMARK                         _______ _______ _______ _____ _____    ______ ____
ROOT
ATOM      1  N   UNL     1       5.270   0.612   1.317  0.00  0.00    -0.295 NA
ATOM      2  C   UNL     1       5.545  -0.529   2.200  0.00  0.00    +0.103 C 
ATOM      3  C   UNL     1       5.684  -0.032   3.643  0.00  0.00    +0.123 C 
ATOM      4  N   UNL     1       6.694   1.036   3.675  0.00  0.00    -0.299 N 
ATOM      5  C   UNL     1       6.561   2.148   2.721  0.00  0.00    +0.123 C 
ATOM      6  C   UNL     1       6.388   1.566   1.315  0.00  0.00    +0.103 C 
ATOM      7  C   UNL     1       7.715   0.997   4.553  0.00  0.00    +0.216 C 
ATOM      8  O   UNL     1       7.809   0.072   5.333  0.00  0.00    -0.276 OA
ENDROOT
BRANCH   1   9
ATOM      9  C   UNL     1       4.960   0.161  -0.046  0.00  0.00    +0.120 C 
BRANCH   9  19
ATOM     10  C   UNL     1      -0.016   1.357   0.009  0.00  0.00    +0.001 A 
ATOM     11  C   UNL     1       1.169   2.091   0.002  0.00  0.00    +0.001 A 
ATOM     12  C   UNL     1       2.378   1.468  -0.013  0.00  0.00    +0.009 A 
ATOM     13  C   UNL     1       2.438   0.064  -0.021  0.00  0.00    -0.013 A 
ATOM     14  C   UNL     1       1.233  -0.683  -0.013  0.00  0.00    -0.018 A 
ATOM     15  C   UNL     1       0.002  -0.004   0.002  0.00  0.00    +0.008 A 
ATOM     16  C   UNL     1       1.292  -2.087  -0.021  0.00  0.00    +0.008 A 
ATOM     17  C   UNL     1       2.502  -2.709  -0.036  0.00  0.00    +0.001 A 
ATOM     18  C   UNL     1       3.687  -1.976  -0.043  0.00  0.00    +0.005 A 
ATOM     19  C   UNL     1       3.668  -0.615  -0.037  0.00  0.00    -0.026 A 
ENDBRANCH   9  19
ENDBRANCH   1   9
BRANCH   7  20
ATOM     20  C   UNL     1       8.740   2.102   4.568  0.00  0.00    +0.100 C 
BRANCH  20  21
ATOM     21  C   UNL     1       9.782   1.817   5.652  0.00  0.00    +0.042 C 
BRANCH  21  22
ATOM     22  C   UNL     1      10.806   2.922   5.666  0.00  0.00    -0.041 C 
ATOM     23  C   UNL     1      10.812   4.015   6.463  0.00  0.00    -0.001 A 
ATOM     24  C   UNL     1       9.901   4.484   7.514  0.00  0.00    +0.010 A 
ATOM     25  C   UNL     1      10.177   5.645   8.151  0.00  0.00    +0.001 A 
ATOM     26  C   UNL     1      11.308   6.410   7.833  0.00  0.00    +0.002 A 
ATOM     27  C   UNL     1      12.191   6.044   6.880  0.00  0.00    +0.026 A 
ATOM     28  C   UNL     1      12.000   4.841   6.147  0.00  0.00    +0.043 A 
ATOM     29  N   UNL     1      12.700   4.280   5.191  0.00  0.00    -0.380 N 
ATOM     30  C   UNL     1      12.039   3.031   4.797  0.00  0.00    +0.144 C 
ATOM     31  H   UNL     1      13.521   4.631   4.811  0.00  0.00    +0.160 HD
ENDBRANCH  21  22
ENDBRANCH  20  21
ENDBRANCH   7  20
TORSDOF 5
