REMARK  Name = ZINC34943144
REMARK  12 active torsions:
REMARK  status: ('A' for Active; 'I' for Inactive)
REMARK    1  A    between atoms: C_1  and  C_2
REMARK    2  A    between atoms: C_5  and  C_8
REMARK    3  A    between atoms: C_8  and  N_9
REMARK    4  A    between atoms: C_19  and  C_34
REMARK    5  A    between atoms: C_20  and  N_33
REMARK    6  A    between atoms: C_22  and  C_28
REMARK    7  A    between atoms: C_23  and  C_24
REMARK    8  A    between atoms: C_24  and  O_26
REMARK    9  A    between atoms: O_26  and  C_27
REMARK   10  A    between atoms: C_28  and  C_29
REMARK   11  A    between atoms: C_29  and  O_31
REMARK   12  A    between atoms: O_31  and  C_32
REMARK                            x       y       z     vdW  Elec       q    Type
REMARK                         _______ _______ _______ _____ _____    ______ ____
ROOT
ATOM      1  N   UNL     1       1.437  -4.886  -0.129  0.00  0.00    -0.265 N 
ATOM      2  C   UNL     1       2.174  -5.214  -1.268  0.00  0.00    +0.041 A 
ATOM      3  C   UNL     1       1.823  -5.200  -2.617  0.00  0.00    +0.024 A 
ATOM      4  C   UNL     1       2.740  -5.576  -3.576  0.00  0.00    +0.002 A 
ATOM      5  C   UNL     1       4.014  -5.969  -3.209  0.00  0.00    +0.000 A 
ATOM      6  C   UNL     1       4.371  -5.985  -1.872  0.00  0.00    +0.007 A 
ATOM      7  C   UNL     1       3.458  -5.610  -0.912  0.00  0.00    -0.001 A 
ATOM      8  C   UNL     1       3.525  -5.517   0.592  0.00  0.00    +0.148 C 
ATOM      9  C   UNL     1       2.154  -5.030   0.999  0.00  0.00    +0.241 C 
ATOM     10  O   UNL     1       1.772  -4.813   2.130  0.00  0.00    -0.274 OA
ATOM     11  C   UNL     1       4.572  -4.524   1.009  0.00  0.00    +0.110 C 
ATOM     12  C   UNL     1       5.748  -4.946   1.536  0.00  0.00    +0.199 C 
ATOM     13  O   UNL     1       6.013  -6.256   1.701  0.00  0.00    -0.444 OA
ATOM     14  C   UNL     1       5.013  -7.151   1.700  0.00  0.00    +0.130 C 
ATOM     15  C   UNL     1       3.807  -6.864   1.189  0.00  0.00    +0.100 C 
ENDROOT
BRANCH  12  16
ATOM     16  N   UNL     1       6.689  -4.019   1.911  0.00  0.00    -0.328 N 
ATOM     17  H   UNL     1       6.509  -3.072   1.796  0.00  0.00    +0.145 HD
ATOM     18  H   UNL     1       7.533  -4.310   2.289  0.00  0.00    +0.145 HD
ENDBRANCH  12  16
BRANCH  15  19
ATOM     19  C   UNL     1       2.786  -7.846   1.214  0.00  0.00    +0.340 C 
ATOM     20  O   UNL     1       2.542  -8.495   0.214  0.00  0.00    -0.245 OA
BRANCH  19  21
ATOM     21  O   UNL     1       2.083  -8.061   2.345  0.00  0.00    -0.465 OA
ATOM     22  C   UNL     1       1.069  -9.066   2.298  0.00  0.00    +0.280 C 
ENDBRANCH  19  21
ENDBRANCH  15  19
BRANCH  11  23
ATOM     23  C   UNL     1       4.327  -3.123   0.847  0.00  0.00    +0.102 C 
ATOM     24  N   UNL     1       4.133  -2.010   0.720  0.00  0.00    -0.191 NA
ENDBRANCH  11  23
BRANCH   1  25
ATOM     25  C   UNL     1       0.045  -4.431  -0.160  0.00  0.00    +0.148 C 
BRANCH  25  30
ATOM     26  C   UNL     1      -0.092   1.328  -0.618  0.00  0.00    +0.044 C 
ATOM     27  C   UNL     1      -0.056  -0.173  -0.498  0.00  0.00    -0.050 A 
ATOM     28  C   UNL     1      -0.043  -0.957  -1.637  0.00  0.00    +0.003 A 
ATOM     29  C   UNL     1      -0.010  -2.335  -1.528  0.00  0.00    +0.005 A 
ATOM     30  C   UNL     1       0.010  -2.929  -0.280  0.00  0.00    -0.030 A 
ATOM     31  C   UNL     1      -0.002  -2.145   0.859  0.00  0.00    +0.005 A 
ATOM     32  C   UNL     1      -0.030  -0.767   0.750  0.00  0.00    +0.003 A 
ENDBRANCH  25  30
ENDBRANCH   1  25
BRANCH  14  33
ATOM     33  C   UNL     1       5.253  -8.517   2.290  0.00  0.00    +0.195 C 
BRANCH  33  34
ATOM     34  C   UNL     1       5.821  -9.428   1.233  0.00  0.00    +0.314 C 
ATOM     35  O   UNL     1       6.012  -9.011   0.115  0.00  0.00    -0.250 OA
BRANCH  34  36
ATOM     36  O   UNL     1       6.116 -10.703   1.533  0.00  0.00    -0.468 OA
ATOM     37  C   UNL     1       6.651 -11.510   0.482  0.00  0.00    +0.280 C 
ENDBRANCH  34  36
ENDBRANCH  33  34
ENDBRANCH  14  33
TORSDOF 9
