REMARK  Name = ZINC39979138
REMARK  3 active torsions:
REMARK  status: ('A' for Active; 'I' for Inactive)
REMARK    1  A    between atoms: C_3  and  C_6
REMARK    2  A    between atoms: C_12  and  C_15
REMARK    3  A    between atoms: C_18  and  C_21
REMARK                            x       y       z     vdW  Elec       q    Type
REMARK                         _______ _______ _______ _____ _____    ______ ____
ROOT
ATOM      1  C   UNL     1       3.568   0.618  -0.029  0.00  0.00    +0.217 A 
ATOM      2  N   UNL     1       4.365   1.625  -0.299  0.00  0.00    -0.123 NA
ATOM      3  N   UNL     1       5.592   1.245  -0.232  0.00  0.00    -0.120 NA
ATOM      4  C   UNL     1       5.643  -0.018   0.065  0.00  0.00    +0.211 A 
ATOM      5  N   UNL     1       4.367  -0.489   0.249  0.00  0.00    -0.218 N 
ATOM      6  N   UNL     1       4.186  -1.783   0.637  0.00  0.00    -0.265 N 
ATOM      7  C   UNL     1       5.328  -2.691   0.350  0.00  0.00    +0.182 C 
ATOM      8  S   UNL     1       6.681  -1.438   0.346  0.00  0.00    -0.058 S 
ATOM      9  H   UNL     1       3.918  -1.835   1.609  0.00  0.00    +0.168 HD
ENDROOT
BRANCH   1  12
ATOM     10  C   UNL     1      -0.016   1.344   0.009  0.00  0.00    +0.042 A 
ATOM     11  C   UNL     1       1.324   1.776  -0.001  0.00  0.00    +0.053 A 
ATOM     12  C   UNL     1       2.098   0.654  -0.015  0.00  0.00    +0.173 A 
ATOM     13  O   UNL     1       1.280  -0.418  -0.012  0.00  0.00    -0.460 OA
ATOM     14  C   UNL     1       0.002  -0.004   0.002  0.00  0.00    +0.196 A 
ENDBRANCH   1  12
BRANCH   7  15
ATOM     15  C   UNL     1       5.185  -3.361  -1.018  0.00  0.00    +0.185 C 
ATOM     16  C   UNL     1       6.261  -4.413  -1.216  0.00  0.00    +0.034 C 
ATOM     17  C   UNL     1       5.568  -5.559  -1.361  0.00  0.00    +0.091 C 
ATOM     18  N   UNL     1       4.233  -5.321  -1.276  0.00  0.00    -0.154 NA
ATOM     19  N   UNL     1       3.935  -4.135  -1.090  0.00  0.00    -0.177 NA
BRANCH  17  20
ATOM     20  C   UNL     1       6.177  -6.894  -1.583  0.00  0.00    +0.002 A 
ATOM     21  C   UNL     1       7.562  -7.028  -1.649  0.00  0.00    +0.011 A 
ATOM     22  C   UNL     1       8.124  -8.272  -1.856  0.00  0.00    +0.020 A 
ATOM     23  C   UNL     1       7.313  -9.385  -1.998  0.00  0.00    +0.041 A 
ATOM     24  C   UNL     1       5.936  -9.257  -1.934  0.00  0.00    +0.020 A 
ATOM     25  C   UNL     1       5.365  -8.019  -1.721  0.00  0.00    +0.011 A 
ATOM     26 CL   UNL     1       8.025 -10.946  -2.260  0.00  0.00    -0.084 Cl
ENDBRANCH  17  20
ENDBRANCH   7  15
TORSDOF 3
