REMARK  Name = ZINC09347758
REMARK  11 active torsions:
REMARK  status: ('A' for Active; 'I' for Inactive)
REMARK    1  A    between atoms: C_1  and  C_2
REMARK    2  A    between atoms: C_5  and  C_9
REMARK    3  A    between atoms: C_6  and  C_8
REMARK    4  A    between atoms: C_9  and  N_72
REMARK    5  A    between atoms: N_12  and  C_15
REMARK    6  A    between atoms: C_17  and  C_32
REMARK    7  A    between atoms: C_22  and  C_31
REMARK    8  A    between atoms: C_23  and  C_24
REMARK    9  A    between atoms: C_32  and  C_33
REMARK   10  A    between atoms: C_32  and  C_34
REMARK   11  A    between atoms: C_32  and  C_35
REMARK                            x       y       z     vdW  Elec       q    Type
REMARK                         _______ _______ _______ _____ _____    ______ ____
ROOT
ATOM      1  C   UNL     1       1.188   4.590   0.108  0.00  0.00    +0.127 A 
ATOM      2  C   UNL     1       2.521   4.239   0.064  0.00  0.00    +0.067 A 
ATOM      3  C   UNL     1       2.870   2.889   0.075  0.00  0.00    +0.052 A 
ATOM      4  N   UNL     1       1.937   1.962   0.126  0.00  0.00    -0.231 NA
ATOM      5  C   UNL     1       0.641   2.286   0.168  0.00  0.00    +0.166 A 
ATOM      6  N   UNL     1       0.245   3.598   0.160  0.00  0.00    -0.200 N 
ATOM      7  N   UNL     1      -1.153   3.627   0.211  0.00  0.00    -0.168 NA
ATOM      8  C   UNL     1      -1.609   2.399   0.243  0.00  0.00    +0.070 A 
ATOM      9  C   UNL     1      -0.526   1.513   0.225  0.00  0.00    +0.049 A 
ATOM     10  C   UNL     1      -3.063   2.005   0.295  0.00  0.00    +0.068 C 
ENDROOT
BRANCH   1  13
ATOM     11  C   UNL     1       1.530   8.256   0.110  0.00  0.00    -0.059 C 
ATOM     12  C   UNL     1       1.986   6.797   0.039  0.00  0.00    +0.088 C 
ATOM     13  N   UNL     1       0.811   5.916   0.098  0.00  0.00    -0.319 N 
ATOM     14  C   UNL     1      -0.108   6.194  -1.014  0.00  0.00    +0.088 C 
ATOM     15  C   UNL     1      -0.564   7.653  -0.943  0.00  0.00    -0.059 C 
ATOM     16  N   UNL     1       0.624   8.528  -1.026  0.00  0.00    +0.384 N 
ATOM     17  H   UNL     1       1.121   8.334  -1.903  0.00  0.00    -0.081 HD
BRANCH  16  18
ATOM     18  C   UNL     1       0.209   9.947  -1.012  0.00  0.00    -0.043 C 
BRANCH  18  23
ATOM     19  C   UNL     1      -2.132  11.248  -6.133  0.00  0.00    +0.044 C 
ATOM     20  C   UNL     1      -1.522  10.909  -4.798  0.00  0.00    -0.050 A 
ATOM     21  C   UNL     1      -2.329  10.768  -3.684  0.00  0.00    +0.003 A 
ATOM     22  C   UNL     1      -1.769  10.457  -2.459  0.00  0.00    +0.002 A 
ATOM     23  C   UNL     1      -0.402  10.286  -2.348  0.00  0.00    -0.061 A 
ATOM     24  C   UNL     1       0.406  10.432  -3.460  0.00  0.00    -0.049 A 
ATOM     25  C   UNL     1      -0.155  10.738  -4.686  0.00  0.00    +0.007 A 
ATOM     26  C   UNL     1       1.897  10.251  -3.337  0.00  0.00    +0.044 C 
ENDBRANCH  18  23
ENDBRANCH  16  18
ENDBRANCH   1  13
BRANCH   9  27
ATOM     27  C   UNL     1      -0.599   0.034   0.253  0.00  0.00    -0.012 A 
ATOM     28  C   UNL     1      -0.171  -0.709  -0.846  0.00  0.00    +0.010 A 
ATOM     29  C   UNL     1      -0.235  -2.087  -0.812  0.00  0.00    +0.020 A 
ATOM     30  C   UNL     1      -0.736  -2.731   0.307  0.00  0.00    +0.041 A 
ATOM     31  C   UNL     1      -1.168  -1.998   1.399  0.00  0.00    +0.020 A 
ATOM     32  C   UNL     1      -1.102  -0.620   1.378  0.00  0.00    +0.010 A 
ATOM     33 CL   UNL     1      -0.822  -4.465   0.340  0.00  0.00    -0.084 Cl
ENDBRANCH   9  27
BRANCH   3  34
ATOM     34  C   UNL     1       4.322   2.490   0.028  0.00  0.00    +0.005 C 
ATOM     35  C   UNL     1       4.964   2.739   1.395  0.00  0.00    +0.017 C 
ATOM     36  C   UNL     1       4.432   1.005  -0.323  0.00  0.00    +0.017 C 
ATOM     37  C   UNL     1       5.045   3.320  -1.034  0.00  0.00    +0.017 C 
ENDBRANCH   3  34
TORSDOF 5
