REMARK  Name = ZINC53931028
REMARK  9 active torsions:
REMARK  status: ('A' for Active; 'I' for Inactive)
REMARK    1  A    between atoms: C_1  and  C_2
REMARK    2  A    between atoms: C_2  and  C_3
REMARK    3  A    between atoms: C_3  and  C_4
REMARK    4  A    between atoms: C_10  and  C_13
REMARK    5  A    between atoms: C_13  and  N_14
REMARK    6  A    between atoms: C_18  and  O_21
REMARK    7  A    between atoms: O_21  and  C_22
REMARK    8  A    between atoms: C_22  and  C_23
REMARK    9  A    between atoms: C_23  and  C_24
REMARK                            x       y       z     vdW  Elec       q    Type
REMARK                         _______ _______ _______ _____ _____    ______ ____
ROOT
ATOM      1  C   UNL     1      -0.186  -4.507  -2.662  0.00  0.00    -0.068 C 
ENDROOT
BRANCH   1   7
ATOM      2  C   UNL     1       0.739  -2.027  -1.265  0.00  0.00    -0.010 C 
ATOM      3  C   UNL     1       1.582  -2.531  -0.092  0.00  0.00    +0.011 C 
ATOM      4  C   UNL     1       1.527  -4.061  -0.046  0.00  0.00    +0.075 C 
ATOM      5  C   UNL     1       1.952  -4.599  -1.394  0.00  0.00    +0.135 C 
ATOM      6  O   UNL     1       2.809  -5.444  -1.482  0.00  0.00    -0.297 OA
ATOM      7  C   UNL     1       1.274  -4.051  -2.631  0.00  0.00    +0.039 C 
ATOM      8  C   UNL     1       1.340  -2.520  -2.583  0.00  0.00    +0.012 C 
BRANCH   2   9
ATOM      9  C   UNL     1       0.718  -0.497  -1.257  0.00  0.00    +0.003 C 
BRANCH   9  11
ATOM     10  C   UNL     1      -0.019   1.526   0.010  0.00  0.00    +0.004 C 
ATOM     11  C   UNL     1       0.002  -0.004   0.002  0.00  0.00    -0.003 C 
ENDBRANCH   9  11
ENDBRANCH   2   9
ENDBRANCH   1   7
BRANCH   1  12
ATOM     12  N   UNL     1      -0.239  -5.968  -2.807  0.00  0.00    +0.382 N 
ATOM     13  C   UNL     1       0.324  -6.350  -4.108  0.00  0.00    -0.079 C 
ATOM     14  C   UNL     1       0.345  -7.875  -4.231  0.00  0.00    -0.016 C 
ATOM     15  C   UNL     1      -1.085  -8.411  -4.114  0.00  0.00    +0.028 C 
ATOM     16  C   UNL     1      -1.688  -7.944  -2.786  0.00  0.00    +0.102 C 
ATOM     17  C   UNL     1      -1.634  -6.417  -2.717  0.00  0.00    -0.047 C 
ATOM     18  H   UNL     1       0.300  -6.398  -2.071  0.00  0.00    -0.082 HD
BRANCH  16  19
ATOM     19  O   UNL     1      -3.046  -8.379  -2.700  0.00  0.00    -0.378 OA
BRANCH  19  20
ATOM     20  C   UNL     1      -3.208  -9.665  -2.098  0.00  0.00    +0.160 C 
BRANCH  20  21
ATOM     21  C   UNL     1      -4.694 -10.026  -2.058  0.00  0.00    +0.025 C 
ATOM     22  C   UNL     1      -4.867 -11.403  -1.413  0.00  0.00    +0.006 C 
ENDBRANCH  20  21
ENDBRANCH  19  20
ENDBRANCH  16  19
ENDBRANCH   1  12
TORSDOF 7
