REMARK  Name = ZINC20755152
REMARK  5 active torsions:
REMARK  status: ('A' for Active; 'I' for Inactive)
REMARK    1  A    between atoms: C_1  and  C_2
REMARK    2  A    between atoms: C_3  and  N_26
REMARK    3  A    between atoms: C_9  and  C_18
REMARK    4  A    between atoms: C_22  and  O_24
REMARK    5  A    between atoms: O_24  and  C_25
REMARK                            x       y       z     vdW  Elec       q    Type
REMARK                         _______ _______ _______ _____ _____    ______ ____
ROOT
ATOM      1  C   UNL     1      -0.799   7.648   2.236  0.00  0.00    +0.048 C 
ATOM      2  C   UNL     1      -1.532   6.430   1.737  0.00  0.00    +0.001 A 
ATOM      3  C   UNL     1      -2.908   6.449   1.659  0.00  0.00    +0.131 A 
ATOM      4  C   UNL     1      -3.594   5.339   1.203  0.00  0.00    +0.033 A 
ATOM      5  C   UNL     1      -2.893   4.211   0.819  0.00  0.00    +0.008 A 
ATOM      6  C   UNL     1      -1.516   4.185   0.890  0.00  0.00    -0.019 A 
ATOM      7  C   UNL     1      -0.810   5.296   1.361  0.00  0.00    +0.036 A 
ATOM      8  N   UNL     1       0.575   5.337   1.504  0.00  0.00    -0.336 N 
ATOM      9  C   UNL     1       1.347   4.152   1.038  0.00  0.00    +0.105 C 
ATOM     10  C   UNL     1       0.517   2.938   1.399  0.00  0.00    +0.029 C 
ATOM     11  C   UNL     1      -0.738   2.999   0.472  0.00  0.00    +0.049 C 
ATOM     12  C   UNL     1      -1.288   1.624   0.558  0.00  0.00    -0.023 C 
ATOM     13  C   UNL     1      -0.290   0.785   0.816  0.00  0.00    -0.030 C 
ATOM     14  C   UNL     1       1.022   1.562   0.953  0.00  0.00    +0.033 C 
ATOM     15  H   UNL     1       1.100   6.199   1.941  0.00  0.00    +0.147 HD
ENDROOT
BRANCH   9  16
ATOM     16  C   UNL     1       2.684   4.084   1.730  0.00  0.00    -0.024 A 
ATOM     17  C   UNL     1       2.795   4.459   3.056  0.00  0.00    +0.006 A 
ATOM     18  C   UNL     1       4.019   4.392   3.696  0.00  0.00    +0.004 A 
ATOM     19  C   UNL     1       5.137   3.961   3.008  0.00  0.00    +0.045 A 
ATOM     20  C   UNL     1       5.029   3.590   1.675  0.00  0.00    +0.120 A 
ATOM     21  C   UNL     1       3.799   3.652   1.038  0.00  0.00    +0.051 A 
BRANCH  20  22
ATOM     22  O   UNL     1       6.128   3.166   0.996  0.00  0.00    -0.495 OA
ATOM     23  C   UNL     1       7.361   3.127   1.717  0.00  0.00    +0.277 C 
ENDBRANCH  20  22
ENDBRANCH   9  16
BRANCH   3  24
ATOM     24  N   UNL     1      -3.652   7.662   2.064  0.00  0.00    +0.057 N 
ATOM     25  O   UNL     1      -4.869   7.643   2.109  0.00  0.00    -0.126 OA
ATOM     26  O   UNL     1      -3.048   8.680   2.352  0.00  0.00    -0.126 OA
ENDBRANCH   3  24
TORSDOF 3
