REMARK  Name = ZINC38548053
REMARK  9 active torsions:
REMARK  status: ('A' for Active; 'I' for Inactive)
REMARK    1  A    between atoms: C_1  and  C_2
REMARK    2  A    between atoms: C_4  and  C_36
REMARK    3  A    between atoms: N_8  and  C_9
REMARK    4  A    between atoms: C_9  and  C_11
REMARK    5  A    between atoms: C_9  and  C_19
REMARK    6  A    between atoms: C_14  and  O_17
REMARK    7  A    between atoms: O_17  and  C_18
REMARK    8  A    between atoms: C_23  and  N_24
REMARK    9  A    between atoms: C_25  and  C_27
REMARK                            x       y       z     vdW  Elec       q    Type
REMARK                         _______ _______ _______ _____ _____    ______ ____
ROOT
ATOM      1  C   UNL     1      -0.086  -1.819   3.591  0.00  0.00    +0.136 C 
ENDROOT
BRANCH   1   9
ATOM      2  C   UNL     1      -2.488  -6.061   4.574  0.00  0.00    +0.066 C 
ATOM      3  C   UNL     1      -1.762  -5.539   3.361  0.00  0.00    +0.044 A 
ATOM      4  C   UNL     1      -1.644  -6.323   2.223  0.00  0.00    +0.046 A 
ATOM      5  C   UNL     1      -0.970  -5.805   1.129  0.00  0.00    +0.044 A 
ATOM      6  N   UNL     1      -0.462  -4.585   1.202  0.00  0.00    -0.220 NA
ATOM      7  C   UNL     1      -0.592  -3.862   2.304  0.00  0.00    +0.216 A 
ATOM      8  N   UNL     1      -1.235  -4.326   3.366  0.00  0.00    -0.220 NA
ATOM      9  N   UNL     1      -0.048  -2.591   2.347  0.00  0.00    -0.303 N 
ATOM     10  C   UNL     1      -0.816  -6.621  -0.129  0.00  0.00    +0.066 C 
ATOM     11  H   UNL     1       0.359  -2.211   1.552  0.00  0.00    +0.150 HD
ENDBRANCH   1   9
BRANCH   1  12
ATOM     12  C   UNL     1      -1.449  -1.199   3.757  0.00  0.00    +0.009 A 
ATOM     13  C   UNL     1      -2.071  -1.199   5.006  0.00  0.00    -0.030 A 
ATOM     14  C   UNL     1      -3.300  -0.622   5.075  0.00  0.00    -0.005 A 
ATOM     15  S   UNL     1      -3.607  -0.072   3.418  0.00  0.00    -0.078 S 
ATOM     16  C   UNL     1      -2.074  -0.633   2.690  0.00  0.00    +0.078 A 
ATOM     17  C   UNL     1      -4.178  -0.489   6.277  0.00  0.00    +0.043 C 
ATOM     18  C   UNL     1      -3.648  -1.431   7.369  0.00  0.00    +0.005 C 
ATOM     19  C   UNL     1      -2.133  -1.240   7.489  0.00  0.00    +0.005 C 
ATOM     20  C   UNL     1      -1.434  -1.807   6.253  0.00  0.00    +0.036 C 
BRANCH  16  21
ATOM     21  N   UNL     1      -1.634  -0.520   1.370  0.00  0.00    -0.273 N 
ATOM     22  C   UNL     1      -2.353   0.189   0.478  0.00  0.00    +0.284 C 
ATOM     23  O   UNL     1      -3.336   0.807   0.842  0.00  0.00    -0.266 OA
ATOM     24  H   UNL     1      -0.811  -0.953   1.094  0.00  0.00    +0.156 HD
BRANCH  22  25
ATOM     25  C   UNL     1      -1.951   0.217  -0.932  0.00  0.00    +0.189 A 
ATOM     26  C   UNL     1      -2.526   0.970  -1.916  0.00  0.00    +0.054 A 
ATOM     27  C   UNL     1      -1.829   0.686  -3.101  0.00  0.00    +0.042 A 
ATOM     28  C   UNL     1      -0.871  -0.216  -2.792  0.00  0.00    +0.196 A 
ATOM     29  O   UNL     1      -0.944  -0.492  -1.483  0.00  0.00    -0.458 OA
ENDBRANCH  22  25
ENDBRANCH  16  21
ENDBRANCH   1  12
BRANCH   1  30
ATOM     30  C   UNL     1       0.957  -0.732   3.540  0.00  0.00    -0.023 A 
ATOM     31  C   UNL     1       1.238  -0.101   2.342  0.00  0.00    +0.009 A 
ATOM     32  C   UNL     1       2.194   0.896   2.293  0.00  0.00    +0.046 A 
ATOM     33  C   UNL     1       2.872   1.263   3.446  0.00  0.00    +0.120 A 
ATOM     34  C   UNL     1       2.588   0.628   4.647  0.00  0.00    +0.046 A 
ATOM     35  C   UNL     1       1.628  -0.364   4.692  0.00  0.00    +0.009 A 
BRANCH  33  36
ATOM     36  O   UNL     1       3.813   2.242   3.400  0.00  0.00    -0.495 OA
ATOM     37  C   UNL     1       4.471   2.568   4.626  0.00  0.00    +0.277 C 
ENDBRANCH  33  36
ENDBRANCH   1  30
TORSDOF 6
