REMARK  Name = ZINC36502056
REMARK  16 active torsions:
REMARK  status: ('A' for Active; 'I' for Inactive)
REMARK    1  A    between atoms: C_1  and  C_2
REMARK    2  A    between atoms: C_2  and  C_3
REMARK    3  A    between atoms: C_2  and  C_4
REMARK    4  A    between atoms: C_2  and  C_5
REMARK    5  A    between atoms: C_5  and  C_6
REMARK    6  A    between atoms: C_6  and  C_7
REMARK    7  A    between atoms: C_6  and  C_8
REMARK    8  A    between atoms: C_6  and  N_9
REMARK    9  A    between atoms: C_10  and  C_12
REMARK   10  A    between atoms: C_12  and  C_14
REMARK   11  A    between atoms: C_12  and  N_21
REMARK   12  A    between atoms: C_19  and  O_20
REMARK   13  A    between atoms: N_21  and  C_22
REMARK   14  A    between atoms: C_22  and  C_23
REMARK   15  A    between atoms: C_28  and  C_30
REMARK   16  A    between atoms: C_30  and  C_31
REMARK                            x       y       z     vdW  Elec       q    Type
REMARK                         _______ _______ _______ _____ _____    ______ ____
ROOT
ATOM      1  C   UNL     1       5.474  -0.522  -4.428  0.00  0.00    +0.196 C 
ENDROOT
BRANCH   1   2
ATOM      2  C   UNL     1       4.897   0.489  -5.385  0.00  0.00    +0.023 A 
ATOM      3  C   UNL     1       4.111   1.521  -4.910  0.00  0.00    +0.009 A 
ATOM      4  C   UNL     1       3.581   2.449  -5.787  0.00  0.00    +0.001 A 
ATOM      5  C   UNL     1       3.836   2.346  -7.142  0.00  0.00    +0.004 A 
ATOM      6  C   UNL     1       4.622   1.317  -7.622  0.00  0.00    +0.046 A 
ATOM      7  C   UNL     1       5.159   0.388  -6.743  0.00  0.00    +0.122 A 
BRANCH   7   8
ATOM      8  O   UNL     1       5.937  -0.623  -7.213  0.00  0.00    -0.506 OA
ATOM      9  H   UNL     1       5.455  -1.446  -7.378  0.00  0.00    +0.292 HD
ENDBRANCH   7   8
ENDBRANCH   1   2
BRANCH   1  11
ATOM     10  N   UNL     1       3.364  -1.233  -3.350  0.00  0.00    -0.308 N 
ATOM     11  C   UNL     1       4.572  -0.649  -3.227  0.00  0.00    +0.239 C 
ATOM     12  O   UNL     1       4.933  -0.225  -2.150  0.00  0.00    -0.273 OA
ATOM     13  H   UNL     1       3.106  -1.641  -4.192  0.00  0.00    +0.149 HD
BRANCH  10  14
ATOM     14  C   UNL     1       2.440  -1.252  -2.214  0.00  0.00    +0.030 C 
ATOM     15  C   UNL     1       2.247   0.173  -1.690  0.00  0.00    +0.031 C 
ATOM     16  C   UNL     1       3.017  -2.130  -1.102  0.00  0.00    +0.031 C 
BRANCH  14  17
ATOM     17  C   UNL     1       1.091  -1.818  -2.663  0.00  0.00    +0.031 C 
BRANCH  17  19
ATOM     18  C   UNL     1       1.447  -1.948  -5.132  0.00  0.00    +0.010 C 
ATOM     19  C   UNL     1       0.707  -1.211  -4.014  0.00  0.00    -0.036 C 
ATOM     20  C   UNL     1       1.093   0.269  -4.036  0.00  0.00    +0.010 C 
ATOM     21  C   UNL     1      -0.802  -1.348  -4.224  0.00  0.00    +0.010 C 
ENDBRANCH  17  19
ENDBRANCH  14  17
ENDBRANCH  10  14
ENDBRANCH   1  11
BRANCH   1  22
ATOM     22  N   UNL     1       6.803  -0.083  -3.996  0.00  0.00    -0.278 N 
ATOM     23  C   UNL     1       6.958   1.123  -3.415  0.00  0.00    +0.221 C 
ATOM     24  O   UNL     1       5.998   1.845  -3.249  0.00  0.00    -0.275 OA
BRANCH  22  25
ATOM     25  C   UNL     1       7.963  -0.954  -4.196  0.00  0.00    +0.183 C 
BRANCH  25  26
ATOM     26  C   UNL     1       8.600  -0.646  -5.527  0.00  0.00    +0.122 A 
ATOM     27  C   UNL     1       9.536   0.293  -5.753  0.00  0.00    +0.046 A 
ATOM     28  C   UNL     1       9.846   0.239  -7.131  0.00  0.00    +0.041 A 
ATOM     29  C   UNL     1       9.081  -0.730  -7.665  0.00  0.00    +0.195 A 
ATOM     30  O   UNL     1       8.332  -1.266  -6.688  0.00  0.00    -0.466 OA
ENDBRANCH  25  26
ENDBRANCH  22  25
BRANCH  23  31
ATOM     31  C   UNL     1       8.326   1.575  -2.971  0.00  0.00    +0.131 C 
BRANCH  31  32
ATOM     32  C   UNL     1       8.226   2.948  -2.357  0.00  0.00    -0.035 A 
ATOM     33  C   UNL     1       8.361   4.071  -3.152  0.00  0.00    +0.008 A 
ATOM     34  C   UNL     1       8.270   5.332  -2.594  0.00  0.00    +0.050 A 
ATOM     35  C   UNL     1       8.044   5.474  -1.234  0.00  0.00    +0.166 A 
ATOM     36  C   UNL     1       7.908   4.343  -0.433  0.00  0.00    +0.166 A 
ATOM     37  C   UNL     1       7.995   3.082  -1.000  0.00  0.00    +0.053 A 
ATOM     38  O   UNL     1       7.695   4.743   0.854  0.00  0.00    -0.453 OA
ATOM     39  C   UNL     1       8.107   6.122   0.902  0.00  0.00    +0.466 C 
ATOM     40  O   UNL     1       7.915   6.583  -0.449  0.00  0.00    -0.453 OA
ENDBRANCH  31  32
ENDBRANCH  23  31
ENDBRANCH   1  22
TORSDOF 11
