REMARK  Name = ZINC35106729
REMARK  12 active torsions:
REMARK  status: ('A' for Active; 'I' for Inactive)
REMARK    1  A    between atoms: C_1  and  C_2
REMARK    2  A    between atoms: C_2  and  C_3
REMARK    3  A    between atoms: C_3  and  C_4
REMARK    4  A    between atoms: C_4  and  N_5
REMARK    5  A    between atoms: N_5  and  C_6
REMARK    6  A    between atoms: C_6  and  C_7
REMARK    7  A    between atoms: C_7  and  C_9
REMARK    8  A    between atoms: C_10  and  C_22
REMARK    9  A    between atoms: N_12  and  C_15
REMARK   10  A    between atoms: C_13  and  O_14
REMARK   11  A    between atoms: C_22  and  C_23
REMARK   12  A    between atoms: C_24  and  C_26
REMARK                            x       y       z     vdW  Elec       q    Type
REMARK                         _______ _______ _______ _____ _____    ______ ____
ROOT
ATOM      1  C   UNL     1       3.660  -2.837  -2.013  0.00  0.00    +0.187 C 
ATOM      2  O   UNL     1       3.108  -3.846  -1.624  0.00  0.00    -0.290 OA
ENDROOT
BRANCH   1   3
ATOM      3  C   UNL     1       5.072  -2.732  -1.951  0.00  0.00    +0.103 A 
ATOM      4  C   UNL     1       5.971  -3.716  -1.468  0.00  0.00    +0.077 A 
ATOM      5  N   UNL     1       7.182  -3.247  -1.575  0.00  0.00    -0.168 NA
ATOM      6  N   UNL     1       7.132  -1.960  -2.120  0.00  0.00    -0.200 N 
ATOM      7  C   UNL     1       5.843  -1.643  -2.358  0.00  0.00    +0.227 A 
BRANCH   6   8
ATOM      8  C   UNL     1       8.238  -1.139  -2.382  0.00  0.00    +0.070 A 
ATOM      9  C   UNL     1       8.231  -0.293  -3.484  0.00  0.00    +0.028 A 
ATOM     10  C   UNL     1       9.321   0.515  -3.740  0.00  0.00    +0.003 A 
ATOM     11  C   UNL     1      10.420   0.482  -2.901  0.00  0.00    +0.020 A 
ATOM     12  C   UNL     1      10.431  -0.360  -1.803  0.00  0.00    +0.043 A 
ATOM     13  C   UNL     1       9.340  -1.167  -1.539  0.00  0.00    +0.048 A 
ATOM     14 CL   UNL     1      11.813  -0.398  -0.753  0.00  0.00    -0.083 Cl
ENDBRANCH   6   8
BRANCH   7  15
ATOM     15  O   UNL     1       5.384  -0.487  -2.888  0.00  0.00    -0.492 OA
ATOM     16  H   UNL     1       5.188   0.196  -2.232  0.00  0.00    +0.294 HD
ENDBRANCH   7  15
BRANCH   4  17
ATOM     17  C   UNL     1       5.593  -5.070  -0.926  0.00  0.00    +0.055 C 
ATOM     18  C   UNL     1       5.564  -6.088  -2.068  0.00  0.00    +0.010 C 
ENDBRANCH   4  17
ENDBRANCH   1   3
BRANCH   1  19
ATOM     19  C   UNL     1       2.843  -1.696  -2.563  0.00  0.00    +0.187 C 
BRANCH  19  20
ATOM     20  N   UNL     1       1.422  -2.048  -2.520  0.00  0.00    -0.290 N 
ATOM     21  C   UNL     1       0.814  -2.530  -3.622  0.00  0.00    +0.247 C 
ATOM     22  O   UNL     1      -0.382  -2.751  -3.610  0.00  0.00    -0.270 OA
BRANCH  21  23
ATOM     23  C   UNL     1       1.600  -2.791  -4.846  0.00  0.00    +0.037 A 
ATOM     24  C   UNL     1       2.798  -3.503  -4.771  0.00  0.00    +0.014 A 
ATOM     25  C   UNL     1       3.528  -3.743  -5.917  0.00  0.00    +0.016 A 
ATOM     26  C   UNL     1       3.074  -3.278  -7.140  0.00  0.00    +0.018 A 
ATOM     27  C   UNL     1       1.887  -2.571  -7.221  0.00  0.00    +0.016 A 
ATOM     28  C   UNL     1       1.145  -2.330  -6.083  0.00  0.00    +0.014 A 
ATOM     29 BR   UNL     1       4.081  -3.611  -8.706  0.00  0.00    -0.050 Br
ENDBRANCH  21  23
BRANCH  20  30
ATOM     30  C   UNL     1       0.661  -1.876  -1.280  0.00  0.00    +0.108 C 
BRANCH  30  31
ATOM     31  C   UNL     1       0.145  -0.439  -1.194  0.00  0.00    +0.019 C 
BRANCH  31  33
ATOM     32  C   UNL     1      -1.166   1.179   0.188  0.00  0.00    +0.004 C 
ATOM     33  C   UNL     1      -0.650  -0.259   0.102  0.00  0.00    -0.002 C 
ENDBRANCH  31  33
ENDBRANCH  30  31
ENDBRANCH  20  30
ENDBRANCH  19  20
ENDBRANCH   1  19
TORSDOF 10
