REMARK  Name = ZINC20876879
REMARK  12 active torsions:
REMARK  status: ('A' for Active; 'I' for Inactive)
REMARK    1  A    between atoms: C_1  and  N_2
REMARK    2  A    between atoms: C_3  and  S_7
REMARK    3  A    between atoms: S_7  and  C_8
REMARK    4  A    between atoms: C_8  and  C_9
REMARK    5  A    between atoms: C_9  and  N_10
REMARK    6  A    between atoms: N_10  and  C_11
REMARK    7  A    between atoms: C_11  and  C_12
REMARK    8  A    between atoms: C_14  and  O_31
REMARK    9  A    between atoms: C_15  and  O_19
REMARK   10  A    between atoms: O_19  and  C_20
REMARK   11  A    between atoms: C_20  and  C_21
REMARK   12  A    between atoms: O_31  and  C_32
REMARK                            x       y       z     vdW  Elec       q    Type
REMARK                         _______ _______ _______ _____ _____    ______ ____
ROOT
ATOM      1  C   UNL     1       7.666  -2.954  -1.998  0.00  0.00    -0.060 A 
ATOM      2  C   UNL     1       7.664  -1.575  -1.900  0.00  0.00    +0.051 A 
ATOM      3  C   UNL     1       6.472  -0.896  -1.704  0.00  0.00    +0.163 A 
ATOM      4  C   UNL     1       5.280  -1.605  -1.597  0.00  0.00    +0.176 A 
ATOM      5  C   UNL     1       5.288  -2.988  -1.696  0.00  0.00    +0.063 A 
ATOM      6  C   UNL     1       6.481  -3.659  -1.897  0.00  0.00    +0.021 A 
ATOM      7 BR   UNL     1       3.670  -3.956  -1.558  0.00  0.00    -0.046 Br
ENDROOT
BRANCH   3   8
ATOM      8  O   UNL     1       6.468   0.461  -1.612  0.00  0.00    -0.491 OA
ATOM      9  C   UNL     1       7.729   1.123  -1.731  0.00  0.00    +0.277 C 
ENDBRANCH   3   8
BRANCH   1  10
ATOM     10  C   UNL     1       8.962  -3.690  -2.216  0.00  0.00    -0.047 C 
BRANCH  10  11
ATOM     11  N   UNL     1       9.208  -3.832  -3.658  0.00  0.00    +0.382 N 
ATOM     12  H   UNL     1       9.260  -2.829  -4.107  0.00  0.00    -0.085 HD
ATOM     13  H   UNL     1       8.373  -4.392  -4.104  0.00  0.00    -0.085 HD
BRANCH  11  14
ATOM     14  C   UNL     1      10.467  -4.547  -3.909  0.00  0.00    -0.071 C 
BRANCH  14  15
ATOM     15  C   UNL     1      10.688  -4.675  -5.418  0.00  0.00    +0.058 C 
BRANCH  15  16
ATOM     16  S   UNL     1      12.239  -5.555  -5.727  0.00  0.00    -0.086 S 
BRANCH  16  19
ATOM     17  C   UNL     1      14.420  -6.781  -7.879  0.00  0.00    +0.177 C 
ATOM     18  N   UNL     1      13.193  -6.094  -8.291  0.00  0.00    -0.223 N 
ATOM     19  C   UNL     1      12.242  -5.559  -7.489  0.00  0.00    +0.209 A 
ATOM     20  N   UNL     1      11.323  -5.039  -8.274  0.00  0.00    -0.102 NA
ATOM     21  N   UNL     1      11.632  -5.216  -9.507  0.00  0.00    -0.022 NA
ATOM     22  N   UNL     1      12.749  -5.851  -9.603  0.00  0.00    -0.043 NA
ENDBRANCH  16  19
ENDBRANCH  15  16
ENDBRANCH  14  15
ENDBRANCH  11  14
ENDBRANCH  10  11
ENDBRANCH   1  10
BRANCH   4  23
ATOM     23  O   UNL     1       4.108  -0.943  -1.400  0.00  0.00    -0.483 OA
BRANCH  23  24
ATOM     24  C   UNL     1       3.709  -0.717  -0.047  0.00  0.00    +0.265 C 
BRANCH  24  25
ATOM     25  C   UNL     1       2.397   0.024  -0.026  0.00  0.00    -0.007 A 
ATOM     26  C   UNL     1       1.207  -0.680  -0.016  0.00  0.00    +0.011 A 
ATOM     27  C   UNL     1       0.002  -0.004   0.002  0.00  0.00    +0.050 A 
ATOM     28  C   UNL     1      -0.017   1.383   0.010  0.00  0.00    +0.162 A 
ATOM     29  C   UNL     1       1.179   2.090   0.002  0.00  0.00    +0.162 A 
ATOM     30  C   UNL     1       2.386   1.406  -0.017  0.00  0.00    +0.056 A 
ATOM     31  O   UNL     1       1.184   3.451   0.018  0.00  0.00    -0.485 OA
ATOM     32  C   UNL     1      -0.040   4.103  -0.340  0.00  0.00    +0.270 C 
ATOM     33  C   UNL     1      -1.189   3.413   0.408  0.00  0.00    +0.270 C 
ATOM     34  O   UNL     1      -1.212   2.035   0.019  0.00  0.00    -0.485 OA
ENDBRANCH  24  25
ENDBRANCH  23  24
ENDBRANCH   4  23
TORSDOF 10
