REMARK  Name = ZINC20877128
REMARK  10 active torsions:
REMARK  status: ('A' for Active; 'I' for Inactive)
REMARK    1  A    between atoms: C_1  and  O_2
REMARK    2  A    between atoms: O_2  and  C_3
REMARK    3  A    between atoms: C_5  and  C_25
REMARK    4  A    between atoms: C_8  and  O_9
REMARK    5  A    between atoms: O_9  and  C_10
REMARK    6  A    between atoms: C_10  and  C_11
REMARK    7  A    between atoms: C_11  and  C_13
REMARK    8  A    between atoms: C_11  and  O_23
REMARK    9  A    between atoms: C_25  and  N_26
REMARK   10  A    between atoms: N_26  and  C_27
REMARK                            x       y       z     vdW  Elec       q    Type
REMARK                         _______ _______ _______ _____ _____    ______ ____
ROOT
ATOM      1  C   UNL     1      -5.556  -3.093  -3.405  0.00  0.00    +0.163 A 
ATOM      2  C   UNL     1      -6.154  -3.322  -4.634  0.00  0.00    +0.051 A 
ATOM      3  C   UNL     1      -7.139  -2.469  -5.094  0.00  0.00    -0.060 A 
ATOM      4  C   UNL     1      -7.531  -1.385  -4.331  0.00  0.00    +0.021 A 
ATOM      5  C   UNL     1      -6.943  -1.153  -3.100  0.00  0.00    +0.063 A 
ATOM      6  C   UNL     1      -5.951  -2.003  -2.636  0.00  0.00    +0.176 A 
ATOM      7 BR   UNL     1      -7.488   0.325  -2.055  0.00  0.00    -0.046 Br
ENDROOT
BRANCH   1   9
ATOM      8  C   UNL     1      -4.234  -5.031  -3.793  0.00  0.00    +0.277 C 
ATOM      9  O   UNL     1      -4.588  -3.932  -2.951  0.00  0.00    -0.491 OA
ENDBRANCH   1   9
BRANCH   6  10
ATOM     10  O   UNL     1      -5.367  -1.774  -1.429  0.00  0.00    -0.484 OA
BRANCH  10  11
ATOM     11  C   UNL     1      -4.203  -0.946  -1.418  0.00  0.00    +0.265 C 
BRANCH  11  12
ATOM     12  C   UNL     1      -3.692  -0.803   0.018  0.00  0.00    +0.182 C 
BRANCH  12  13
ATOM     13  C   UNL     1      -2.397  -0.033   0.016  0.00  0.00    -0.012 A 
ATOM     14  C   UNL     1      -2.415   1.349   0.025  0.00  0.00    +0.010 A 
ATOM     15  C   UNL     1      -1.229   2.059   0.019  0.00  0.00    +0.050 A 
ATOM     16  C   UNL     1      -0.017   1.385   0.010  0.00  0.00    +0.162 A 
ATOM     17  C   UNL     1       0.002  -0.004   0.002  0.00  0.00    +0.162 A 
ATOM     18  C   UNL     1      -1.192  -0.710   0.004  0.00  0.00    +0.055 A 
ATOM     19  O   UNL     1       1.181  -0.685  -0.007  0.00  0.00    -0.485 OA
ATOM     20  C   UNL     1       2.347   0.053  -0.387  0.00  0.00    +0.270 C 
ATOM     21  C   UNL     1       2.334   1.392   0.364  0.00  0.00    +0.270 C 
ATOM     22  O   UNL     1       1.143   2.098   0.002  0.00  0.00    -0.485 OA
ENDBRANCH  12  13
BRANCH  12  23
ATOM     23  O   UNL     1      -4.661  -0.103   0.801  0.00  0.00    -0.384 OA
ATOM     24  H   UNL     1      -4.468   0.095   1.865  0.00  0.00    +0.210 HD
ENDBRANCH  12  23
ENDBRANCH  11  12
ENDBRANCH  10  11
ENDBRANCH   6  10
BRANCH   3  25
ATOM     25  C   UNL     1      -7.787  -2.721  -6.431  0.00  0.00    -0.046 C 
BRANCH  25  26
ATOM     26  N   UNL     1      -8.962  -3.584  -6.251  0.00  0.00    +0.384 N 
ATOM     27  H   UNL     1      -8.649  -4.542  -5.809  0.00  0.00    -0.085 HD
ATOM     28  H   UNL     1      -9.681  -3.090  -5.582  0.00  0.00    -0.085 HD
BRANCH  26  29
ATOM     29  C   UNL     1      -9.621  -3.852  -7.537  0.00  0.00    -0.071 C 
ATOM     30  C   UNL     1     -10.653  -2.746  -7.841  0.00  0.00    -0.016 C 
ATOM     31  C   UNL     1     -11.826  -3.498  -8.518  0.00  0.00    -0.002 C 
ATOM     32  C   UNL     1     -11.883  -4.827  -7.725  0.00  0.00    -0.002 C 
ATOM     33  C   UNL     1     -10.403  -5.175  -7.463  0.00  0.00    -0.016 C 
ENDBRANCH  26  29
ENDBRANCH  25  26
ENDBRANCH   3  25
TORSDOF 9
