REMARK  Name = ZINC04817425
REMARK  5 active torsions:
REMARK  status: ('A' for Active; 'I' for Inactive)
REMARK    1  A    between atoms: C_1  and  C_2
REMARK    2  A    between atoms: C_2  and  C_25
REMARK    3  A    between atoms: C_10  and  C_16
REMARK    4  A    between atoms: C_12  and  O_15
REMARK    5  A    between atoms: C_17  and  C_18
REMARK                            x       y       z     vdW  Elec       q    Type
REMARK                         _______ _______ _______ _____ _____    ______ ____
ROOT
ATOM      1  C   UNL     1      -0.019   1.526   0.010  0.00  0.00    +0.020 C 
ATOM      2  C   UNL     1       0.002  -0.004   0.002  0.00  0.00    +0.037 C 
ATOM      3  C   UNL     1      -1.403  -0.554   0.141  0.00  0.00    -0.016 A 
ATOM      4  C   UNL     1      -2.539  -0.333  -0.611  0.00  0.00    +0.006 A 
ATOM      5  C   UNL     1      -3.730  -0.947  -0.269  0.00  0.00    +0.000 A 
ATOM      6  C   UNL     1      -3.780  -1.783   0.831  0.00  0.00    +0.002 A 
ATOM      7  C   UNL     1      -2.647  -2.014   1.580  0.00  0.00    +0.023 A 
ATOM      8  C   UNL     1      -1.438  -1.406   1.237  0.00  0.00    +0.036 A 
ATOM      9  N   UNL     1      -0.182  -1.532   1.814  0.00  0.00    -0.301 N 
ATOM     10  C   UNL     1       0.738  -0.537   1.235  0.00  0.00    +0.159 C 
ATOM     11  N   UNL     1       1.976  -1.224   0.887  0.00  0.00    -0.224 NA
ATOM     12  C   UNL     1       2.269  -2.392   1.304  0.00  0.00    +0.186 C 
ATOM     13  C   UNL     1       1.428  -3.284   2.163  0.00  0.00    +0.114 C 
ATOM     14  C   UNL     1       0.278  -2.504   2.817  0.00  0.00    +0.117 C 
ATOM     15  C   UNL     1       0.659  -0.522  -1.279  0.00  0.00    +0.020 C 
ENDROOT
BRANCH  12  16
ATOM     16  O   UNL     1       3.470  -2.879   0.929  0.00  0.00    -0.496 OA
ATOM     17  H   UNL     1       3.984  -2.276   0.376  0.00  0.00    +0.293 HD
ENDBRANCH  12  16
BRANCH  10  18
ATOM     18  C   UNL     1       0.995   0.578   2.216  0.00  0.00    +0.024 C 
ATOM     19  C   UNL     1       0.495   0.510   3.442  0.00  0.00    +0.007 C 
BRANCH  19  20
ATOM     20  C   UNL     1       0.747   1.603   4.404  0.00  0.00    -0.025 A 
ATOM     21  C   UNL     1       1.507   2.710   4.024  0.00  0.00    +0.009 A 
ATOM     22  C   UNL     1       1.739   3.727   4.926  0.00  0.00    +0.020 A 
ATOM     23  C   UNL     1       1.220   3.651   6.208  0.00  0.00    +0.041 A 
ATOM     24  C   UNL     1       0.465   2.555   6.591  0.00  0.00    +0.020 A 
ATOM     25  C   UNL     1       0.221   1.535   5.695  0.00  0.00    +0.009 A 
ATOM     26 CL   UNL     1       1.516   4.934   7.339  0.00  0.00    -0.084 Cl
ENDBRANCH  19  20
ENDBRANCH  10  18
TORSDOF 3
