REMARK  Name = ZINC36246131
REMARK  13 active torsions:
REMARK  status: ('A' for Active; 'I' for Inactive)
REMARK    1  A    between atoms: C_1  and  C_2
REMARK    2  A    between atoms: C_2  and  O_3
REMARK    3  A    between atoms: O_3  and  C_4
REMARK    4  A    between atoms: C_4  and  C_5
REMARK    5  A    between atoms: C_5  and  C_7
REMARK    6  A    between atoms: C_5  and  O_38
REMARK    7  A    between atoms: C_7  and  N_8
REMARK    8  A    between atoms: N_8  and  C_9
REMARK    9  A    between atoms: N_8  and  C_31
REMARK   10  A    between atoms: C_9  and  C_10
REMARK   11  A    between atoms: C_11  and  C_25
REMARK   12  A    between atoms: C_14  and  N_15
REMARK   13  A    between atoms: C_31  and  C_32
REMARK                            x       y       z     vdW  Elec       q    Type
REMARK                         _______ _______ _______ _____ _____    ______ ____
ROOT
ATOM      1  C   UNL     1       3.497  -5.397  -5.720  0.00  0.00    +0.025 A 
ATOM      2  C   UNL     1       2.930  -5.445  -7.010  0.00  0.00    +0.117 A 
ATOM      3  N   UNL     1       3.878  -5.777  -7.856  0.00  0.00    -0.076 NA
ATOM      4  O   UNL     1       5.077  -5.950  -7.125  0.00  0.00    -0.339 OA
ATOM      5  C   UNL     1       4.814  -5.707  -5.830  0.00  0.00    +0.223 A 
ENDROOT
BRANCH   5   6
ATOM      6  N   UNL     1       5.725  -5.765  -4.790  0.00  0.00    -0.295 N 
ATOM      7  C   UNL     1       5.999  -7.027  -4.082  0.00  0.00    +0.113 C 
ATOM      8  C   UNL     1       7.458  -7.401  -4.338  0.00  0.00    +0.054 C 
ATOM      9  C   UNL     1       8.362  -6.217  -4.117  0.00  0.00    -0.041 A 
ATOM     10  C   UNL     1       9.709  -6.469  -3.888  0.00  0.00    +0.004 A 
ATOM     11  C   UNL     1      10.593  -5.429  -3.687  0.00  0.00    +0.000 A 
ATOM     12  C   UNL     1      10.138  -4.124  -3.716  0.00  0.00    +0.000 A 
ATOM     13  C   UNL     1       8.800  -3.871  -3.940  0.00  0.00    +0.005 A 
ATOM     14  C   UNL     1       7.908  -4.917  -4.136  0.00  0.00    -0.027 A 
ATOM     15  C   UNL     1       6.460  -4.574  -4.353  0.00  0.00    +0.143 C 
ENDBRANCH   5   6
BRANCH   2  16
ATOM     16  C   UNL     1       1.512  -5.169  -7.352  0.00  0.00    +0.004 A 
ATOM     17  C   UNL     1       0.490  -5.669  -6.549  0.00  0.00    +0.010 A 
ATOM     18  C   UNL     1      -0.827  -5.409  -6.871  0.00  0.00    +0.001 A 
ATOM     19  C   UNL     1      -1.132  -4.652  -7.988  0.00  0.00    +0.000 A 
ATOM     20  C   UNL     1      -0.121  -4.153  -8.789  0.00  0.00    +0.001 A 
ATOM     21  C   UNL     1       1.200  -4.403  -8.473  0.00  0.00    +0.010 A 
ENDBRANCH   2  16
BRANCH   1  22
ATOM     22  C   UNL     1       2.771  -5.056  -4.444  0.00  0.00    -0.035 C 
BRANCH  22  23
ATOM     23  N   UNL     1       2.969  -3.634  -4.134  0.00  0.00    +0.386 N 
ATOM     24  H   UNL     1       3.957  -3.433  -4.092  0.00  0.00    -0.081 HD
BRANCH  23  25
ATOM     25  C   UNL     1       2.346  -2.812  -5.180  0.00  0.00    -0.044 C 
BRANCH  25  26
ATOM     26  C   UNL     1       2.700  -1.341  -4.952  0.00  0.00    +0.124 C 
BRANCH  26  27
ATOM     27  O   UNL     1       2.053  -0.875  -3.765  0.00  0.00    -0.391 OA
ATOM     28  H   UNL     1       1.089  -0.936  -3.794  0.00  0.00    +0.210 HD
ENDBRANCH  26  27
BRANCH  26  29
ATOM     29  C   UNL     1       2.230  -0.512  -6.148  0.00  0.00    +0.189 C 
BRANCH  29  30
ATOM     30  O   UNL     1       2.662   0.841  -5.989  0.00  0.00    -0.378 OA
BRANCH  30  32
ATOM     31  C   UNL     1       2.786   3.120  -6.784  0.00  0.00    +0.034 C 
ATOM     32  C   UNL     1       2.273   1.705  -7.059  0.00  0.00    +0.156 C 
ENDBRANCH  30  32
ENDBRANCH  29  30
ENDBRANCH  26  29
ENDBRANCH  25  26
ENDBRANCH  23  25
BRANCH  23  33
ATOM     33  C   UNL     1       2.351  -3.325  -2.837  0.00  0.00    -0.046 C 
BRANCH  33  34
ATOM     34  C   UNL     1       3.037  -4.141  -1.739  0.00  0.00    +0.102 C 
ATOM     35  C   UNL     1       2.366  -3.854  -0.378  0.00  0.00    +0.032 C 
ATOM     36  C   UNL     1       3.582  -3.820   0.588  0.00  0.00    +0.030 C 
ATOM     37  C   UNL     1       4.670  -3.208  -0.331  0.00  0.00    +0.160 C 
ATOM     38  O   UNL     1       4.413  -3.757  -1.635  0.00  0.00    -0.378 OA
ENDBRANCH  33  34
ENDBRANCH  23  33
ENDBRANCH  22  23
ENDBRANCH   1  22
TORSDOF 12
