REMARK  Name = ZINC63814522
REMARK  13 active torsions:
REMARK  status: ('A' for Active; 'I' for Inactive)
REMARK    1  A    between atoms: C_1  and  C_2
REMARK    2  A    between atoms: C_4  and  C_15
REMARK    3  A    between atoms: C_5  and  C_14
REMARK    4  A    between atoms: N_6  and  C_7
REMARK    5  A    between atoms: C_7  and  C_8
REMARK    6  A    between atoms: C_15  and  C_17
REMARK    7  A    between atoms: C_17  and  O_18
REMARK    8  A    between atoms: O_18  and  C_19
REMARK    9  A    between atoms: C_19  and  C_21
REMARK   10  A    between atoms: C_21  and  C_23
REMARK   11  A    between atoms: C_21  and  N_33
REMARK   12  A    between atoms: C_23  and  C_24
REMARK   13  A    between atoms: C_34  and  C_36
REMARK                            x       y       z     vdW  Elec       q    Type
REMARK                         _______ _______ _______ _____ _____    ______ ____
ROOT
ATOM      1  C   UNL     1       0.047  -4.656  -4.864  0.00  0.00    +0.328 C 
ATOM      2  O   UNL     1       0.030  -3.647  -5.529  0.00  0.00    -0.249 OA
ENDROOT
BRANCH   1   3
ATOM      3  O   UNL     1       0.051  -4.578  -3.525  0.00  0.00    -0.455 OA
BRANCH   3   4
ATOM      4  C   UNL     1       0.035  -3.269  -2.951  0.00  0.00    +0.311 C 
BRANCH   4   5
ATOM      5  C   UNL     1       0.043  -3.379  -1.448  0.00  0.00    +0.202 C 
ATOM      6  O   UNL     1       0.060  -4.471  -0.920  0.00  0.00    -0.288 OA
BRANCH   5  10
ATOM      7  C   UNL     1      -0.018   1.503   0.010  0.00  0.00    +0.063 C 
ATOM      8  C   UNL     1       0.002  -0.004   0.002  0.00  0.00    +0.017 A 
ATOM      9  C   UNL     1       0.008  -0.777  -1.097  0.00  0.00    +0.034 A 
ATOM     10  C   UNL     1       0.030  -2.167  -0.625  0.00  0.00    +0.042 A 
ATOM     11  C   UNL     1       0.035  -2.098   0.755  0.00  0.00    +0.027 A 
ATOM     12  N   UNL     1       0.023  -0.801   1.110  0.00  0.00    -0.343 N 
ATOM     13  C   UNL     1       0.056  -3.273   1.700  0.00  0.00    +0.064 C 
BRANCH  12  14
ATOM     14  C   UNL     1       0.029  -0.312   2.491  0.00  0.00    +0.156 C 
BRANCH  14  15
ATOM     15  C   UNL     1      -1.390  -0.165   2.978  0.00  0.00    -0.028 A 
ATOM     16  C   UNL     1      -2.062   1.029   2.796  0.00  0.00    +0.005 A 
ATOM     17  C   UNL     1      -3.364   1.164   3.243  0.00  0.00    +0.000 A 
ATOM     18  C   UNL     1      -3.992   0.104   3.870  0.00  0.00    +0.000 A 
ATOM     19  C   UNL     1      -3.320  -1.090   4.051  0.00  0.00    +0.000 A 
ATOM     20  C   UNL     1      -2.020  -1.226   3.600  0.00  0.00    +0.005 A 
ENDBRANCH  14  15
ENDBRANCH  12  14
ENDBRANCH   5  10
ENDBRANCH   4   5
ENDBRANCH   3   4
ENDBRANCH   1   3
BRANCH   1  21
ATOM     21  C   UNL     1       0.063  -6.003  -5.541  0.00  0.00    +0.186 C 
BRANCH  21  22
ATOM     22  N   UNL     1      -0.417  -5.863  -6.918  0.00  0.00    -0.302 N 
ATOM     23  C   UNL     1       0.234  -5.058  -7.780  0.00  0.00    +0.211 C 
ATOM     24  O   UNL     1       1.218  -4.449  -7.417  0.00  0.00    -0.276 OA
ATOM     25  C   UNL     1      -0.260  -4.915  -9.197  0.00  0.00    +0.109 C 
ATOM     26  H   UNL     1      -1.204  -6.350  -7.209  0.00  0.00    +0.150 HD
ENDBRANCH  21  22
BRANCH  21  27
ATOM     27  C   UNL     1       1.491  -6.551  -5.552  0.00  0.00    +0.067 C 
BRANCH  27  28
ATOM     28  C   UNL     1       1.488  -7.948  -6.116  0.00  0.00    -0.039 C 
ATOM     29  C   UNL     1       1.731  -8.308  -7.397  0.00  0.00    -0.001 A 
ATOM     30  C   UNL     1       2.057  -7.536  -8.602  0.00  0.00    +0.010 A 
ATOM     31  C   UNL     1       2.249  -8.192  -9.769  0.00  0.00    +0.001 A 
ATOM     32  C   UNL     1       2.144  -9.587  -9.857  0.00  0.00    +0.002 A 
ATOM     33  C   UNL     1       1.848 -10.364  -8.794  0.00  0.00    +0.026 A 
ATOM     34  C   UNL     1       1.627  -9.780  -7.516  0.00  0.00    +0.043 A 
ATOM     35  N   UNL     1       1.331 -10.309  -6.354  0.00  0.00    -0.380 N 
ATOM     36  C   UNL     1       1.220  -9.232  -5.364  0.00  0.00    +0.144 C 
ATOM     37  H   UNL     1       1.209 -11.255  -6.177  0.00  0.00    +0.160 HD
ENDBRANCH  27  28
ENDBRANCH  21  27
ENDBRANCH   1  21
TORSDOF 10
