REMARK  Name = ZINC19837868
REMARK  11 active torsions:
REMARK  status: ('A' for Active; 'I' for Inactive)
REMARK    1  A    between atoms: C_1  and  N_2
REMARK    2  A    between atoms: C_5  and  N_8
REMARK    3  A    between atoms: N_8  and  C_9
REMARK    4  A    between atoms: N_8  and  C_14
REMARK    5  A    between atoms: C_9  and  C_10
REMARK    6  A    between atoms: C_10  and  C_11
REMARK    7  A    between atoms: C_11  and  O_12
REMARK    8  A    between atoms: O_12  and  C_13
REMARK    9  A    between atoms: C_14  and  C_15
REMARK   10  A    between atoms: C_18  and  C_23
REMARK   11  A    between atoms: N_25  and  C_26
REMARK                            x       y       z     vdW  Elec       q    Type
REMARK                         _______ _______ _______ _____ _____    ______ ____
ROOT
ATOM      1  C   UNL     1      -0.268  -5.955  -0.108  0.00  0.00    +0.033 A 
ATOM      2  C   UNL     1      -0.613  -6.693   0.977  0.00  0.00    +0.023 A 
ATOM      3  C   UNL     1      -0.691  -8.082   0.883  0.00  0.00    +0.020 A 
ATOM      4  C   UNL     1      -0.410  -8.693  -0.338  0.00  0.00    +0.101 A 
ATOM      5  C   UNL     1      -0.054  -7.878  -1.444  0.00  0.00    +0.261 A 
ATOM      6  O   UNL     1       0.196  -8.387  -2.522  0.00  0.00    -0.267 OA
ATOM      7  N   UNL     1       0.001  -6.540  -1.299  0.00  0.00    -0.324 N 
ATOM      8  H   UNL     1       0.242  -5.988  -2.059  0.00  0.00    +0.169 HD
ENDROOT
BRANCH   4   9
ATOM      9  C   UNL     1      -0.481 -10.155  -0.477  0.00  0.00    +0.250 C 
ATOM     10  O   UNL     1      -0.902 -10.834   0.440  0.00  0.00    -0.270 OA
ATOM     11  N   UNL     1      -0.080 -10.743  -1.622  0.00  0.00    -0.300 N 
ATOM     12  H   UNL     1       0.325 -10.211  -2.324  0.00  0.00    +0.150 HD
BRANCH  11  13
ATOM     13  C   UNL     1      -0.256 -12.186  -1.805  0.00  0.00    +0.135 C 
ATOM     14  C   UNL     1      -1.613 -12.472  -2.399  0.00  0.00    -0.015 A 
ATOM     15  C   UNL     1      -2.892 -12.223  -1.948  0.00  0.00    +0.006 A 
ATOM     16  C   UNL     1      -3.982 -12.600  -2.712  0.00  0.00    +0.000 A 
ATOM     17  C   UNL     1      -3.791 -13.229  -3.929  0.00  0.00    +0.001 A 
ATOM     18  C   UNL     1      -2.515 -13.483  -4.388  0.00  0.00    +0.009 A 
ATOM     19  C   UNL     1      -1.411 -13.105  -3.623  0.00  0.00    -0.012 A 
ATOM     20  C   UNL     1       0.045 -13.251  -3.868  0.00  0.00    -0.012 A 
ATOM     21  C   UNL     1       0.752 -12.710  -2.797  0.00  0.00    -0.015 A 
ATOM     22  C   UNL     1       2.131 -12.729  -2.795  0.00  0.00    +0.006 A 
ATOM     23  C   UNL     1       2.819 -13.285  -3.858  0.00  0.00    +0.000 A 
ATOM     24  C   UNL     1       2.125 -13.825  -4.927  0.00  0.00    +0.001 A 
ATOM     25  C   UNL     1       0.745 -13.811  -4.938  0.00  0.00    +0.009 A 
ENDBRANCH  11  13
ENDBRANCH   4   9
BRANCH   1  26
ATOM     26  C   UNL     1      -0.188  -4.455   0.013  0.00  0.00    +0.138 C 
BRANCH  26  27
ATOM     27  N   UNL     1       1.203  -4.022  -0.172  0.00  0.00    -0.294 NA
BRANCH  27  32
ATOM     28  C   UNL     1      -0.082   1.474  -0.116  0.00  0.00    -0.096 C 
ATOM     29  N   UNL     1      -0.049   0.006  -0.098  0.00  0.00    +0.378 N 
ATOM     30  C   UNL     1       0.518  -0.485  -1.359  0.00  0.00    -0.078 C 
ATOM     31  C   UNL     1       0.480  -2.015  -1.379  0.00  0.00    +0.000 C 
ATOM     32  C   UNL     1       1.299  -2.556  -0.204  0.00  0.00    +0.054 C 
ATOM     33  C   UNL     1       0.744  -1.978   1.101  0.00  0.00    +0.000 C 
ATOM     34  C   UNL     1       0.773  -0.450   1.030  0.00  0.00    -0.078 C 
ATOM     35  H   UNL     1      -0.988  -0.349   0.007  0.00  0.00    -0.082 HD
ENDBRANCH  27  32
BRANCH  27  36
ATOM     36  C   UNL     1       2.072  -4.583   0.871  0.00  0.00    +0.087 C 
BRANCH  36  37
ATOM     37  C   UNL     1       3.529  -4.523   0.408  0.00  0.00    +0.043 C 
BRANCH  37  38
ATOM     38  C   UNL     1       4.420  -5.221   1.437  0.00  0.00    +0.160 C 
BRANCH  38  39
ATOM     39  O   UNL     1       5.781  -5.165   1.004  0.00  0.00    -0.383 OA
ATOM     40  C   UNL     1       6.702  -5.792   1.899  0.00  0.00    +0.193 C 
ENDBRANCH  38  39
ENDBRANCH  37  38
ENDBRANCH  36  37
ENDBRANCH  27  36
ENDBRANCH  26  27
ENDBRANCH   1  26
TORSDOF 9
