REMARK  Name = ZINC09797430
REMARK  8 active torsions:
REMARK  status: ('A' for Active; 'I' for Inactive)
REMARK    1  A    between atoms: C_1  and  C_2
REMARK    2  A    between atoms: C_2  and  C_3
REMARK    3  A    between atoms: C_2  and  N_4
REMARK    4  A    between atoms: C_9  and  C_16
REMARK    5  A    between atoms: C_11  and  C_13
REMARK    6  A    between atoms: N_18  and  C_19
REMARK    7  A    between atoms: C_19  and  C_20
REMARK    8  A    between atoms: N_22  and  C_23
REMARK                            x       y       z     vdW  Elec       q    Type
REMARK                         _______ _______ _______ _____ _____    ______ ____
ROOT
ATOM      1  C   UNL     1      -5.490  -2.661  -0.921  0.00  0.00    +0.245 C 
ATOM      2  O   UNL     1      -5.933  -2.201   0.113  0.00  0.00    -0.270 OA
ATOM      3  N   UNL     1      -6.273  -3.424  -1.710  0.00  0.00    -0.303 N 
ATOM      4  H   UNL     1      -5.919  -3.791  -2.535  0.00  0.00    +0.150 HD
ENDROOT
BRANCH   1  10
ATOM      5  N   UNL     1      -1.352  -0.563   0.040  0.00  0.00    -0.244 N 
ATOM      6  C   UNL     1      -1.925  -1.353  -0.922  0.00  0.00    +0.159 A 
ATOM      7  C   UNL     1      -3.251  -1.588  -0.505  0.00  0.00    +0.051 A 
ATOM      8  C   UNL     1      -3.426  -0.913   0.722  0.00  0.00    +0.145 A 
ATOM      9  N   UNL     1      -2.308  -0.323   1.034  0.00  0.00    -0.177 NA
ATOM     10  C   UNL     1      -4.092  -2.384  -1.314  0.00  0.00    +0.051 A 
ATOM     11  C   UNL     1      -3.560  -2.900  -2.494  0.00  0.00    +0.037 A 
ATOM     12  C   UNL     1      -2.244  -2.618  -2.827  0.00  0.00    +0.047 A 
ATOM     13  N   UNL     1      -1.481  -1.874  -2.057  0.00  0.00    -0.232 NA
BRANCH   5  15
ATOM     14  C   UNL     1       0.011   1.467   0.051  0.00  0.00    +0.032 C 
ATOM     15  C   UNL     1       0.025  -0.063   0.033  0.00  0.00    +0.103 C 
ATOM     16  C   UNL     1       0.762  -0.580   1.270  0.00  0.00    +0.032 C 
ENDBRANCH   5  15
BRANCH  12  17
ATOM     17  C   UNL     1      -1.673  -3.179  -4.104  0.00  0.00    +0.038 C 
ATOM     18  C   UNL     1      -2.431  -4.328  -4.772  0.00  0.00    +0.010 C 
ATOM     19  C   UNL     1      -1.104  -4.598  -4.060  0.00  0.00    +0.010 C 
ENDBRANCH  12  17
ENDBRANCH   1  10
BRANCH   3  20
ATOM     20  C   UNL     1      -7.659  -3.698  -1.321  0.00  0.00    +0.200 C 
BRANCH  20  21
ATOM     21  C   UNL     1      -8.311  -4.567  -2.365  0.00  0.00    +0.234 C 
ATOM     22  O   UNL     1      -7.681  -4.922  -3.338  0.00  0.00    -0.274 OA
ATOM     23  N   UNL     1      -9.595  -4.949  -2.217  0.00  0.00    -0.283 N 
ATOM     24  H   UNL     1     -10.079  -4.721  -1.408  0.00  0.00    +0.155 HD
BRANCH  23  25
ATOM     25  C   UNL     1     -10.229  -5.677  -3.231  0.00  0.00    +0.047 A 
ATOM     26  C   UNL     1      -9.509  -6.595  -3.983  0.00  0.00    +0.024 A 
ATOM     27  C   UNL     1     -10.139  -7.312  -4.982  0.00  0.00    +0.002 A 
ATOM     28  C   UNL     1     -11.484  -7.115  -5.234  0.00  0.00    +0.001 A 
ATOM     29  C   UNL     1     -12.204  -6.201  -4.488  0.00  0.00    +0.017 A 
ATOM     30  C   UNL     1     -11.582  -5.485  -3.482  0.00  0.00    +0.039 A 
ATOM     31 BR   UNL     1     -12.569  -4.241  -2.456  0.00  0.00    -0.048 Br
ENDBRANCH  23  25
ENDBRANCH  20  21
ENDBRANCH   3  20
TORSDOF 6
