REMARK  Name = ZINC38994479
REMARK  3 active torsions:
REMARK  status: ('A' for Active; 'I' for Inactive)
REMARK    1  A    between atoms: C_1  and  C_2
REMARK    2  A    between atoms: C_11  and  C_14
REMARK    3  A    between atoms: C_14  and  N_16
REMARK                            x       y       z     vdW  Elec       q    Type
REMARK                         _______ _______ _______ _____ _____    ______ ____
ROOT
ATOM      1  C   UNL     1      -0.098  -6.328   0.892  0.00  0.00    +0.280 C 
ATOM      2  O   UNL     1       0.529  -6.710  -0.077  0.00  0.00    -0.270 OA
ENDROOT
BRANCH   1  13
ATOM      3  C   UNL     1      -0.018   1.503   0.010  0.00  0.00    +0.044 C 
ATOM      4  C   UNL     1       0.002  -0.004   0.002  0.00  0.00    -0.050 A 
ATOM      5  C   UNL     1       0.006  -0.689  -1.203  0.00  0.00    +0.007 A 
ATOM      6  C   UNL     1       0.027  -2.068  -1.230  0.00  0.00    +0.046 A 
ATOM      7  C   UNL     1       0.045  -2.788  -0.043  0.00  0.00    +0.132 A 
ATOM      8  C   UNL     1       0.035  -2.094   1.178  0.00  0.00    +0.059 A 
ATOM      9  C   UNL     1       0.023  -0.698   1.193  0.00  0.00    +0.018 A 
ATOM     10  C   UNL     1       0.040  -2.861   2.436  0.00  0.00    +0.171 C 
ATOM     11  O   UNL     1      -0.184  -2.334   3.505  0.00  0.00    -0.292 OA
ATOM     12  C   UNL     1       0.339  -4.345   2.324  0.00  0.00    +0.134 C 
ATOM     13  C   UNL     1      -0.387  -4.860   1.073  0.00  0.00    +0.268 C 
ATOM     14  O   UNL     1       0.073  -4.140  -0.071  0.00  0.00    -0.478 OA
ENDBRANCH   1  13
BRANCH   1  15
ATOM     15  N   UNL     1      -0.527  -7.205   1.793  0.00  0.00    -0.153 NA
ATOM     16  C   UNL     1      -0.272  -8.502   1.634  0.00  0.00    +0.164 A 
ATOM     17  N   UNL     1      -0.636  -9.528   2.445  0.00  0.00    -0.335 N 
ATOM     18  H   UNL     1      -1.145  -9.352   3.252  0.00  0.00    +0.168 HD
ATOM     19  C   UNL     1      -0.280 -10.823   2.118  0.00  0.00    +0.055 A 
ATOM     20  C   UNL     1      -0.548 -12.015   2.805  0.00  0.00    +0.028 A 
ATOM     21  C   UNL     1      -0.104 -13.221   2.316  0.00  0.00    +0.022 A 
ATOM     22  C   UNL     1       0.618 -13.294   1.135  0.00  0.00    +0.042 A 
ATOM     23  C   UNL     1       0.895 -12.130   0.437  0.00  0.00    +0.037 A 
ATOM     24  C   UNL     1       0.452 -10.925   0.926  0.00  0.00    +0.040 A 
ATOM     25  S   UNL     1       0.568  -9.241   0.380  0.00  0.00    -0.052 S 
ATOM     26 CL   UNL     1       1.169 -14.828   0.536  0.00  0.00    -0.084 Cl
ENDBRANCH   1  15
TORSDOF 2
