REMARK  Name = ZINC30739661
REMARK  11 active torsions:
REMARK  status: ('A' for Active; 'I' for Inactive)
REMARK    1  A    between atoms: C_1  and  C_2
REMARK    2  A    between atoms: C_7  and  N_8
REMARK    3  A    between atoms: C_9  and  C_11
REMARK    4  A    between atoms: C_11  and  C_13
REMARK    5  A    between atoms: C_11  and  S_16
REMARK    6  A    between atoms: C_13  and  C_14
REMARK    7  A    between atoms: C_13  and  C_15
REMARK    8  A    between atoms: S_16  and  C_17
REMARK    9  A    between atoms: N_21  and  C_22
REMARK   10  A    between atoms: C_22  and  C_23
REMARK   11  A    between atoms: C_22  and  C_24
REMARK                            x       y       z     vdW  Elec       q    Type
REMARK                         _______ _______ _______ _____ _____    ______ ____
ROOT
ATOM      1  C   UNL     1       1.801  -0.092  -0.014  0.00  0.00    +0.143 C 
ENDROOT
BRANCH   1   3
ATOM      2  N   UNL     1       2.864  -2.111  -0.969  0.00  0.00    -0.284 N 
ATOM      3  C   UNL     1       1.775  -1.546  -0.411  0.00  0.00    +0.231 C 
ATOM      4  O   UNL     1       0.775  -2.207  -0.228  0.00  0.00    -0.274 OA
ATOM      5  H   UNL     1       3.739  -1.492  -1.217  0.00  0.00    +0.155 HD
BRANCH   2  12
ATOM      6  C   UNL     1       4.790  -3.100  -2.816  0.00  0.00    +0.045 C 
ATOM      7  C   UNL     1       3.804  -4.010  -2.129  0.00  0.00    -0.029 A 
ATOM      8  C   UNL     1       3.818  -5.366  -2.388  0.00  0.00    +0.005 A 
ATOM      9  C   UNL     1       2.915  -6.202  -1.758  0.00  0.00    +0.000 A 
ATOM     10  C   UNL     1       1.994  -5.682  -0.866  0.00  0.00    +0.002 A 
ATOM     11  C   UNL     1       1.978  -4.327  -0.599  0.00  0.00    +0.023 A 
ATOM     12  C   UNL     1       2.881  -3.485  -1.234  0.00  0.00    +0.036 A 
ENDBRANCH   2  12
ENDBRANCH   1   3
BRANCH   1  13
ATOM     13  C   UNL     1       2.520   0.057   1.329  0.00  0.00    +0.005 C 
ATOM     14  C   UNL     1       3.963  -0.433   1.192  0.00  0.00    +0.009 C 
ATOM     15  C   UNL     1       2.518   1.528   1.747  0.00  0.00    +0.009 C 
ENDBRANCH   1  13
BRANCH   1  16
ATOM     16  S   UNL     1       0.105   0.521   0.139  0.00  0.00    -0.072 S 
BRANCH  16  17
ATOM     17  C   UNL     1      -0.424   0.378  -1.536  0.00  0.00    +0.210 A 
ATOM     18  N   UNL     1       0.313   0.001  -2.559  0.00  0.00    -0.101 NA
ATOM     19  N   UNL     1      -0.381   0.005  -3.639  0.00  0.00    -0.022 NA
ATOM     20  N   UNL     1      -1.590   0.379  -3.393  0.00  0.00    -0.043 NA
ATOM     21  N   UNL     1      -1.666   0.631  -2.012  0.00  0.00    -0.218 N 
BRANCH  21  22
ATOM     22  C   UNL     1      -2.837   1.074  -1.251  0.00  0.00    +0.106 C 
ATOM     23  C   UNL     1      -3.317   2.422  -1.794  0.00  0.00    +0.032 C 
ATOM     24  C   UNL     1      -3.956   0.040  -1.390  0.00  0.00    +0.032 C 
ENDBRANCH  21  22
ENDBRANCH  16  17
ENDBRANCH   1  16
TORSDOF 6
