REMARK  Name = ZINC05068095
REMARK  10 active torsions:
REMARK  status: ('A' for Active; 'I' for Inactive)
REMARK    1  A    between atoms: C_1  and  C_2
REMARK    2  A    between atoms: C_2  and  C_3
REMARK    3  A    between atoms: C_3  and  C_25
REMARK    4  A    between atoms: C_5  and  C_9
REMARK    5  A    between atoms: C_5  and  C_16
REMARK    6  A    between atoms: C_16  and  C_18
REMARK    7  A    between atoms: C_16  and  C_20
REMARK    8  A    between atoms: C_20  and  O_22
REMARK    9  A    between atoms: O_22  and  C_23
REMARK   10  A    between atoms: C_23  and  C_24
REMARK                            x       y       z     vdW  Elec       q    Type
REMARK                         _______ _______ _______ _____ _____    ______ ____
ROOT
ATOM      1  C   UNL     1      -0.850   1.538  -0.747  0.00  0.00    +0.067 C 
ATOM      2  C   UNL     1      -0.434   1.322  -2.204  0.00  0.00    +0.048 C 
ATOM      3  C   UNL     1      -0.119  -0.160  -2.424  0.00  0.00    +0.026 C 
ATOM      4  C   UNL     1      -1.345  -0.995  -2.039  0.00  0.00    +0.041 C 
ATOM      5  C   UNL     1      -1.725  -0.690  -0.588  0.00  0.00    +0.161 C 
ATOM      6  O   UNL     1      -1.976   0.710  -0.447  0.00  0.00    -0.374 OA
ATOM      7  C   UNL     1      -1.225   3.006  -0.534  0.00  0.00    +0.041 C 
ENDROOT
BRANCH   3   8
ATOM      8  C   UNL     1       0.217  -0.395  -3.874  0.00  0.00    -0.039 A 
ATOM      9  C   UNL     1       0.363   0.679  -4.732  0.00  0.00    +0.007 A 
ATOM     10  C   UNL     1       0.676   0.465  -6.061  0.00  0.00    +0.038 A 
ATOM     11  C   UNL     1       0.831  -0.827  -6.535  0.00  0.00    +0.123 A 
ATOM     12  C   UNL     1       0.678  -1.902  -5.677  0.00  0.00    +0.038 A 
ATOM     13  C   UNL     1       0.372  -1.685  -4.347  0.00  0.00    +0.007 A 
ATOM     14  F   UNL     1       1.131  -1.037  -7.836  0.00  0.00    -0.205 F 
ENDBRANCH   3   8
BRANCH   1  16
ATOM     15  C   UNL     1       0.317   2.101   1.389  0.00  0.00    +0.007 C 
ATOM     16  C   UNL     1       0.314   1.170   0.175  0.00  0.00    +0.031 C 
ENDBRANCH   1  16
BRANCH   3  17
ATOM     17  C   UNL     1       1.070  -0.565  -1.550  0.00  0.00    +0.210 C 
BRANCH  17  18
ATOM     18  C   UNL     1       1.426  -1.967  -1.824  0.00  0.00    +0.078 C 
ATOM     19  N   UNL     1       1.700  -3.049  -2.035  0.00  0.00    -0.196 NA
ENDBRANCH  17  18
BRANCH  17  20
ATOM     20  C   UNL     1       2.248   0.322  -1.861  0.00  0.00    +0.325 C 
ATOM     21  O   UNL     1       2.191   1.099  -2.785  0.00  0.00    -0.249 OA
BRANCH  20  22
ATOM     22  O   UNL     1       3.359   0.250  -1.112  0.00  0.00    -0.464 OA
BRANCH  22  23
ATOM     23  C   UNL     1       4.454   1.134  -1.470  0.00  0.00    +0.229 C 
ATOM     24  C   UNL     1       5.625   0.910  -0.511  0.00  0.00    +0.048 C 
ENDBRANCH  22  23
ENDBRANCH  20  22
ENDBRANCH  17  20
ENDBRANCH   3  17
TORSDOF 7
