REMARK  Name = ZINC39357367
REMARK  7 active torsions:
REMARK  status: ('A' for Active; 'I' for Inactive)
REMARK    1  A    between atoms: C_1  and  N_2
REMARK    2  A    between atoms: C_3  and  C_23
REMARK    3  A    between atoms: C_7  and  S_9
REMARK    4  A    between atoms: S_9  and  C_10
REMARK    5  A    between atoms: C_10  and  C_11
REMARK    6  A    between atoms: C_27  and  O_29
REMARK    7  A    between atoms: O_29  and  C_30
REMARK                            x       y       z     vdW  Elec       q    Type
REMARK                         _______ _______ _______ _____ _____    ______ ____
ROOT
ATOM      1  C   UNL     1       0.713   1.551   0.032  0.00  0.00    -0.090 C 
ATOM      2  N   UNL     1       0.409   0.114   0.083  0.00  0.00    +0.409 N 
ATOM      3  C   UNL     1       0.622  -0.497  -1.250  0.00  0.00    +0.049 C 
ATOM      4  N   UNL     1       1.996  -1.059  -1.179  0.00  0.00    -0.267 NA
ATOM      5  N   UNL     1       2.076  -1.568   0.200  0.00  0.00    -0.262 NA
ATOM      6  C   UNL     1       1.339  -0.569   1.006  0.00  0.00    +0.077 C 
ATOM      7  H   UNL     1       2.688  -0.343  -1.340  0.00  0.00    +0.139 HD
ATOM      8  H   UNL     1       1.649  -2.479   0.274  0.00  0.00    +0.140 HD
ATOM      9  H   UNL     1      -0.543  -0.029   0.382  0.00  0.00    -0.076 HD
ENDROOT
BRANCH   3  10
ATOM     10  C   UNL     1       0.532   0.549  -2.330  0.00  0.00    -0.043 A 
ATOM     11  C   UNL     1      -0.612   0.650  -3.101  0.00  0.00    +0.003 A 
ATOM     12  C   UNL     1      -0.698   1.609  -4.093  0.00  0.00    +0.004 A 
ATOM     13  C   UNL     1       0.360   2.469  -4.318  0.00  0.00    +0.045 A 
ATOM     14  C   UNL     1       1.509   2.369  -3.546  0.00  0.00    +0.120 A 
ATOM     15  C   UNL     1       1.590   1.410  -2.547  0.00  0.00    +0.049 A 
BRANCH  14  16
ATOM     16  O   UNL     1       2.551   3.214  -3.766  0.00  0.00    -0.495 OA
ATOM     17  C   UNL     1       2.395   4.180  -4.807  0.00  0.00    +0.277 C 
ENDBRANCH  14  16
ENDBRANCH   3  10
BRANCH   6  18
ATOM     18  S   UNL     1       0.409  -1.398   2.324  0.00  0.00    -0.152 S 
BRANCH  18  19
ATOM     19  C   UNL     1      -0.652  -2.575   1.439  0.00  0.00    +0.143 C 
BRANCH  19  20
ATOM     20  C   UNL     1      -1.489  -3.340   2.431  0.00  0.00    +0.120 A 
ATOM     21  N   UNL     1      -2.350  -4.279   1.958  0.00  0.00    -0.310 N 
ATOM     22  H   UNL     1      -2.410  -4.439   1.004  0.00  0.00    +0.170 HD
ATOM     23  C   UNL     1      -3.124  -4.994   2.808  0.00  0.00    +0.259 A 
ATOM     24  O   UNL     1      -3.899  -5.839   2.398  0.00  0.00    -0.267 OA
ATOM     25  C   UNL     1      -2.992  -4.711   4.245  0.00  0.00    +0.065 A 
ATOM     26  C   UNL     1      -3.743  -5.390   5.202  0.00  0.00    +0.015 A 
ATOM     27  C   UNL     1      -3.580  -5.084   6.535  0.00  0.00    +0.001 A 
ATOM     28  C   UNL     1      -2.676  -4.107   6.930  0.00  0.00    +0.002 A 
ATOM     29  C   UNL     1      -1.925  -3.424   6.000  0.00  0.00    +0.028 A 
ATOM     30  C   UNL     1      -2.071  -3.716   4.643  0.00  0.00    +0.078 A 
ATOM     31  N   UNL     1      -1.348  -3.072   3.693  0.00  0.00    -0.233 NA
ENDBRANCH  19  20
ENDBRANCH  18  19
ENDBRANCH   6  18
TORSDOF 5
