REMARK  Name = ZINC17146634
REMARK  7 active torsions:
REMARK  status: ('A' for Active; 'I' for Inactive)
REMARK    1  A    between atoms: C_1  and  C_2
REMARK    2  A    between atoms: C_2  and  C_13
REMARK    3  A    between atoms: N_3  and  N_4
REMARK    4  A    between atoms: C_5  and  C_7
REMARK    5  A    between atoms: C_19  and  C_38
REMARK    6  A    between atoms: C_30  and  C_37
REMARK    7  A    between atoms: C_33  and  O_36
REMARK                            x       y       z     vdW  Elec       q    Type
REMARK                         _______ _______ _______ _____ _____    ______ ____
ROOT
ATOM      1  C   UNL     1      -5.192   0.573   5.563  0.00  0.00    +0.041 C 
ATOM      2  C   UNL     1      -4.764   1.973   5.084  0.00  0.00    +0.010 C 
ATOM      3  C   UNL     1      -3.272   2.104   5.448  0.00  0.00    +0.005 C 
ATOM      4  C   UNL     1      -2.724   0.653   5.401  0.00  0.00    -0.001 C 
ATOM      5  C   UNL     1      -3.912  -0.220   5.814  0.00  0.00    -0.021 C 
ATOM      6  C   UNL     1      -3.898  -1.623   5.267  0.00  0.00    +0.008 C 
ATOM      7  C   UNL     1      -3.425  -1.732   3.821  0.00  0.00    +0.005 C 
ATOM      8  C   UNL     1      -2.032  -1.103   3.734  0.00  0.00    -0.001 C 
ATOM      9  C   UNL     1      -2.189   0.394   4.001  0.00  0.00    -0.004 C 
ATOM     10  C   UNL     1      -3.072   1.021   2.927  0.00  0.00    +0.004 C 
ATOM     11  C   UNL     1      -2.427   0.809   1.553  0.00  0.00    +0.004 C 
ATOM     12  C   UNL     1      -2.273  -0.686   1.276  0.00  0.00    -0.002 C 
ATOM     13  C   UNL     1      -1.410  -1.332   2.357  0.00  0.00    -0.026 C 
ATOM     14  C   UNL     1      -0.013  -0.708   2.316  0.00  0.00    +0.010 C 
ATOM     15  C   UNL     1       0.638  -0.954   0.959  0.00  0.00    +0.032 C 
ATOM     16  C   UNL     1      -0.217  -0.417  -0.181  0.00  0.00    +0.115 C 
ATOM     17  C   UNL     1      -1.658  -0.898  -0.103  0.00  0.00    +0.035 C 
ATOM     18  C   UNL     1      -1.291  -2.839   2.103  0.00  0.00    +0.012 C 
ATOM     19  C   UNL     1      -3.807  -0.378   7.357  0.00  0.00    +0.012 C 
ENDROOT
BRANCH   1  21
ATOM     20  C   UNL     1      -6.364   0.596   3.237  0.00  0.00    +0.062 C 
ATOM     21  C   UNL     1      -6.114  -0.067   4.567  0.00  0.00    +0.037 C 
ATOM     22  N   UNL     1      -6.689  -1.176   4.848  0.00  0.00    -0.189 NA
BRANCH  22  23
ATOM     23  N   UNL     1      -6.595  -1.707   6.141  0.00  0.00    -0.203 N 
ATOM     24  C   UNL     1      -7.108  -2.924   6.409  0.00  0.00    +0.263 C 
ATOM     25  O   UNL     1      -7.568  -3.600   5.510  0.00  0.00    -0.268 OA
ATOM     26  H   UNL     1      -6.160  -1.198   6.843  0.00  0.00    +0.178 HD
BRANCH  24  27
ATOM     27  C   UNL     1      -7.110  -3.437   7.798  0.00  0.00    +0.041 A 
ATOM     28  C   UNL     1      -6.680  -2.636   8.861  0.00  0.00    +0.033 A 
ATOM     29  C   UNL     1      -6.703  -3.154  10.141  0.00  0.00    +0.111 A 
ATOM     30  N   UNL     1      -7.113  -4.386  10.366  0.00  0.00    -0.263 NA
ATOM     31  C   UNL     1      -7.521  -5.176   9.393  0.00  0.00    +0.111 A 
ATOM     32  C   UNL     1      -7.536  -4.738   8.083  0.00  0.00    +0.033 A 
ENDBRANCH  24  27
ENDBRANCH  22  23
ENDBRANCH   1  21
BRANCH  16  33
ATOM     33  O   UNL     1      -0.161   1.010  -0.214  0.00  0.00    -0.392 OA
ATOM     34  H   UNL     1       0.736   1.367  -0.263  0.00  0.00    +0.210 HD
ENDBRANCH  16  33
TORSDOF 4
