REMARK  Name = ZINC24831089
REMARK  3 active torsions:
REMARK  status: ('A' for Active; 'I' for Inactive)
REMARK    1  A    between atoms: C_6  and  C_7
REMARK    2  A    between atoms: C_7  and  C_8
REMARK    3  A    between atoms: C_14  and  C_16
REMARK                            x       y       z     vdW  Elec       q    Type
REMARK                         _______ _______ _______ _____ _____    ______ ____
ROOT
ATOM      1  C   UNL     1      -0.018   1.503   0.010  0.00  0.00    +0.015 A 
ATOM      2  C   UNL     1       1.014   2.382   0.005  0.00  0.00    +0.124 A 
ATOM      3  N   UNL     1       0.740   3.672   0.014  0.00  0.00    -0.233 NA
ATOM      4  C   UNL     1      -0.505   4.106   0.028  0.00  0.00    +0.165 A 
ATOM      5  S   UNL     1      -1.410   2.624   0.022  0.00  0.00    -0.057 S 
ATOM      6  N   UNL     1      -0.973   5.414   0.038  0.00  0.00    -0.261 N 
ATOM      7  C   UNL     1      -0.101   6.442   0.036  0.00  0.00    +0.250 C 
ATOM      8  O   UNL     1       1.096   6.224   0.024  0.00  0.00    -0.270 OA
ATOM      9  H   UNL     1      -2.055   5.611   0.049  0.00  0.00    +0.157 HD
ENDROOT
BRANCH   7  10
ATOM     10  C   UNL     1      -0.597   7.830   0.047  0.00  0.00    +0.039 A 
ATOM     11  C   UNL     1      -1.973   8.080   0.054  0.00  0.00    +0.014 A 
ATOM     12  C   UNL     1      -2.440   9.376   0.069  0.00  0.00    +0.017 A 
ATOM     13  C   UNL     1      -1.541  10.435   0.066  0.00  0.00    +0.029 A 
ATOM     14  C   UNL     1      -0.165  10.193   0.054  0.00  0.00    +0.048 A 
ATOM     15  C   UNL     1       0.308   8.897   0.044  0.00  0.00    +0.037 A 
ATOM     16  N   UNL     1       0.726  11.278   0.055  0.00  0.00    -0.285 N 
ATOM     17  C   UNL     1       0.595  12.260   0.956  0.00  0.00    +0.218 C 
ATOM     18  O   UNL     1       1.243  13.277   0.826  0.00  0.00    -0.275 OA
ATOM     19  C   UNL     1      -0.338  12.126   2.123  0.00  0.00    +0.107 C 
ATOM     20  C   UNL     1      -1.731  12.670   1.764  0.00  0.00    +0.083 C 
ATOM     21  S   UNL     1      -2.120  12.102   0.075  0.00  0.00    -0.123 S 
ATOM     22  H   UNL     1       1.537  11.324  -0.687  0.00  0.00    +0.155 HD
ENDBRANCH   7  10
BRANCH   1  23
ATOM     23  C   UNL     1       0.002  -0.004   0.002  0.00  0.00    +0.079 C 
BRANCH  23  29
ATOM     24  C   UNL     1       1.229  -0.737   2.057  0.00  0.00    +0.005 A 
ATOM     25  C   UNL     1       1.248  -1.199   3.359  0.00  0.00    +0.020 A 
ATOM     26  C   UNL     1       0.060  -1.450   4.022  0.00  0.00    +0.041 A 
ATOM     27  C   UNL     1      -1.147  -1.232   3.382  0.00  0.00    +0.020 A 
ATOM     28  C   UNL     1      -1.165  -0.764   2.081  0.00  0.00    +0.005 A 
ATOM     29  C   UNL     1       0.022  -0.514   1.420  0.00  0.00    -0.042 A 
ATOM     30 CL   UNL     1       0.083  -2.036   5.655  0.00  0.00    -0.084 Cl
ENDBRANCH  23  29
ENDBRANCH   1  23
TORSDOF 3
