REMARK  Name = ZINC19750771
REMARK  8 active torsions:
REMARK  status: ('A' for Active; 'I' for Inactive)
REMARK    1  A    between atoms: C_1  and  C_2
REMARK    2  A    between atoms: C_7  and  C_8
REMARK    3  A    between atoms: N_9  and  C_15
REMARK    4  A    between atoms: C_10  and  C_12
REMARK    5  A    between atoms: C_12  and  C_13
REMARK    6  A    between atoms: C_13  and  N_14
REMARK    7  A    between atoms: C_15  and  C_16
REMARK    8  A    between atoms: C_19  and  C_22
REMARK                            x       y       z     vdW  Elec       q    Type
REMARK                         _______ _______ _______ _____ _____    ______ ____
ROOT
ATOM      1  C   UNL     1       3.915  -1.838   5.215  0.00  0.00    +0.044 C 
ATOM      2  C   UNL     1       2.931  -1.461   4.137  0.00  0.00    -0.045 A 
ATOM      3  C   UNL     1       1.590  -1.562   4.380  0.00  0.00    +0.033 A 
ATOM      4  C   UNL     1       0.674  -1.214   3.385  0.00  0.00    +0.090 A 
ATOM      5  C   UNL     1       1.145  -0.767   2.138  0.00  0.00    +0.069 A 
ATOM      6  C   UNL     1       2.510  -0.664   1.912  0.00  0.00    +0.031 A 
ATOM      7  C   UNL     1       3.396  -1.014   2.909  0.00  0.00    -0.045 A 
ATOM      8  C   UNL     1       4.879  -0.910   2.663  0.00  0.00    +0.044 C 
ATOM      9  N   UNL     1       0.022  -0.500   1.381  0.00  0.00    -0.323 N 
ATOM     10  C   UNL     1      -1.063  -0.788   2.149  0.00  0.00    +0.109 A 
ATOM     11  N   UNL     1      -0.682  -1.206   3.321  0.00  0.00    -0.232 NA
ENDROOT
BRANCH  10  12
ATOM     12  C   UNL     1      -2.497  -0.644   1.708  0.00  0.00    +0.055 C 
BRANCH  12  13
ATOM     13  C   UNL     1      -2.967  -1.953   1.070  0.00  0.00    -0.079 C 
BRANCH  13  14
ATOM     14  N   UNL     1      -4.365  -1.813   0.640  0.00  0.00    +0.378 N 
ATOM     15  H   UNL     1      -4.703  -2.754   0.181  0.00  0.00    -0.090 HD
ATOM     16  H   UNL     1      -4.442  -0.999  -0.095  0.00  0.00    -0.090 HD
ATOM     17  H   UNL     1      -4.995  -1.582   1.511  0.00  0.00    -0.090 HD
ENDBRANCH  13  14
ENDBRANCH  12  13
ENDBRANCH  10  12
BRANCH   9  18
ATOM     18  C   UNL     1       0.002  -0.004   0.002  0.00  0.00    +0.158 C 
BRANCH  18  19
ATOM     19  C   UNL     1      -0.018   1.503   0.010  0.00  0.00    -0.028 A 
ATOM     20  C   UNL     1      -1.228   2.175   0.020  0.00  0.00    +0.006 A 
ATOM     21  C   UNL     1      -1.254   3.554   0.032  0.00  0.00    +0.015 A 
ATOM     22  C   UNL     1      -0.056   4.272   0.025  0.00  0.00    +0.063 A 
ATOM     23  C   UNL     1       1.161   3.587   0.010  0.00  0.00    +0.015 A 
ATOM     24  C   UNL     1       1.172   2.208   0.003  0.00  0.00    +0.006 A 
BRANCH  22  25
ATOM     25  C   UNL     1      -0.076   5.749   0.033  0.00  0.00    +0.387 C 
ATOM     26  O   UNL     1       0.968   6.371   0.026  0.00  0.00    -0.241 OA
ATOM     27  O   UNL     1      -1.252   6.407   0.047  0.00  0.00    -0.241 OA
ENDBRANCH  22  25
ENDBRANCH  18  19
ENDBRANCH   9  18
TORSDOF 6
