REMARK  Name = ZINC43548592
REMARK  11 active torsions:
REMARK  status: ('A' for Active; 'I' for Inactive)
REMARK    1  A    between atoms: C_1  and  C_2
REMARK    2  A    between atoms: C_2  and  C_3
REMARK    3  A    between atoms: C_3  and  C_4
REMARK    4  A    between atoms: C_4  and  N_5
REMARK    5  A    between atoms: C_12  and  C_34
REMARK    6  A    between atoms: C_15  and  C_25
REMARK    7  A    between atoms: C_17  and  O_24
REMARK    8  A    between atoms: C_21  and  C_23
REMARK    9  A    between atoms: C_25  and  C_27
REMARK   10  A    between atoms: C_25  and  C_28
REMARK   11  A    between atoms: N_30  and  C_31
REMARK                            x       y       z     vdW  Elec       q    Type
REMARK                         _______ _______ _______ _____ _____    ______ ____
ROOT
ATOM      1  N   UNL     1       1.325  -2.724   2.092  0.00  0.00    -0.325 N 
ATOM      2  C   UNL     1       1.472  -4.079   2.345  0.00  0.00    +0.136 A 
ATOM      3  N   UNL     1       2.051  -4.661   3.372  0.00  0.00    -0.340 N 
ATOM      4  C   UNL     1       2.119  -5.985   3.484  0.00  0.00    +0.031 A 
ATOM      5  C   UNL     1       1.550  -6.674   2.463  0.00  0.00    +0.013 A 
ATOM      6  S   UNL     1       0.947  -5.381   1.413  0.00  0.00    -0.059 S 
ATOM      7  C   UNL     1       1.465  -8.152   2.297  0.00  0.00    +0.051 C 
ATOM      8  C   UNL     1       1.785  -8.819   3.647  0.00  0.00    -0.022 C 
ATOM      9  C   UNL     1       2.096 -10.299   3.381  0.00  0.00    +0.008 C 
ATOM     10  C   UNL     1       3.230 -10.391   2.356  0.00  0.00    +0.007 C 
ATOM     11  C   UNL     1       4.481  -9.702   2.902  0.00  0.00    +0.029 C 
ATOM     12  C   UNL     1       4.171  -8.234   3.208  0.00  0.00    +0.123 C 
ATOM     13  C   UNL     1       3.041  -8.166   4.234  0.00  0.00    +0.033 C 
ATOM     14  C   UNL     1       2.769  -6.723   4.644  0.00  0.00    +0.039 C 
ATOM     15  C   UNL     1       1.829  -6.704   5.852  0.00  0.00    +0.014 C 
ATOM     16  C   UNL     1       0.606  -8.672   4.610  0.00  0.00    +0.012 C 
ATOM     17  H   UNL     1       1.678  -2.072   2.718  0.00  0.00    +0.148 HD
ATOM     18  H   UNL     1       2.440  -4.109   4.069  0.00  0.00    +0.167 HD
ENDROOT
BRANCH  12  19
ATOM     19  O   UNL     1       3.771  -7.570   2.008  0.00  0.00    -0.391 OA
ATOM     20  H   UNL     1       4.440  -7.580   1.310  0.00  0.00    +0.210 HD
ENDBRANCH  12  19
BRANCH  11  21
ATOM     21  C   UNL     1       5.599  -9.779   1.860  0.00  0.00    +0.077 C 
ATOM     22  C   UNL     1       5.915 -11.245   1.557  0.00  0.00    +0.017 C 
BRANCH  21  23
ATOM     23  C   UNL     1       6.833  -9.100   2.397  0.00  0.00    +0.216 C 
ATOM     24  O   UNL     1       6.820  -8.604   3.504  0.00  0.00    -0.276 OA
ATOM     25  N   UNL     1       7.952  -9.045   1.647  0.00  0.00    -0.312 N 
ATOM     26  H   UNL     1       7.963  -9.441   0.762  0.00  0.00    +0.149 HD
BRANCH  25  27
ATOM     27  C   UNL     1       9.151  -8.385   2.169  0.00  0.00    +0.073 C 
ATOM     28  C   UNL     1       9.920  -7.463   1.220  0.00  0.00    +0.024 C 
ATOM     29  C   UNL     1      10.503  -8.825   1.603  0.00  0.00    +0.024 C 
ENDBRANCH  25  27
ENDBRANCH  21  23
ENDBRANCH  11  21
BRANCH   1  30
ATOM     30  C   UNL     1       0.636  -2.275   0.880  0.00  0.00    +0.103 C 
BRANCH  30  31
ATOM     31  C   UNL     1       0.611  -0.746   0.844  0.00  0.00    +0.018 C 
BRANCH  31  33
ATOM     32  C   UNL     1      -0.135   1.252  -0.459  0.00  0.00    +0.004 C 
ATOM     33  C   UNL     1      -0.109  -0.278  -0.423  0.00  0.00    -0.002 C 
ENDBRANCH  31  33
ENDBRANCH  30  31
ENDBRANCH   1  30
TORSDOF 7
