REMARK  Name = ZINC05540262
REMARK  4 active torsions:
REMARK  status: ('A' for Active; 'I' for Inactive)
REMARK    1  A    between atoms: C_3  and  C_10
REMARK    2  A    between atoms: C_5  and  N_7
REMARK    3  A    between atoms: C_12  and  C_15
REMARK    4  A    between atoms: C_15  and  C_17
REMARK                            x       y       z     vdW  Elec       q    Type
REMARK                         _______ _______ _______ _____ _____    ______ ____
ROOT
ATOM      1  C   UNL     1      -2.013   2.461   4.787  0.00  0.00    +0.185 C 
ATOM      2  C   UNL     1      -0.922   2.842   3.785  0.00  0.00    +0.218 C 
ATOM      3  O   UNL     1      -1.438   3.768   4.744  0.00  0.00    -0.355 OA
ENDROOT
BRANCH   1   6
ATOM      4  C   UNL     1      -5.554   3.232   3.728  0.00  0.00    +0.003 A 
ATOM      5  C   UNL     1      -4.266   3.385   4.206  0.00  0.00    +0.006 A 
ATOM      6  C   UNL     1      -3.418   2.295   4.267  0.00  0.00    -0.014 A 
ATOM      7  C   UNL     1      -3.856   1.053   3.845  0.00  0.00    +0.039 A 
ATOM      8  C   UNL     1      -5.145   0.900   3.372  0.00  0.00    +0.127 A 
ATOM      9  C   UNL     1      -5.994   1.990   3.311  0.00  0.00    +0.033 A 
BRANCH   8  10
ATOM     10  N   UNL     1      -5.616  -0.431   2.925  0.00  0.00    +0.056 N 
ATOM     11  O   UNL     1      -6.751  -0.565   2.504  0.00  0.00    -0.126 OA
ATOM     12  O   UNL     1      -4.869  -1.391   2.979  0.00  0.00    -0.126 OA
ENDBRANCH   8  10
ENDBRANCH   1   6
BRANCH   2  13
ATOM     13  C   UNL     1      -1.324   3.026   2.345  0.00  0.00    +0.171 C 
ATOM     14  O   UNL     1      -2.256   3.741   2.064  0.00  0.00    -0.294 OA
BRANCH  13  15
ATOM     15  C   UNL     1      -0.564   2.317   1.254  0.00  0.00    +0.032 C 
ATOM     16  C   UNL     1      -0.530   0.816   1.548  0.00  0.00    +0.018 C 
ATOM     17  C   UNL     1       0.242   0.096   0.441  0.00  0.00    -0.010 C 
ATOM     18  C   UNL     1      -0.450   0.337  -0.902  0.00  0.00    +0.007 C 
ATOM     19  C   UNL     1      -0.484   1.837  -1.197  0.00  0.00    -0.010 C 
ATOM     20  C   UNL     1      -1.256   2.558  -0.089  0.00  0.00    +0.018 C 
ATOM     21  C   UNL     1       0.946   2.378  -1.256  0.00  0.00    +0.007 C 
ATOM     22  C   UNL     1       1.638   2.137   0.087  0.00  0.00    -0.010 C 
ATOM     23  C   UNL     1       1.672   0.636   0.382  0.00  0.00    +0.007 C 
ATOM     24  C   UNL     1       0.866   2.857   1.195  0.00  0.00    +0.018 C 
ENDBRANCH  13  15
ENDBRANCH   2  13
TORSDOF 4
