REMARK  Name = ZINC00989240
REMARK  4 active torsions:
REMARK  status: ('A' for Active; 'I' for Inactive)
REMARK    1  A    between atoms: C_3  and  C_8
REMARK    2  A    between atoms: C_16  and  N_29
REMARK    3  A    between atoms: C_17  and  C_27
REMARK    4  A    between atoms: C_18  and  C_20
REMARK                            x       y       z     vdW  Elec       q    Type
REMARK                         _______ _______ _______ _____ _____    ______ ____
ROOT
ATOM      1  C   UNL     1      -0.013   1.076   0.008  0.00  0.00    +0.015 C 
ATOM      2  C   UNL     1       1.138   1.752  -0.156  0.00  0.00    -0.004 C 
ATOM      3  C   UNL     1       1.131   3.240  -0.431  0.00  0.00    +0.039 C 
ATOM      4  C   UNL     1       2.195   3.506  -1.500  0.00  0.00    +0.009 C 
ATOM      5  C   UNL     1       3.560   3.103  -0.951  0.00  0.00    +0.036 C 
ATOM      6  C   UNL     1       3.560   1.680  -0.454  0.00  0.00    -0.014 C 
ATOM      7  C   UNL     1       2.441   1.062  -0.079  0.00  0.00    +0.133 C 
ATOM      8  O   UNL     1       2.454  -0.214   0.386  0.00  0.00    -0.441 OA
ATOM      9  C   UNL     1       3.478  -1.030   0.082  0.00  0.00    +0.199 C 
ATOM     10  C   UNL     1       4.678  -0.523  -0.296  0.00  0.00    +0.098 C 
ATOM     11  C   UNL     1       4.888   0.961  -0.383  0.00  0.00    +0.094 C 
ENDROOT
BRANCH   1  14
ATOM     12  C   UNL     1      -3.654   1.915  -0.333  0.00  0.00    +0.003 A 
ATOM     13  C   UNL     1      -2.460   1.228  -0.413  0.00  0.00    +0.008 A 
ATOM     14  C   UNL     1      -1.290   1.804   0.089  0.00  0.00    -0.022 A 
ATOM     15  C   UNL     1      -1.339   3.073   0.674  0.00  0.00    +0.046 A 
ATOM     16  C   UNL     1      -2.541   3.751   0.743  0.00  0.00    +0.124 A 
ATOM     17  C   UNL     1      -3.696   3.172   0.242  0.00  0.00    +0.038 A 
ATOM     18  F   UNL     1      -2.590   4.979   1.304  0.00  0.00    -0.205 F 
ENDBRANCH   1  14
BRANCH  11  19
ATOM     19  C   UNL     1       5.641   1.429   0.836  0.00  0.00    -0.032 A 
ATOM     20  C   UNL     1       6.868   2.050   0.694  0.00  0.00    +0.005 A 
ATOM     21  C   UNL     1       7.560   2.479   1.811  0.00  0.00    +0.003 A 
ATOM     22  C   UNL     1       7.026   2.289   3.071  0.00  0.00    +0.038 A 
ATOM     23  C   UNL     1       5.797   1.667   3.215  0.00  0.00    +0.124 A 
ATOM     24  C   UNL     1       5.102   1.242   2.095  0.00  0.00    +0.043 A 
ATOM     25  F   UNL     1       5.274   1.480   4.446  0.00  0.00    -0.205 F 
ENDBRANCH  11  19
BRANCH   9  26
ATOM     26  N   UNL     1       3.307  -2.390   0.155  0.00  0.00    -0.328 N 
ATOM     27  H   UNL     1       2.451  -2.758   0.426  0.00  0.00    +0.145 HD
ATOM     28  H   UNL     1       4.043  -2.984  -0.063  0.00  0.00    +0.145 HD
ENDBRANCH   9  26
BRANCH  10  29
ATOM     29  C   UNL     1       5.755  -1.412  -0.616  0.00  0.00    +0.101 C 
ATOM     30  N   UNL     1       6.609  -2.117  -0.869  0.00  0.00    -0.191 NA
ENDBRANCH  10  29
TORSDOF 4
