REMARK  Name = ZINC63784121
REMARK  8 active torsions:
REMARK  status: ('A' for Active; 'I' for Inactive)
REMARK    1  A    between atoms: C_1  and  C_2
REMARK    2  A    between atoms: C_2  and  C_3
REMARK    3  A    between atoms: C_3  and  N_5
REMARK    4  A    between atoms: N_7  and  C_8
REMARK    5  A    between atoms: C_8  and  C_9
REMARK    6  A    between atoms: C_9  and  C_10
REMARK    7  A    between atoms: C_23  and  C_28
REMARK    8  A    between atoms: C_25  and  C_27
REMARK                            x       y       z     vdW  Elec       q    Type
REMARK                         _______ _______ _______ _____ _____    ______ ____
ROOT
ATOM      1  N   UNL     1      -1.192   3.801  -2.340  0.00  0.00    -0.147 NA
ATOM      2  C   UNL     1      -1.474   5.084  -2.156  0.00  0.00    +0.196 C 
ATOM      3  N   UNL     1      -0.885   5.771  -1.139  0.00  0.00    -0.357 N 
ATOM      4  N   UNL     1      -2.355   5.716  -2.988  0.00  0.00    -0.297 N 
ATOM      5  C   UNL     1      -2.955   5.015  -4.025  0.00  0.00    +0.231 A 
ATOM      6  N   UNL     1      -2.667   3.733  -4.191  0.00  0.00    -0.217 NA
ATOM      7  C   UNL     1      -3.222   3.036  -5.169  0.00  0.00    +0.044 A 
ATOM      8  C   UNL     1      -4.114   3.664  -6.025  0.00  0.00    +0.046 A 
ATOM      9  C   UNL     1      -4.393   5.006  -5.822  0.00  0.00    +0.044 A 
ATOM     10  N   UNL     1      -3.807   5.643  -4.822  0.00  0.00    -0.217 NA
ATOM     11  C   UNL     1      -5.356   5.730  -6.727  0.00  0.00    +0.066 C 
ATOM     12  C   UNL     1      -2.888   1.578  -5.351  0.00  0.00    +0.066 C 
ATOM     13  H   UNL     1      -2.561   6.654  -2.853  0.00  0.00    +0.171 HD
ATOM     14  H   UNL     1      -0.328   5.304  -0.496  0.00  0.00    +0.162 HD
ENDROOT
BRANCH   1  15
ATOM     15  C   UNL     1      -0.182   3.239  -1.679  0.00  0.00    +0.239 C 
ATOM     16  O   UNL     1       0.551   3.925  -0.994  0.00  0.00    -0.274 OA
BRANCH  15  18
ATOM     17  C   UNL     1       1.267   1.370  -0.932  0.00  0.00    +0.013 C 
ATOM     18  C   UNL     1       0.053   1.754  -1.781  0.00  0.00    +0.094 C 
ENDBRANCH  15  18
ENDBRANCH   1  15
BRANCH   3  19
ATOM     19  C   UNL     1      -1.092   7.216  -1.015  0.00  0.00    +0.120 C 
BRANCH  19  20
ATOM     20  C   UNL     1      -0.430   7.718   0.271  0.00  0.00    +0.054 C 
BRANCH  20  21
ATOM     21  C   UNL     1      -0.643   9.204   0.398  0.00  0.00    -0.040 C 
ATOM     22  C   UNL     1      -1.621   9.829   1.093  0.00  0.00    +0.000 A 
ATOM     23  C   UNL     1      -2.737   9.330   1.905  0.00  0.00    +0.030 A 
ATOM     24  C   UNL     1      -3.571  10.220   2.490  0.00  0.00    +0.042 A 
ATOM     25  C   UNL     1      -3.397  11.604   2.340  0.00  0.00    +0.022 A 
ATOM     26  C   UNL     1      -2.395  12.137   1.609  0.00  0.00    +0.027 A 
ATOM     27  C   UNL     1      -1.458  11.293   0.950  0.00  0.00    +0.043 A 
ATOM     28  N   UNL     1      -0.420  11.563   0.197  0.00  0.00    -0.380 N 
ATOM     29  C   UNL     1       0.198  10.299  -0.219  0.00  0.00    +0.144 C 
ATOM     30 CL   UNL     1      -4.893   9.635   3.452  0.00  0.00    -0.084 Cl
ATOM     31  H   UNL     1      -0.110  12.451  -0.043  0.00  0.00    +0.160 HD
ENDBRANCH  20  21
ENDBRANCH  19  20
ENDBRANCH   3  19
TORSDOF 5
