REMARK  Name = ZINC57281653
REMARK  6 active torsions:
REMARK  status: ('A' for Active; 'I' for Inactive)
REMARK    1  A    between atoms: C_1  and  C_2
REMARK    2  A    between atoms: C_2  and  C_3
REMARK    3  A    between atoms: C_2  and  C_4
REMARK    4  A    between atoms: C_2  and  C_21
REMARK    5  A    between atoms: C_4  and  N_5
REMARK    6  A    between atoms: N_8  and  N_9
REMARK                            x       y       z     vdW  Elec       q    Type
REMARK                         _______ _______ _______ _____ _____    ______ ____
ROOT
ATOM      1  N   UNL     1      -2.119  -0.061   1.218  0.00  0.00    -0.297 N 
ATOM      2  C   UNL     1      -3.403  -0.406   1.442  0.00  0.00    +0.316 C 
ATOM      3  O   UNL     1      -3.992  -1.108   0.643  0.00  0.00    -0.251 OA
ATOM      4  N   UNL     1      -4.034   0.029   2.551  0.00  0.00    -0.219 N 
ATOM      5  H   UNL     1      -1.649   0.499   1.855  0.00  0.00    +0.150 HD
ATOM      6  H   UNL     1      -4.957  -0.219   2.712  0.00  0.00    +0.174 HD
ENDROOT
BRANCH   4   7
ATOM      7  N   UNL     1      -3.355   0.839   3.471  0.00  0.00    -0.246 N 
ATOM      8  C   UNL     1      -4.006   1.288   4.616  0.00  0.00    +0.158 A 
ATOM      9  C   UNL     1      -3.334   2.099   5.531  0.00  0.00    +0.050 A 
ATOM     10  C   UNL     1      -4.024   2.521   6.654  0.00  0.00    +0.053 A 
ATOM     11  C   UNL     1      -5.348   2.108   6.802  0.00  0.00    +0.176 A 
ATOM     12  N   UNL     1      -5.905   1.338   5.882  0.00  0.00    -0.128 NA
ATOM     13  N   UNL     1      -5.267   0.951   4.838  0.00  0.00    -0.131 NA
ATOM     14  N   UNL     1      -6.087   2.509   7.921  0.00  0.00    -0.220 N 
ATOM     15  C   UNL     1      -7.376   2.177   8.190  0.00  0.00    +0.116 A 
ATOM     16  C   UNL     1      -7.714   2.763   9.362  0.00  0.00    +0.041 A 
ATOM     17  C   UNL     1      -6.602   3.475   9.825  0.00  0.00    +0.135 A 
ATOM     18  N   UNL     1      -5.626   3.318   8.968  0.00  0.00    -0.173 NA
ATOM     19  H   UNL     1      -2.431   1.087   3.310  0.00  0.00    +0.172 HD
ENDBRANCH   4   7
BRANCH   1  20
ATOM     20  C   UNL     1      -1.433  -0.534   0.013  0.00  0.00    +0.116 C 
BRANCH  20  22
ATOM     21  C   UNL     1      -0.019   1.526   0.010  0.00  0.00    +0.017 C 
ATOM     22  C   UNL     1       0.002  -0.004   0.002  0.00  0.00    +0.006 C 
ATOM     23  C   UNL     1       0.742  -0.511   1.242  0.00  0.00    +0.017 C 
BRANCH  22  24
ATOM     24  C   UNL     1       0.707  -0.490  -1.238  0.00  0.00    -0.040 A 
ATOM     25  C   UNL     1       0.036  -1.284  -2.148  0.00  0.00    +0.005 A 
ATOM     26  C   UNL     1       0.682  -1.730  -3.286  0.00  0.00    +0.020 A 
ATOM     27  C   UNL     1       2.002  -1.382  -3.513  0.00  0.00    +0.041 A 
ATOM     28  C   UNL     1       2.673  -0.587  -2.601  0.00  0.00    +0.020 A 
ATOM     29  C   UNL     1       2.024  -0.137  -1.467  0.00  0.00    +0.005 A 
ATOM     30 CL   UNL     1       2.814  -1.942  -4.941  0.00  0.00    -0.084 Cl
ENDBRANCH  22  24
ENDBRANCH  20  22
ENDBRANCH   1  20
TORSDOF 4
