REMARK  Name = ZINC13512105
REMARK  11 active torsions:
REMARK  status: ('A' for Active; 'I' for Inactive)
REMARK    1  A    between atoms: C_1  and  C_2
REMARK    2  A    between atoms: C_2  and  C_3
REMARK    3  A    between atoms: C_7  and  C_32
REMARK    4  A    between atoms: C_8  and  N_9
REMARK    5  A    between atoms: C_10  and  C_12
REMARK    6  A    between atoms: C_12  and  S_13
REMARK    7  A    between atoms: S_13  and  C_14
REMARK    8  A    between atoms: C_17  and  C_26
REMARK    9  A    between atoms: N_18  and  C_19
REMARK   10  A    between atoms: C_19  and  C_20
REMARK   11  A    between atoms: C_30  and  C_31
REMARK                            x       y       z     vdW  Elec       q    Type
REMARK                         _______ _______ _______ _____ _____    ______ ____
ROOT
ATOM      1  C   UNL     1       2.087   1.141   1.244  0.00  0.00    +0.192 A 
ATOM      2  N   UNL     1       2.578   0.094   0.622  0.00  0.00    -0.122 NA
ATOM      3  N   UNL     1       1.786  -0.909   0.754  0.00  0.00    -0.128 NA
ATOM      4  C   UNL     1       0.740  -0.565   1.469  0.00  0.00    +0.168 A 
ATOM      5  N   UNL     1       0.901   0.759   1.805  0.00  0.00    -0.300 N 
ENDROOT
BRANCH   4   6
ATOM      6  C   UNL     1      -0.395  -1.436   1.844  0.00  0.00    +0.060 A 
ATOM      7  C   UNL     1      -1.825  -1.111   1.764  0.00  0.00    +0.053 A 
ATOM      8  C   UNL     1      -2.477  -2.199   2.207  0.00  0.00    +0.196 A 
ATOM      9  O   UNL     1      -1.581  -3.140   2.543  0.00  0.00    -0.467 OA
ATOM     10  C   UNL     1      -0.331  -2.705   2.327  0.00  0.00    +0.112 A 
ATOM     11  C   UNL     1       0.930  -3.490   2.581  0.00  0.00    +0.087 C 
ENDBRANCH   4   6
BRANCH   1  12
ATOM     12  S   UNL     1       2.821   2.740   1.337  0.00  0.00    -0.077 S 
BRANCH  12  13
ATOM     13  C   UNL     1       4.327   2.451   0.374  0.00  0.00    +0.173 C 
BRANCH  13  15
ATOM     14  N   UNL     1       6.308   3.743  -0.351  0.00  0.00    -0.284 N 
ATOM     15  C   UNL     1       5.138   3.720   0.317  0.00  0.00    +0.228 C 
ATOM     16  O   UNL     1       4.737   4.722   0.871  0.00  0.00    -0.275 OA
ATOM     17  H   UNL     1       6.590   2.968  -0.862  0.00  0.00    +0.155 HD
BRANCH  14  23
ATOM     18  C   UNL     1       8.427   4.791   0.140  0.00  0.00    -0.026 A 
ATOM     19  C   UNL     1       9.225   5.918   0.176  0.00  0.00    +0.005 A 
ATOM     20  C   UNL     1       8.715   7.140  -0.223  0.00  0.00    +0.001 A 
ATOM     21  C   UNL     1       7.408   7.237  -0.664  0.00  0.00    +0.005 A 
ATOM     22  C   UNL     1       6.608   6.113  -0.708  0.00  0.00    -0.029 A 
ATOM     23  C   UNL     1       7.116   4.884  -0.308  0.00  0.00    +0.040 A 
ATOM     24  C   UNL     1       5.183   6.219  -1.189  0.00  0.00    +0.045 C 
BRANCH  18  26
ATOM     25  C   UNL     1       9.499   2.694  -0.638  0.00  0.00    +0.009 C 
ATOM     26  C   UNL     1       8.981   3.461   0.581  0.00  0.00    +0.033 C 
ENDBRANCH  18  26
ENDBRANCH  14  23
ENDBRANCH  13  15
ENDBRANCH  12  13
ENDBRANCH   1  12
BRANCH   5  27
ATOM     27  C   UNL     1      -0.013   1.589   2.595  0.00  0.00    +0.157 C 
BRANCH  27  28
ATOM     28  C   UNL     1       0.317   1.438   4.081  0.00  0.00    +0.138 C 
ATOM     29  C   UNL     1      -0.578   2.377   4.929  0.00  0.00    +0.035 C 
ATOM     30  C   UNL     1      -0.570   1.636   6.295  0.00  0.00    +0.031 C 
ATOM     31  C   UNL     1      -0.513   0.154   5.866  0.00  0.00    +0.160 C 
ATOM     32  O   UNL     1       0.002   0.110   4.530  0.00  0.00    -0.375 OA
ENDBRANCH  27  28
ENDBRANCH   5  27
TORSDOF 8
