REMARK  Name = ZINC09252454
REMARK  5 active torsions:
REMARK  status: ('A' for Active; 'I' for Inactive)
REMARK    1  A    between atoms: C_5  and  N_7
REMARK    2  A    between atoms: C_11  and  C_14
REMARK    3  A    between atoms: N_16  and  C_17
REMARK    4  A    between atoms: C_20  and  N_23
REMARK    5  A    between atoms: C_24  and  C_26
REMARK                            x       y       z     vdW  Elec       q    Type
REMARK                         _______ _______ _______ _____ _____    ______ ____
ROOT
ATOM      1  C   UNL     1       6.983  -0.585   0.235  0.00  0.00    +0.256 C 
ATOM      2  O   UNL     1       6.971   0.468   0.845  0.00  0.00    -0.269 OA
ATOM      3  N   UNL     1       5.880  -0.997  -0.420  0.00  0.00    -0.281 N 
ATOM      4  H   UNL     1       5.909  -1.801  -0.961  0.00  0.00    +0.155 HD
ENDROOT
BRANCH   1  12
ATOM      5  C   UNL     1      12.670  -2.991   0.965  0.00  0.00    +0.003 A 
ATOM      6  C   UNL     1      11.764  -2.006   1.201  0.00  0.00    +0.010 A 
ATOM      7  C   UNL     1      10.454  -2.082   0.664  0.00  0.00    +0.010 A 
ATOM      8  C   UNL     1      10.158  -3.226  -0.115  0.00  0.00    +0.052 A 
ATOM      9  C   UNL     1      11.087  -4.218  -0.345  0.00  0.00    +0.140 A 
ATOM     10  C   UNL     1      12.352  -4.104   0.196  0.00  0.00    +0.034 A 
ATOM     11  S   UNL     1       8.470  -2.971  -0.600  0.00  0.00    -0.080 S 
ATOM     12  C   UNL     1       8.200  -1.406   0.213  0.00  0.00    +0.094 A 
ATOM     13  C   UNL     1       9.401  -1.158   0.802  0.00  0.00    +0.068 A 
ATOM     14 CL   UNL     1       9.633   0.293   1.727  0.00  0.00    -0.082 Cl
BRANCH   9  15
ATOM     15  N   UNL     1      10.731  -5.396  -1.167  0.00  0.00    +0.058 N 
ATOM     16  O   UNL     1      11.556  -6.270  -1.367  0.00  0.00    -0.126 OA
ATOM     17  O   UNL     1       9.614  -5.492  -1.642  0.00  0.00    -0.126 OA
ENDBRANCH   9  15
ENDBRANCH   1  12
BRANCH   3  18
ATOM     18  C   UNL     1       4.691  -0.263  -0.320  0.00  0.00    +0.034 A 
ATOM     19  C   UNL     1       4.736   1.122  -0.227  0.00  0.00    +0.025 A 
ATOM     20  C   UNL     1       3.564   1.845  -0.129  0.00  0.00    +0.025 A 
ATOM     21  C   UNL     1       2.341   1.187  -0.124  0.00  0.00    +0.034 A 
ATOM     22  C   UNL     1       2.296  -0.198  -0.211  0.00  0.00    +0.025 A 
ATOM     23  C   UNL     1       3.468  -0.921  -0.314  0.00  0.00    +0.025 A 
BRANCH  21  24
ATOM     24  N   UNL     1       1.152   1.920  -0.024  0.00  0.00    -0.281 N 
ATOM     25  C   UNL     1       1.056   3.130  -0.611  0.00  0.00    +0.255 C 
ATOM     26  O   UNL     1       2.027   3.622  -1.155  0.00  0.00    -0.269 OA
ATOM     27  H   UNL     1       0.398   1.558   0.466  0.00  0.00    +0.155 HD
BRANCH  25  28
ATOM     28  C   UNL     1      -0.217   3.856  -0.589  0.00  0.00    +0.074 A 
ATOM     29  C   UNL     1      -0.524   5.098  -1.121  0.00  0.00    +0.021 A 
ATOM     30  C   UNL     1      -1.810   5.548  -0.957  0.00  0.00    +0.008 A 
ATOM     31  C   UNL     1      -2.706   4.771  -0.293  0.00  0.00    +0.046 A 
ATOM     32  S   UNL     1      -1.778   3.367   0.124  0.00  0.00    -0.092 S 
ENDBRANCH  25  28
ENDBRANCH  21  24
ENDBRANCH   3  18
TORSDOF 5
