REMARK  Name = ZINC40019508
REMARK  21 active torsions:
REMARK  status: ('A' for Active; 'I' for Inactive)
REMARK    1  A    between atoms: C_1  and  C_2
REMARK    2  A    between atoms: C_2  and  C_3
REMARK    3  A    between atoms: C_3  and  C_4
REMARK    4  A    between atoms: C_4  and  N_5
REMARK    5  A    between atoms: N_5  and  C_6
REMARK    6  A    between atoms: N_5  and  C_10
REMARK    7  A    between atoms: C_6  and  C_7
REMARK    8  A    between atoms: C_7  and  C_8
REMARK    9  A    between atoms: C_8  and  C_9
REMARK   10  A    between atoms: C_10  and  C_11
REMARK   11  A    between atoms: C_11  and  C_12
REMARK   12  A    between atoms: C_12  and  N_13
REMARK   13  A    between atoms: C_14  and  C_33
REMARK   14  A    between atoms: C_16  and  C_21
REMARK   15  A    between atoms: C_21  and  C_23
REMARK   16  A    between atoms: C_26  and  O_30
REMARK   17  A    between atoms: C_27  and  C_29
REMARK   18  A    between atoms: O_30  and  C_31
REMARK   19  A    between atoms: C_31  and  C_32
REMARK   20  A    between atoms: C_38  and  O_39
REMARK   21  A    between atoms: O_39  and  C_40
REMARK                            x       y       z     vdW  Elec       q    Type
REMARK                         _______ _______ _______ _____ _____    ______ ____
ROOT
ATOM      1  N   UNL     1      -5.534  -5.148   0.927  0.00  0.00    -0.283 N 
ATOM      2  C   UNL     1      -6.520  -5.164   2.013  0.00  0.00    +0.148 C 
ATOM      3  C   UNL     1      -7.619  -6.102   1.571  0.00  0.00    +0.076 C 
ATOM      4  C   UNL     1      -7.269  -6.563   0.347  0.00  0.00    +0.249 C 
ATOM      5  C   UNL     1      -5.978  -5.963  -0.047  0.00  0.00    +0.288 C 
ATOM      6  O   UNL     1      -5.401  -6.175  -1.095  0.00  0.00    -0.266 OA
ATOM      7  O   UNL     1      -7.990  -7.433  -0.398  0.00  0.00    -0.282 OA
ENDROOT
BRANCH   2   8
ATOM      8  C   UNL     1      -7.075  -3.780   2.230  0.00  0.00    +0.019 A 
ATOM      9  C   UNL     1      -7.161  -3.261   3.507  0.00  0.00    +0.009 A 
ATOM     10  C   UNL     1      -7.671  -1.992   3.707  0.00  0.00    +0.001 A 
ATOM     11  C   UNL     1      -8.095  -1.237   2.628  0.00  0.00    +0.004 A 
ATOM     12  C   UNL     1      -8.010  -1.751   1.349  0.00  0.00    +0.046 A 
ATOM     13  C   UNL     1      -7.494  -3.023   1.146  0.00  0.00    +0.125 A 
BRANCH  13  14
ATOM     14  O   UNL     1      -7.405  -3.528  -0.113  0.00  0.00    -0.495 OA
ATOM     15  C   UNL     1      -7.970  -2.746  -1.167  0.00  0.00    +0.277 C 
ENDBRANCH  13  14
ENDBRANCH   2   8
BRANCH   3  16
ATOM     16  C   UNL     1      -8.830  -6.446   2.322  0.00  0.00    +0.195 C 
ATOM     17  O   UNL     1      -9.922  -6.104   1.906  0.00  0.00    -0.287 OA
BRANCH  16  18
ATOM     18  C   UNL     1      -8.726  -7.208   3.582  0.00  0.00    +0.023 A 
ATOM     19  C   UNL     1      -7.476  -7.633   4.043  0.00  0.00    +0.015 A 
ATOM     20  C   UNL     1      -7.383  -8.343   5.218  0.00  0.00    +0.046 A 
ATOM     21  C   UNL     1      -8.530  -8.637   5.947  0.00  0.00    +0.123 A 
ATOM     22  C   UNL     1      -9.775  -8.217   5.493  0.00  0.00    -0.008 A 
ATOM     23  C   UNL     1      -9.876  -7.501   4.321  0.00  0.00    +0.018 A 
ATOM     24  C   UNL     1     -11.015  -8.539   6.287  0.00  0.00    +0.047 C 
BRANCH  21  25
ATOM     25  O   UNL     1      -8.435  -9.338   7.106  0.00  0.00    -0.492 OA
BRANCH  25  26
ATOM     26  C   UNL     1      -7.119  -9.645   7.571  0.00  0.00    +0.225 C 
ATOM     27  C   UNL     1      -7.212 -10.515   8.826  0.00  0.00    +0.048 C 
ENDBRANCH  25  26
ENDBRANCH  21  25
ENDBRANCH  16  18
ENDBRANCH   3  16
BRANCH   1  28
ATOM     28  C   UNL     1      -4.288  -4.377   0.905  0.00  0.00    +0.107 C 
BRANCH  28  29
ATOM     29  C   UNL     1      -4.562  -2.983   0.336  0.00  0.00    +0.000 C 
BRANCH  29  30
ATOM     30  C   UNL     1      -3.242  -2.223   0.191  0.00  0.00    -0.077 C 
BRANCH  30  31
ATOM     31  N   UNL     1      -3.488  -0.935  -0.470  0.00  0.00    +0.380 N 
ATOM     32  H   UNL     1      -3.980  -1.090  -1.337  0.00  0.00    -0.082 HD
BRANCH  31  33
ATOM     33  C   UNL     1      -2.206  -0.273  -0.747  0.00  0.00    -0.079 C 
BRANCH  33  34
ATOM     34  C   UNL     1      -1.424  -1.088  -1.778  0.00  0.00    -0.019 C 
BRANCH  34  35
ATOM     35  C   UNL     1      -0.062  -0.433  -2.018  0.00  0.00    -0.005 C 
ATOM     36  C   UNL     1       0.721  -1.248  -3.050  0.00  0.00    +0.004 C 
ENDBRANCH  34  35
ENDBRANCH  33  34
ENDBRANCH  31  33
BRANCH  31  37
ATOM     37  C   UNL     1      -4.301  -0.082   0.408  0.00  0.00    -0.079 C 
BRANCH  37  38
ATOM     38  C   UNL     1      -4.662   1.210  -0.329  0.00  0.00    -0.019 C 
BRANCH  38  40
ATOM     39  C   UNL     1      -5.870   3.390  -0.150  0.00  0.00    +0.004 C 
ATOM     40  C   UNL     1      -5.508   2.098   0.586  0.00  0.00    -0.005 C 
ENDBRANCH  38  40
ENDBRANCH  37  38
ENDBRANCH  31  37
ENDBRANCH  30  31
ENDBRANCH  29  30
ENDBRANCH  28  29
ENDBRANCH   1  28
TORSDOF 16
