REMARK  Name = ZINC64765165
REMARK  6 active torsions:
REMARK  status: ('A' for Active; 'I' for Inactive)
REMARK    1  A    between atoms: C_1  and  C_2
REMARK    2  A    between atoms: C_2  and  N_3
REMARK    3  A    between atoms: N_3  and  C_4
REMARK    4  A    between atoms: C_4  and  C_5
REMARK    5  A    between atoms: N_8  and  C_9
REMARK    6  A    between atoms: C_9  and  C_10
REMARK                            x       y       z     vdW  Elec       q    Type
REMARK                         _______ _______ _______ _____ _____    ______ ____
ROOT
ATOM      1  C   UNL     1       4.168  -0.680  -0.049  0.00  0.00    +0.141 C 
ENDROOT
BRANCH   1   2
ATOM      2  C   UNL     1       4.680  -0.339  -1.424  0.00  0.00    -0.026 A 
ATOM      3  C   UNL     1       4.722  -1.312  -2.406  0.00  0.00    +0.054 A 
ATOM      4  C   UNL     1       5.193  -1.001  -3.671  0.00  0.00    +0.168 A 
ATOM      5  C   UNL     1       5.624   0.293  -3.951  0.00  0.00    +0.180 A 
ATOM      6  C   UNL     1       5.580   1.263  -2.963  0.00  0.00    +0.064 A 
ATOM      7  C   UNL     1       5.103   0.947  -1.703  0.00  0.00    +0.024 A 
ATOM      8 BR   UNL     1       6.164   3.022  -3.338  0.00  0.00    -0.046 Br
ATOM      9  O   UNL     1       6.036   0.344  -5.252  0.00  0.00    -0.451 OA
ATOM     10  C   UNL     1       6.236  -1.027  -5.645  0.00  0.00    +0.466 C 
ATOM     11  O   UNL     1       5.335  -1.762  -4.796  0.00  0.00    -0.453 OA
ENDBRANCH   1   2
BRANCH   1  15
ATOM     12  N   UNL     1       0.711  -0.489   1.189  0.00  0.00    -0.286 N 
ATOM     13  C   UNL     1       2.042  -0.696   1.142  0.00  0.00    +0.302 C 
ATOM     14  O   UNL     1       2.630  -1.099   2.127  0.00  0.00    -0.253 OA
ATOM     15  N   UNL     1       2.721  -0.456   0.003  0.00  0.00    -0.295 N 
ATOM     16  H   UNL     1       2.252  -0.134  -0.783  0.00  0.00    +0.151 HD
BRANCH  12  18
ATOM     17  C   UNL     1      -0.019   1.526   0.010  0.00  0.00    +0.024 C 
ATOM     18  C   UNL     1       0.002  -0.004   0.002  0.00  0.00    +0.106 C 
ENDBRANCH  12  18
BRANCH  12  19
ATOM     19  C   UNL     1      -0.028  -0.750   2.427  0.00  0.00    +0.106 C 
ATOM     20  C   UNL     1      -0.511  -2.202   2.437  0.00  0.00    +0.024 C 
ENDBRANCH  12  19
ENDBRANCH   1  15
TORSDOF 4
