REMARK  Name = ZINC53099734
REMARK  3 active torsions:
REMARK  status: ('A' for Active; 'I' for Inactive)
REMARK    1  A    between atoms: C_1  and  C_2
REMARK    2  A    between atoms: N_13  and  C_14
REMARK    3  A    between atoms: C_17  and  C_21
REMARK                            x       y       z     vdW  Elec       q    Type
REMARK                         _______ _______ _______ _____ _____    ______ ____
ROOT
ATOM      1  C   UNL     1      -0.019   1.526   0.010  0.00  0.00    +0.007 C 
ATOM      2  C   UNL     1       0.002  -0.004   0.002  0.00  0.00    -0.012 C 
ATOM      3  C   UNL     1      -1.433  -0.533   0.013  0.00  0.00    +0.003 C 
ATOM      4  C   UNL     1      -1.413  -2.063   0.007  0.00  0.00    +0.002 C 
ATOM      5  C   UNL     1      -0.672  -2.569   1.245  0.00  0.00    +0.026 C 
ATOM      6  C   UNL     1       0.769  -2.045   1.224  0.00  0.00    +0.043 C 
ATOM      7  C   UNL     1       0.742  -0.511   1.241  0.00  0.00    +0.029 C 
ATOM      8  C   UNL     1       1.425  -2.498  -0.105  0.00  0.00    +0.102 C 
ATOM      9  S   UNL     1       3.057  -3.078   0.521  0.00  0.00    -0.088 S 
ATOM     10  C   UNL     1       2.590  -3.327   2.228  0.00  0.00    +0.155 C 
ATOM     11  N   UNL     1       1.484  -2.533   2.392  0.00  0.00    -0.317 N 
ATOM     12  N   UNL     1       3.173  -4.096   3.122  0.00  0.00    -0.226 NA
ATOM     13  H   UNL     1       1.180  -2.298   3.283  0.00  0.00    +0.149 HD
ENDROOT
BRANCH  12  14
ATOM     14  C   UNL     1       4.276  -4.824   2.781  0.00  0.00    +0.068 A 
ATOM     15  C   UNL     1       4.301  -5.531   1.573  0.00  0.00    +0.029 A 
ATOM     16  C   UNL     1       5.401  -6.260   1.229  0.00  0.00    +0.022 A 
ATOM     17  C   UNL     1       6.510  -6.304   2.082  0.00  0.00    +0.070 A 
ATOM     18  C   UNL     1       6.492  -5.598   3.291  0.00  0.00    +0.060 A 
ATOM     19  C   UNL     1       5.383  -4.858   3.635  0.00  0.00    +0.049 A 
ATOM     20 CL   UNL     1       7.865  -5.651   4.351  0.00  0.00    -0.082 Cl
BRANCH  17  21
ATOM     21  C   UNL     1       7.664  -7.071   1.718  0.00  0.00    +0.101 C 
ATOM     22  N   UNL     1       8.579  -7.679   1.429  0.00  0.00    -0.191 NA
ENDBRANCH  17  21
ENDBRANCH  12  14
TORSDOF 2
