REMARK  Name = ZINC44737152
REMARK  6 active torsions:
REMARK  status: ('A' for Active; 'I' for Inactive)
REMARK    1  A    between atoms: C_1  and  C_2
REMARK    2  A    between atoms: C_9  and  C_11
REMARK    3  A    between atoms: C_11  and  C_13
REMARK    4  A    between atoms: C_11  and  N_14
REMARK    5  A    between atoms: C_15  and  C_17
REMARK    6  A    between atoms: C_28  and  C_30
REMARK                            x       y       z     vdW  Elec       q    Type
REMARK                         _______ _______ _______ _____ _____    ______ ____
ROOT
ATOM      1  C   UNL     1       2.053  -9.042   0.389  0.00  0.00    +0.100 C 
ATOM      2  C   UNL     1       3.134  -8.144  -0.251  0.00  0.00    +0.121 C 
ATOM      3  N   UNL     1       4.354  -8.397   0.551  0.00  0.00    -0.296 N 
ATOM      4  C   UNL     1       4.322  -9.854   0.822  0.00  0.00    +0.115 C 
ATOM      5  C   UNL     1       2.836 -10.166   1.089  0.00  0.00    -0.004 C 
ATOM      6  C   UNL     1       2.465 -11.520   0.493  0.00  0.00    -0.010 C 
ATOM      7  C   UNL     1       3.212 -12.626   1.244  0.00  0.00    -0.082 C 
ATOM      8  N   UNL     1       2.855 -12.581   2.667  0.00  0.00    +0.379 N 
ATOM      9  C   UNL     1       3.300 -11.311   3.255  0.00  0.00    -0.082 C 
ATOM     10  C   UNL     1       2.556 -10.150   2.589  0.00  0.00    -0.010 C 
ATOM     11  C   UNL     1       5.284  -7.504   0.945  0.00  0.00    +0.247 C 
ATOM     12  O   UNL     1       5.107  -6.317   0.751  0.00  0.00    -0.270 OA
ATOM     13  H   UNL     1       1.854 -12.662   2.764  0.00  0.00    -0.086 HD
ATOM     14  H   UNL     1       3.301 -13.347   3.149  0.00  0.00    -0.086 HD
ENDROOT
BRANCH  11  15
ATOM     15  C   UNL     1       6.518  -7.968   1.614  0.00  0.00    +0.040 A 
ATOM     16  C   UNL     1       6.943  -9.289   1.462  0.00  0.00    +0.033 A 
ATOM     17  C   UNL     1       8.097  -9.716   2.089  0.00  0.00    +0.043 A 
ATOM     18  C   UNL     1       8.832  -8.838   2.866  0.00  0.00    +0.040 A 
ATOM     19  C   UNL     1       8.415  -7.526   3.021  0.00  0.00    +0.043 A 
ATOM     20  C   UNL     1       7.267  -7.085   2.394  0.00  0.00    +0.033 A 
ATOM     21 CL   UNL     1       9.343  -6.432   3.999  0.00  0.00    -0.083 Cl
ATOM     22 CL   UNL     1       8.627 -11.359   1.901  0.00  0.00    -0.083 Cl
ENDBRANCH  11  15
BRANCH   1  24
ATOM     23  N   UNL     1      -0.001  -8.655   1.713  0.00  0.00    -0.305 N 
ATOM     24  C   UNL     1       1.248  -8.259   1.394  0.00  0.00    +0.219 C 
ATOM     25  O   UNL     1       1.723  -7.273   1.916  0.00  0.00    -0.275 OA
ATOM     26  H   UNL     1      -0.381  -9.444   1.296  0.00  0.00    +0.149 HD
BRANCH  23  27
ATOM     27  C   UNL     1      -0.783  -7.894   2.690  0.00  0.00    +0.136 C 
ATOM     28  C   UNL     1      -0.431  -8.363   4.103  0.00  0.00    +0.036 C 
BRANCH  27  37
ATOM     29  C   UNL     1      -8.196  -7.800   2.043  0.00  0.00    +0.044 C 
ATOM     30  C   UNL     1      -6.754  -8.229   1.958  0.00  0.00    -0.048 A 
ATOM     31  C   UNL     1      -6.429  -9.441   1.364  0.00  0.00    +0.005 A 
ATOM     32  C   UNL     1      -5.128  -9.847   1.277  0.00  0.00    +0.030 A 
ATOM     33  C   UNL     1      -4.110  -9.038   1.789  0.00  0.00    +0.089 A 
ATOM     34  C   UNL     1      -4.439  -7.811   2.390  0.00  0.00    +0.067 A 
ATOM     35  C   UNL     1      -5.766  -7.412   2.465  0.00  0.00    +0.031 A 
ATOM     36  N   UNL     1      -3.242  -7.251   2.790  0.00  0.00    -0.340 N 
ATOM     37  C   UNL     1      -2.252  -8.115   2.438  0.00  0.00    +0.128 A 
ATOM     38  N   UNL     1      -2.759  -9.161   1.853  0.00  0.00    -0.231 NA
ATOM     39  H   UNL     1      -3.128  -6.398   3.239  0.00  0.00    +0.167 HD
ENDBRANCH  27  37
ENDBRANCH  23  27
ENDBRANCH   1  24
TORSDOF 4
