REMARK  Name = ZINC10244637
REMARK  11 active torsions:
REMARK  status: ('A' for Active; 'I' for Inactive)
REMARK    1  A    between atoms: C_1  and  C_2
REMARK    2  A    between atoms: C_2  and  O_3
REMARK    3  A    between atoms: O_3  and  C_4
REMARK    4  A    between atoms: C_4  and  C_6
REMARK    5  A    between atoms: C_6  and  C_8
REMARK    6  A    between atoms: C_6  and  S_11
REMARK    7  A    between atoms: C_8  and  C_10
REMARK    8  A    between atoms: S_11  and  C_12
REMARK    9  A    between atoms: N_26  and  C_27
REMARK   10  A    between atoms: C_31  and  C_34
REMARK   11  A    between atoms: C_32  and  C_33
REMARK                            x       y       z     vdW  Elec       q    Type
REMARK                         _______ _______ _______ _____ _____    ______ ____
ROOT
ATOM      1  C   UNL     1       3.012   0.773   1.162  0.00  0.00    +0.178 A 
ATOM      2  N   UNL     1       4.157   0.129   1.187  0.00  0.00    -0.221 NA
ATOM      3  C   UNL     1       4.782  -0.218   0.051  0.00  0.00    +0.104 A 
ATOM      4  C   UNL     1       6.041  -0.919  -0.241  0.00  0.00    +0.026 A 
ATOM      5  C   UNL     1       7.040  -1.475   0.559  0.00  0.00    +0.012 A 
ATOM      6  C   UNL     1       8.121  -2.076  -0.021  0.00  0.00    +0.001 A 
ATOM      7  C   UNL     1       8.234  -2.139  -1.403  0.00  0.00    +0.002 A 
ATOM      8  C   UNL     1       7.260  -1.597  -2.211  0.00  0.00    +0.026 A 
ATOM      9  C   UNL     1       6.149  -0.979  -1.641  0.00  0.00    +0.049 A 
ATOM     10  N   UNL     1       5.044  -0.363  -2.188  0.00  0.00    -0.349 N 
ATOM     11  H   UNL     1       4.873  -0.268  -3.138  0.00  0.00    +0.166 HD
ATOM     12  C   UNL     1       4.211   0.100  -1.181  0.00  0.00    +0.132 A 
ATOM     13  C   UNL     1       2.979   0.785  -1.194  0.00  0.00    +0.283 A 
ATOM     14  O   UNL     1       2.444   1.084  -2.249  0.00  0.00    -0.265 OA
ATOM     15  N   UNL     1       2.404   1.106  -0.015  0.00  0.00    -0.254 N 
ENDROOT
BRANCH  15  16
ATOM     16  C   UNL     1       1.180   1.787   0.000  0.00  0.00    +0.055 A 
ATOM     17  C   UNL     1      -0.013   1.076   0.008  0.00  0.00    +0.026 A 
ATOM     18  C   UNL     1      -1.217   1.751   0.017  0.00  0.00    +0.002 A 
ATOM     19  C   UNL     1      -1.237   3.134   0.031  0.00  0.00    +0.004 A 
ATOM     20  C   UNL     1      -0.051   3.845   0.023  0.00  0.00    -0.046 A 
ATOM     21  C   UNL     1       1.157   3.175   0.008  0.00  0.00    -0.024 A 
ATOM     22  C   UNL     1       2.449   3.951   0.000  0.00  0.00    +0.046 C 
ATOM     23  C   UNL     1      -0.077   5.351   0.032  0.00  0.00    +0.044 C 
ENDBRANCH  15  16
BRANCH   1  24
ATOM     24  S   UNL     1       2.238   1.212   2.683  0.00  0.00    -0.065 S 
BRANCH  24  25
ATOM     25  C   UNL     1       3.447   0.545   3.854  0.00  0.00    +0.228 C 
BRANCH  25  26
ATOM     26  C   UNL     1       4.747   1.294   3.715  0.00  0.00    +0.154 C 
ATOM     27  O   UNL     1       5.796   0.715   3.862  0.00  0.00    -0.296 OA
ATOM     28  C   UNL     1       4.738   2.766   3.393  0.00  0.00    +0.088 C 
ENDBRANCH  25  26
BRANCH  25  29
ATOM     29  C   UNL     1       2.924   0.702   5.259  0.00  0.00    +0.328 C 
ATOM     30  O   UNL     1       2.054   1.506   5.494  0.00  0.00    -0.249 OA
BRANCH  29  31
ATOM     31  O   UNL     1       3.426  -0.053   6.249  0.00  0.00    -0.464 OA
BRANCH  31  33
ATOM     32  C   UNL     1       3.565  -0.790   8.566  0.00  0.00    +0.048 C 
ATOM     33  C   UNL     1       2.875   0.152   7.577  0.00  0.00    +0.229 C 
ENDBRANCH  31  33
ENDBRANCH  29  31
ENDBRANCH  25  29
ENDBRANCH  24  25
ENDBRANCH   1  24
TORSDOF 7
