REMARK  Name = ZINC13507981
REMARK  11 active torsions:
REMARK  status: ('A' for Active; 'I' for Inactive)
REMARK    1  A    between atoms: C_1  and  C_2
REMARK    2  A    between atoms: C_2  and  C_3
REMARK    3  A    between atoms: C_6  and  C_9
REMARK    4  A    between atoms: C_9  and  C_11
REMARK    5  A    between atoms: C_9  and  N_20
REMARK    6  A    between atoms: N_13  and  C_14
REMARK    7  A    between atoms: N_20  and  C_21
REMARK    8  A    between atoms: C_21  and  C_22
REMARK    9  A    between atoms: C_27  and  C_29
REMARK   10  A    between atoms: C_29  and  N_30
REMARK   11  A    between atoms: C_31  and  C_33
REMARK                            x       y       z     vdW  Elec       q    Type
REMARK                         _______ _______ _______ _____ _____    ______ ____
ROOT
ATOM      1  C   UNL     1       1.337  -0.614  -0.136  0.00  0.00    +0.193 C 
ENDROOT
BRANCH   1   5
ATOM      2  C   UNL     1       2.131  -2.968   3.339  0.00  0.00    -0.048 A 
ATOM      3  C   UNL     1       3.162  -2.296   2.710  0.00  0.00    +0.004 A 
ATOM      4  C   UNL     1       2.905  -1.534   1.585  0.00  0.00    +0.006 A 
ATOM      5  C   UNL     1       1.617  -1.444   1.090  0.00  0.00    -0.018 A 
ATOM      6  C   UNL     1       0.586  -2.112   1.723  0.00  0.00    +0.006 A 
ATOM      7  C   UNL     1       0.843  -2.878   2.844  0.00  0.00    +0.004 A 
BRANCH   2   9
ATOM      8  C   UNL     1       2.264  -2.927   5.815  0.00  0.00    +0.009 C 
ATOM      9  C   UNL     1       2.411  -3.797   4.566  0.00  0.00    +0.032 C 
ENDBRANCH   2   9
ENDBRANCH   1   5
BRANCH   1  10
ATOM     10  C   UNL     1       1.359  -1.497  -1.357  0.00  0.00    +0.238 C 
ATOM     11  O   UNL     1       0.405  -1.519  -2.106  0.00  0.00    -0.273 OA
ATOM     12  N   UNL     1       2.437  -2.263  -1.616  0.00  0.00    -0.311 N 
ATOM     13  H   UNL     1       3.199  -2.246  -1.016  0.00  0.00    +0.149 HD
BRANCH  12  14
ATOM     14  C   UNL     1       2.458  -3.122  -2.803  0.00  0.00    +0.073 C 
ATOM     15  C   UNL     1       1.773  -4.452  -2.482  0.00  0.00    +0.022 C 
ATOM     16  C   UNL     1       1.795  -5.348  -3.721  0.00  0.00    +0.002 C 
ATOM     17  C   UNL     1       3.244  -5.608  -4.138  0.00  0.00    +0.000 C 
ATOM     18  C   UNL     1       3.929  -4.278  -4.458  0.00  0.00    +0.002 C 
ATOM     19  C   UNL     1       3.907  -3.382  -3.219  0.00  0.00    +0.022 C 
ENDBRANCH  12  14
ENDBRANCH   1  10
BRANCH   1  20
ATOM     20  N   UNL     1       0.019   0.013  -0.010  0.00  0.00    -0.277 N 
ATOM     21  C   UNL     1      -0.228   0.864   1.006  0.00  0.00    +0.234 C 
ATOM     22  O   UNL     1       0.641   1.110   1.815  0.00  0.00    -0.274 OA
BRANCH  20  23
ATOM     23  C   UNL     1      -1.030  -0.284  -0.989  0.00  0.00    +0.183 C 
BRANCH  23  24
ATOM     24  C   UNL     1      -0.872   0.620  -2.184  0.00  0.00    +0.122 A 
ATOM     25  C   UNL     1      -0.224   0.312  -3.323  0.00  0.00    +0.046 A 
ATOM     26  C   UNL     1      -0.322   1.441  -4.168  0.00  0.00    +0.041 A 
ATOM     27  C   UNL     1      -1.024   2.371  -3.495  0.00  0.00    +0.195 A 
ATOM     28  O   UNL     1      -1.359   1.866  -2.297  0.00  0.00    -0.466 OA
ENDBRANCH  23  24
ENDBRANCH  20  23
BRANCH  21  29
ATOM     29  C   UNL     1      -1.581   1.514   1.131  0.00  0.00    +0.200 C 
BRANCH  29  30
ATOM     30  N   UNL     1      -1.596   2.388   2.308  0.00  0.00    -0.300 N 
ATOM     31  C   UNL     1      -2.711   3.078   2.621  0.00  0.00    +0.280 C 
ATOM     32  O   UNL     1      -3.705   2.975   1.926  0.00  0.00    -0.267 OA
ATOM     33  H   UNL     1      -0.804   2.470   2.861  0.00  0.00    +0.150 HD
BRANCH  31  34
ATOM     34  C   UNL     1      -2.726   3.952   3.798  0.00  0.00    +0.189 A 
ATOM     35  C   UNL     1      -3.782   4.703   4.226  0.00  0.00    +0.054 A 
ATOM     36  C   UNL     1      -3.356   5.378   5.381  0.00  0.00    +0.042 A 
ATOM     37  C   UNL     1      -2.074   5.014   5.604  0.00  0.00    +0.196 A 
ATOM     38  O   UNL     1      -1.699   4.151   4.651  0.00  0.00    -0.458 OA
ENDBRANCH  31  34
ENDBRANCH  29  30
ENDBRANCH  21  29
ENDBRANCH   1  20
TORSDOF 10
