REMARK  Name = ZINC61813271
REMARK  6 active torsions:
REMARK  status: ('A' for Active; 'I' for Inactive)
REMARK    1  A    between atoms: C_1  and  O_2
REMARK    2  A    between atoms: O_2  and  C_3
REMARK    3  A    between atoms: C_8  and  N_10
REMARK    4  A    between atoms: N_10  and  C_11
REMARK    5  A    between atoms: C_15  and  C_17
REMARK    6  A    between atoms: C_17  and  N_19
REMARK                            x       y       z     vdW  Elec       q    Type
REMARK                         _______ _______ _______ _____ _____    ______ ____
ROOT
ATOM      1  C   UNL     1      -1.455  -2.853   3.183  0.00  0.00    +0.031 A 
ATOM      2  C   UNL     1      -1.999  -3.736   2.249  0.00  0.00    +0.040 A 
ATOM      3  C   UNL     1      -3.006  -4.597   2.641  0.00  0.00    +0.085 A 
ATOM      4  N   UNL     1      -3.457  -4.596   3.878  0.00  0.00    -0.359 N 
ATOM      5  C   UNL     1      -2.969  -3.773   4.801  0.00  0.00    +0.069 A 
ATOM      6  C   UNL     1      -1.949  -2.880   4.486  0.00  0.00    +0.051 A 
ATOM      7  H   UNL     1      -4.165  -5.212   4.123  0.00  0.00    +0.165 HD
ENDROOT
BRANCH   1   8
ATOM      8  N   UNL     1      -0.439  -1.972   2.823  0.00  0.00    -0.338 N 
ATOM      9  H   UNL     1      -0.067  -1.366   3.483  0.00  0.00    +0.146 HD
BRANCH   8  14
ATOM     10  C   UNL     1       0.673  -0.582   1.123  0.00  0.00    +0.138 C 
ATOM     11  C   UNL     1       2.159  -0.824   0.783  0.00  0.00    +0.033 C 
ATOM     12  C   UNL     1       2.498  -2.159   1.491  0.00  0.00    +0.004 C 
ATOM     13  C   UNL     1       1.206  -2.989   1.293  0.00  0.00    +0.025 C 
ATOM     14  C   UNL     1       0.067  -1.959   1.448  0.00  0.00    +0.099 C 
BRANCH  10  16
ATOM     15  C   UNL     1      -0.017   1.425   0.010  0.00  0.00    +0.194 C 
ATOM     16  O   UNL     1       0.002  -0.004   0.002  0.00  0.00    -0.378 OA
ENDBRANCH  10  16
ENDBRANCH   8  14
ENDBRANCH   1   8
BRANCH   5  17
ATOM     17  C   UNL     1      -3.511  -3.811   6.176  0.00  0.00    +0.093 C 
ATOM     18  S   UNL     1      -2.477  -3.532   7.512  0.00  0.00    -0.034 S 
BRANCH  17  19
ATOM     19  N   UNL     1      -4.819  -4.064   6.378  0.00  0.00    -0.351 N 
ATOM     20  H   UNL     1      -5.405  -4.221   5.622  0.00  0.00    +0.143 HD
ATOM     21  H   UNL     1      -5.175  -4.088   7.281  0.00  0.00    +0.143 HD
ENDBRANCH  17  19
ENDBRANCH   5  17
TORSDOF 5
