REMARK  Name = ZINC13020325
REMARK  11 active torsions:
REMARK  status: ('A' for Active; 'I' for Inactive)
REMARK    1  A    between atoms: C_1  and  C_2
REMARK    2  A    between atoms: C_5  and  N_9
REMARK    3  A    between atoms: C_6  and  C_8
REMARK    4  A    between atoms: C_10  and  C_12
REMARK    5  A    between atoms: C_12  and  C_14
REMARK    6  A    between atoms: C_12  and  S_15
REMARK    7  A    between atoms: S_15  and  C_16
REMARK    8  A    between atoms: C_19  and  C_26
REMARK    9  A    between atoms: N_20  and  C_21
REMARK   10  A    between atoms: C_21  and  C_23
REMARK   11  A    between atoms: C_21  and  C_24
REMARK                            x       y       z     vdW  Elec       q    Type
REMARK                         _______ _______ _______ _____ _____    ______ ____
ROOT
ATOM      1  S   UNL     1      -3.394  -2.698  -0.909  0.00  0.00    -0.073 S 
ENDROOT
BRANCH   1   2
ATOM      2  C   UNL     1      -5.046  -3.290  -1.064  0.00  0.00    +0.193 A 
ATOM      3  N   UNL     1      -6.140  -2.644  -0.730  0.00  0.00    -0.122 NA
ATOM      4  N   UNL     1      -7.173  -3.366  -0.976  0.00  0.00    -0.128 NA
ATOM      5  C   UNL     1      -6.803  -4.521  -1.483  0.00  0.00    +0.172 A 
ATOM      6  N   UNL     1      -5.428  -4.505  -1.560  0.00  0.00    -0.288 N 
BRANCH   5   7
ATOM      7  C   UNL     1      -7.690  -5.621  -1.896  0.00  0.00    +0.056 A 
ATOM      8  C   UNL     1      -9.045  -5.604  -2.112  0.00  0.00    +0.019 A 
ATOM      9  C   UNL     1      -9.667  -6.770  -2.498  0.00  0.00    +0.008 A 
ATOM     10  C   UNL     1      -8.925  -7.897  -2.653  0.00  0.00    +0.046 A 
ATOM     11  S   UNL     1      -7.282  -7.322  -2.255  0.00  0.00    -0.094 S 
ENDBRANCH   5   7
BRANCH   6  12
ATOM     12  C   UNL     1      -4.557  -5.569  -2.066  0.00  0.00    +0.201 C 
ATOM     13  C   UNL     1      -3.743  -5.042  -3.249  0.00  0.00    +0.043 C 
BRANCH  12  14
ATOM     14  C   UNL     1      -3.622  -6.015  -0.972  0.00  0.00    +0.378 C 
ATOM     15  O   UNL     1      -2.427  -5.922  -1.122  0.00  0.00    -0.244 OA
ATOM     16  O   UNL     1      -4.117  -6.517   0.171  0.00  0.00    -0.244 OA
ENDBRANCH  12  14
ENDBRANCH   6  12
ENDBRANCH   1   2
BRANCH   1  17
ATOM     17  C   UNL     1      -3.712  -1.062  -0.201  0.00  0.00    +0.137 C 
ATOM     18  C   UNL     1      -4.332  -1.219   1.188  0.00  0.00    +0.029 C 
BRANCH  17  20
ATOM     19  N   UNL     1      -2.428   1.041   0.019  0.00  0.00    -0.284 N 
ATOM     20  C   UNL     1      -2.415  -0.302  -0.090  0.00  0.00    +0.230 C 
ATOM     21  O   UNL     1      -1.359  -0.900  -0.098  0.00  0.00    -0.274 OA
ATOM     22  H   UNL     1      -3.271   1.512   0.106  0.00  0.00    +0.155 HD
BRANCH  19  27
ATOM     23  C   UNL     1       2.446   3.944  -0.044  0.00  0.00    +0.044 C 
ATOM     24  C   UNL     1       1.152   3.172  -0.025  0.00  0.00    -0.050 A 
ATOM     25  C   UNL     1       1.082   1.928  -0.626  0.00  0.00    +0.005 A 
ATOM     26  C   UNL     1      -0.102   1.218  -0.610  0.00  0.00    +0.024 A 
ATOM     27  C   UNL     1      -1.225   1.756   0.006  0.00  0.00    +0.036 A 
ATOM     28  C   UNL     1      -1.150   3.002   0.613  0.00  0.00    -0.029 A 
ATOM     29  C   UNL     1       0.038   3.708   0.594  0.00  0.00    +0.008 A 
ATOM     30  C   UNL     1      -2.364   3.587   1.288  0.00  0.00    +0.045 C 
ENDBRANCH  19  27
ENDBRANCH  17  20
ENDBRANCH   1  17
TORSDOF 7
