REMARK  Name = ZINC19965800
REMARK  3 active torsions:
REMARK  status: ('A' for Active; 'I' for Inactive)
REMARK    1  A    between atoms: C_1  and  C_2
REMARK    2  A    between atoms: C_8  and  N_10
REMARK    3  A    between atoms: C_11  and  C_13
REMARK                            x       y       z     vdW  Elec       q    Type
REMARK                         _______ _______ _______ _____ _____    ______ ____
ROOT
ATOM      1  N   UNL     1       2.311   5.330   0.007  0.00  0.00    -0.307 N 
ATOM      2  C   UNL     1       2.363   3.984  -0.000  0.00  0.00    +0.264 C 
ATOM      3  O   UNL     1       3.438   3.417  -0.013  0.00  0.00    -0.268 OA
ATOM      4  H   UNL     1       1.338   5.843   0.019  0.00  0.00    +0.149 HD
ENDROOT
BRANCH   2   5
ATOM      5  C   UNL     1       1.110   3.195   0.008  0.00  0.00    +0.145 A 
ATOM      6  C   UNL     1       1.170   1.802   0.001  0.00  0.00    +0.072 A 
ATOM      7  C   UNL     1      -0.013   1.076   0.008  0.00  0.00    +0.025 A 
ATOM      8  C   UNL     1      -1.212   1.768   0.017  0.00  0.00    +0.041 A 
ATOM      9  C   UNL     1      -1.197   3.155   0.029  0.00  0.00    +0.130 A 
ATOM     10  N   UNL     1      -0.061   3.819   0.022  0.00  0.00    -0.229 NA
ATOM     11 CL   UNL     1      -2.698   4.027   0.049  0.00  0.00    -0.062 Cl
ATOM     12 CL   UNL     1       2.703   0.987  -0.018  0.00  0.00    -0.081 Cl
ENDBRANCH   2   5
BRANCH   1  19
ATOM     13  C   UNL     1       2.807   7.314   2.059  0.00  0.00    +0.009 C 
ATOM     14  C   UNL     1       3.292   7.486   0.618  0.00  0.00    +0.006 C 
ATOM     15  C   UNL     1       2.222   8.218  -0.195  0.00  0.00    +0.005 C 
ATOM     16  C   UNL     1       2.707   8.391  -1.636  0.00  0.00    +0.000 C 
ATOM     17  C   UNL     1       2.966   7.016  -2.255  0.00  0.00    +0.002 C 
ATOM     18  C   UNL     1       4.035   6.284  -1.442  0.00  0.00    +0.022 C 
ATOM     19  C   UNL     1       3.551   6.111  -0.001  0.00  0.00    +0.076 C 
ENDBRANCH   1  19
TORSDOF 2
