REMARK  Name = ZINC36151083
REMARK  14 active torsions:
REMARK  status: ('A' for Active; 'I' for Inactive)
REMARK    1  A    between atoms: C_1  and  C_2
REMARK    2  A    between atoms: C_2  and  C_3
REMARK    3  A    between atoms: C_2  and  C_4
REMARK    4  A    between atoms: C_4  and  N_5
REMARK    5  A    between atoms: N_5  and  C_6
REMARK    6  A    between atoms: N_5  and  C_24
REMARK    7  A    between atoms: C_6  and  C_7
REMARK    8  A    between atoms: C_8  and  C_18
REMARK    9  A    between atoms: C_11  and  N_12
REMARK   10  A    between atoms: C_24  and  C_25
REMARK   11  A    between atoms: C_25  and  C_27
REMARK   12  A    between atoms: C_25  and  O_35
REMARK   13  A    between atoms: C_27  and  O_28
REMARK   14  A    between atoms: O_28  and  C_29
REMARK                            x       y       z     vdW  Elec       q    Type
REMARK                         _______ _______ _______ _____ _____    ______ ____
ROOT
ATOM      1  N   UNL     1      -0.338   0.732   1.926  0.00  0.00    +0.384 N 
ATOM      2  H   UNL     1      -0.678   1.675   2.035  0.00  0.00    -0.081 HD
ENDROOT
BRANCH   1   3
ATOM      3  C   UNL     1       0.354   0.607   0.636  0.00  0.00    -0.075 C 
BRANCH   3   5
ATOM      4  C   UNL     1      -0.863   2.570  -0.317  0.00  0.00    +0.005 C 
ATOM      5  C   UNL     1      -0.572   1.078  -0.487  0.00  0.00    -0.034 C 
ATOM      6  C   UNL     1       0.105   0.842  -1.839  0.00  0.00    +0.005 C 
ENDBRANCH   3   5
ENDBRANCH   1   3
BRANCH   1   7
ATOM      7  C   UNL     1       0.597   0.419   3.015  0.00  0.00    -0.035 C 
BRANCH   7   8
ATOM      8  C   UNL     1       1.726   1.418   3.010  0.00  0.00    +0.025 A 
ATOM      9  C   UNL     1       2.991   1.237   2.414  0.00  0.00    +0.117 A 
ATOM     10  N   UNL     1       3.696   2.326   2.621  0.00  0.00    -0.076 NA
ATOM     11  O   UNL     1       2.894   3.232   3.357  0.00  0.00    -0.339 OA
ATOM     12  C   UNL     1       1.701   2.653   3.574  0.00  0.00    +0.222 A 
BRANCH  12  13
ATOM     13  N   UNL     1       0.636   3.215   4.253  0.00  0.00    -0.299 N 
ATOM     14  C   UNL     1       0.548   3.119   5.717  0.00  0.00    +0.108 C 
ATOM     15  C   UNL     1       0.371   4.528   6.293  0.00  0.00    +0.019 C 
ATOM     16  C   UNL     1      -0.836   5.197   5.633  0.00  0.00    +0.003 C 
ATOM     17  C   UNL     1      -0.595   5.318   4.126  0.00  0.00    +0.019 C 
ATOM     18  C   UNL     1      -0.426   3.924   3.526  0.00  0.00    +0.108 C 
ENDBRANCH  12  13
BRANCH   9  19
ATOM     19  C   UNL     1       3.446   0.029   1.681  0.00  0.00    +0.004 A 
ATOM     20  C   UNL     1       3.172  -1.240   2.186  0.00  0.00    +0.010 A 
ATOM     21  C   UNL     1       3.597  -2.360   1.501  0.00  0.00    +0.001 A 
ATOM     22  C   UNL     1       4.295  -2.224   0.314  0.00  0.00    +0.000 A 
ATOM     23  C   UNL     1       4.570  -0.966  -0.192  0.00  0.00    +0.001 A 
ATOM     24  C   UNL     1       4.145   0.160   0.483  0.00  0.00    +0.010 A 
ENDBRANCH   9  19
ENDBRANCH   7   8
ENDBRANCH   1   7
BRANCH   1  25
ATOM     25  C   UNL     1      -1.468  -0.206   1.967  0.00  0.00    -0.043 C 
BRANCH  25  26
ATOM     26  C   UNL     1      -2.290   0.043   3.234  0.00  0.00    +0.135 C 
BRANCH  26  27
ATOM     27  O   UNL     1      -1.528  -0.344   4.379  0.00  0.00    -0.390 OA
ATOM     28  H   UNL     1      -1.271  -1.276   4.384  0.00  0.00    +0.210 HD
ENDBRANCH  26  27
BRANCH  26  29
ATOM     29  C   UNL     1      -3.578  -0.782   3.176  0.00  0.00    +0.258 C 
BRANCH  29  30
ATOM     30  O   UNL     1      -4.398  -0.463   4.301  0.00  0.00    -0.489 OA
BRANCH  30  31
ATOM     31  C   UNL     1      -5.588  -1.112   4.401  0.00  0.00    +0.121 A 
ATOM     32  C   UNL     1      -5.955  -2.042   3.439  0.00  0.00    +0.045 A 
ATOM     33  C   UNL     1      -7.164  -2.702   3.543  0.00  0.00    +0.004 A 
ATOM     34  C   UNL     1      -8.009  -2.435   4.605  0.00  0.00    +0.000 A 
ATOM     35  C   UNL     1      -7.646  -1.509   5.565  0.00  0.00    +0.004 A 
ATOM     36  C   UNL     1      -6.435  -0.851   5.468  0.00  0.00    +0.045 A 
ENDBRANCH  30  31
ENDBRANCH  29  30
ENDBRANCH  26  29
ENDBRANCH  25  26
ENDBRANCH   1  25
TORSDOF 12
