REMARK  Name = ZINC62609871
REMARK  3 active torsions:
REMARK  status: ('A' for Active; 'I' for Inactive)
REMARK    1  A    between atoms: C_3  and  C_9
REMARK    2  A    between atoms: C_10  and  C_15
REMARK    3  A    between atoms: C_13  and  N_14
REMARK                            x       y       z     vdW  Elec       q    Type
REMARK                         _______ _______ _______ _____ _____    ______ ____
ROOT
ATOM      1  C   UNL     1       3.658   2.167  -0.022  0.00  0.00    +0.073 A 
ATOM      2  C   UNL     1       4.397   2.624  -1.203  0.00  0.00    +0.130 A 
ATOM      3  N   UNL     1       5.467   3.253  -0.770  0.00  0.00    -0.075 NA
ATOM      4  O   UNL     1       5.468   3.230   0.643  0.00  0.00    -0.339 OA
ATOM      5  C   UNL     1       4.377   2.582   1.080  0.00  0.00    +0.224 A 
ENDROOT
BRANCH   1   8
ATOM      6  C   UNL     1      -0.017   1.381   0.010  0.00  0.00    +0.039 A 
ATOM      7  C   UNL     1       1.167   2.090   0.002  0.00  0.00    +0.013 A 
ATOM      8  C   UNL     1       2.384   1.410  -0.013  0.00  0.00    +0.008 A 
ATOM      9  C   UNL     1       2.399   0.015  -0.021  0.00  0.00    +0.052 A 
ATOM     10  C   UNL     1       1.208  -0.685  -0.013  0.00  0.00    +0.059 A 
ATOM     11  C   UNL     1       0.002  -0.004   0.002  0.00  0.00    +0.125 A 
ATOM     12  F   UNL     1      -1.160  -0.693   0.009  0.00  0.00    -0.205 F 
ATOM     13 CL   UNL     1       3.910  -0.840  -0.040  0.00  0.00    -0.083 Cl
ENDBRANCH   1   8
BRANCH   2  14
ATOM     14  C   UNL     1       4.011   2.419  -2.613  0.00  0.00    +0.043 A 
ATOM     15  C   UNL     1       4.193   3.249  -3.688  0.00  0.00    +0.019 A 
ATOM     16  C   UNL     1       3.745   2.840  -4.923  0.00  0.00    +0.023 A 
ATOM     17  C   UNL     1       3.138   1.629  -5.040  0.00  0.00    +0.056 A 
ATOM     18  S   UNL     1       3.193   1.020  -3.363  0.00  0.00    -0.080 S 
ATOM     19 BR   UNL     1       2.425   0.800  -6.583  0.00  0.00    -0.043 Br
ENDBRANCH   2  14
BRANCH   5  20
ATOM     20  N   UNL     1       4.036   2.366   2.400  0.00  0.00    -0.327 N 
ATOM     21  H   UNL     1       3.224   1.882   2.618  0.00  0.00    +0.145 HD
ATOM     22  H   UNL     1       4.608   2.698   3.109  0.00  0.00    +0.145 HD
ENDBRANCH   5  20
TORSDOF 3
