REMARK  Name = ZINC37443898
REMARK  6 active torsions:
REMARK  status: ('A' for Active; 'I' for Inactive)
REMARK    1  A    between atoms: C_1  and  C_2
REMARK    2  A    between atoms: C_8  and  N_10
REMARK    3  A    between atoms: C_11  and  C_13
REMARK    4  A    between atoms: C_13  and  C_37
REMARK    5  A    between atoms: N_26  and  C_27
REMARK    6  A    between atoms: C_27  and  C_28
REMARK                            x       y       z     vdW  Elec       q    Type
REMARK                         _______ _______ _______ _____ _____    ______ ____
ROOT
ATOM      1  C   UNL     1       0.070   0.817   4.635  0.00  0.00    +0.129 C 
ATOM      2  C   UNL     1       1.228   0.616   5.612  0.00  0.00    +0.159 C 
ATOM      3  N   UNL     1       1.282  -0.789   6.019  0.00  0.00    -0.317 N 
ATOM      4  C   UNL     1       2.323  -1.568   6.395  0.00  0.00    +0.069 A 
ATOM      5  C   UNL     1       3.692  -1.336   6.514  0.00  0.00    +0.028 A 
ATOM      6  C   UNL     1       4.473  -2.395   6.941  0.00  0.00    +0.002 A 
ATOM      7  C   UNL     1       3.933  -3.636   7.240  0.00  0.00    +0.002 A 
ATOM      8  C   UNL     1       2.592  -3.896   7.131  0.00  0.00    +0.030 A 
ATOM      9  C   UNL     1       1.770  -2.843   6.700  0.00  0.00    +0.090 A 
ATOM     10  N   UNL     1       0.453  -2.772   6.491  0.00  0.00    -0.223 NA
ATOM     11  C   UNL     1       0.144  -1.576   6.082  0.00  0.00    +0.198 A 
ATOM     12  C   UNL     1      -1.175  -1.017   5.695  0.00  0.00    +0.283 C 
ATOM     13  O   UNL     1      -2.211  -1.619   5.904  0.00  0.00    -0.267 OA
ATOM     14  N   UNL     1      -1.166   0.198   5.099  0.00  0.00    -0.275 N 
ATOM     15  C   UNL     1      -0.166   2.317   4.451  0.00  0.00    +0.043 C 
ENDROOT
BRANCH   1  17
ATOM     16  N   UNL     1       0.237  -1.094   3.072  0.00  0.00    -0.310 N 
ATOM     17  C   UNL     1       0.447   0.217   3.304  0.00  0.00    +0.238 C 
ATOM     18  O   UNL     1       0.938   0.914   2.442  0.00  0.00    -0.273 OA
ATOM     19  H   UNL     1      -0.223  -1.636   3.733  0.00  0.00    +0.149 HD
BRANCH  16  26
ATOM     20  C   UNL     1      -1.556  -2.711   1.472  0.00  0.00    +0.009 C 
ATOM     21  C   UNL     1      -0.058  -3.006   1.575  0.00  0.00    +0.006 C 
ATOM     22  C   UNL     1       0.428  -3.639   0.270  0.00  0.00    +0.005 C 
ATOM     23  C   UNL     1       1.926  -3.933   0.373  0.00  0.00    +0.000 C 
ATOM     24  C   UNL     1       2.686  -2.629   0.621  0.00  0.00    +0.002 C 
ATOM     25  C   UNL     1       2.200  -1.995   1.926  0.00  0.00    +0.022 C 
ATOM     26  C   UNL     1       0.702  -1.701   1.823  0.00  0.00    +0.076 C 
ENDBRANCH  16  26
ENDBRANCH   1  17
BRANCH  14  27
ATOM     27  C   UNL     1      -2.433   0.910   4.913  0.00  0.00    +0.144 C 
BRANCH  27  28
ATOM     28  C   UNL     1      -3.099   0.430   3.650  0.00  0.00    -0.026 A 
ATOM     29  C   UNL     1      -2.763   0.998   2.435  0.00  0.00    +0.009 A 
ATOM     30  C   UNL     1      -3.371   0.560   1.273  0.00  0.00    +0.050 A 
ATOM     31  C   UNL     1      -4.320  -0.448   1.323  0.00  0.00    +0.166 A 
ATOM     32  C   UNL     1      -4.658  -1.019   2.548  0.00  0.00    +0.167 A 
ATOM     33  C   UNL     1      -4.041  -0.580   3.707  0.00  0.00    +0.054 A 
ATOM     34  O   UNL     1      -5.606  -1.978   2.334  0.00  0.00    -0.453 OA
ATOM     35  C   UNL     1      -6.139  -1.707   1.024  0.00  0.00    +0.466 C 
ATOM     36  O   UNL     1      -5.054  -1.049   0.343  0.00  0.00    -0.453 OA
ENDBRANCH  27  28
ENDBRANCH  14  27
TORSDOF 4
