REMARK  Name = ZINC06546494
REMARK  13 active torsions:
REMARK  status: ('A' for Active; 'I' for Inactive)
REMARK    1  A    between atoms: C_1  and  C_2
REMARK    2  A    between atoms: C_2  and  O_3
REMARK    3  A    between atoms: O_3  and  C_4
REMARK    4  A    between atoms: C_4  and  C_6
REMARK    5  A    between atoms: C_6  and  N_7
REMARK    6  A    between atoms: C_8  and  C_10
REMARK    7  A    between atoms: C_10  and  N_11
REMARK    8  A    between atoms: N_11  and  C_12
REMARK    9  A    between atoms: C_14  and  C_19
REMARK   10  A    between atoms: C_16  and  C_18
REMARK   11  A    between atoms: C_20  and  C_22
REMARK   12  A    between atoms: C_23  and  N_30
REMARK   13  A    between atoms: C_24  and  C_27
REMARK                            x       y       z     vdW  Elec       q    Type
REMARK                         _______ _______ _______ _____ _____    ______ ____
ROOT
ATOM      1  N   UNL     1       4.624   0.908  -0.124  0.00  0.00    -0.258 N 
ATOM      2  C   UNL     1       3.929  -0.024   0.558  0.00  0.00    +0.261 C 
ATOM      3  O   UNL     1       4.362  -1.158   0.651  0.00  0.00    -0.269 OA
ENDROOT
BRANCH   1   4
ATOM      4  C   UNL     1       4.198   2.240  -0.120  0.00  0.00    +0.038 A 
ATOM      5  C   UNL     1       3.251   2.671  -1.040  0.00  0.00    +0.027 A 
ATOM      6  C   UNL     1       2.829   3.986  -1.030  0.00  0.00    -0.048 A 
ATOM      7  C   UNL     1       3.355   4.876  -0.112  0.00  0.00    +0.006 A 
ATOM      8  C   UNL     1       4.302   4.451   0.802  0.00  0.00    -0.048 A 
ATOM      9  C   UNL     1       4.725   3.137   0.801  0.00  0.00    +0.027 A 
ATOM     10  C   UNL     1       4.873   5.425   1.801  0.00  0.00    +0.044 C 
ATOM     11  C   UNL     1       1.797   4.453  -2.025  0.00  0.00    +0.044 C 
ENDBRANCH   1   4
BRANCH   2  12
ATOM     12  C   UNL     1       2.655   0.328   1.187  0.00  0.00    +0.116 A 
ATOM     13  C   UNL     1       1.840  -0.438   2.023  0.00  0.00    +0.076 A 
ATOM     14  C   UNL     1       0.694   0.248   2.425  0.00  0.00    +0.155 A 
ATOM     15  N   UNL     1       0.499   1.479   2.004  0.00  0.00    -0.203 NA
ATOM     16  S   UNL     1       1.729   1.846   1.089  0.00  0.00    +0.019 S 
BRANCH  14  17
ATOM     17  C   UNL     1      -0.290  -0.400   3.312  0.00  0.00    +0.262 C 
ATOM     18  O   UNL     1      -0.104  -1.538   3.697  0.00  0.00    -0.269 OA
ATOM     19  N   UNL     1      -1.395   0.270   3.696  0.00  0.00    -0.324 N 
ATOM     20  H   UNL     1      -1.543   1.178   3.389  0.00  0.00    +0.145 HD
ATOM     21  H   UNL     1      -2.042  -0.157   4.280  0.00  0.00    +0.145 HD
ENDBRANCH  14  17
BRANCH  13  22
ATOM     22  N   UNL     1       2.137  -1.737   2.411  0.00  0.00    -0.355 N 
ATOM     23  H   UNL     1       1.531  -2.219   2.995  0.00  0.00    +0.142 HD
ATOM     24  H   UNL     1       2.951  -2.162   2.099  0.00  0.00    +0.142 HD
ENDBRANCH  13  22
ENDBRANCH   2  12
BRANCH   1  25
ATOM     25  C   UNL     1       5.825   0.526  -0.871  0.00  0.00    +0.209 C 
BRANCH  25  27
ATOM     26  N   UNL     1       6.391  -0.245  -3.152  0.00  0.00    -0.304 N 
ATOM     27  C   UNL     1       5.442   0.144  -2.277  0.00  0.00    +0.231 C 
ATOM     28  O   UNL     1       4.281   0.188  -2.623  0.00  0.00    -0.274 OA
ATOM     29  H   UNL     1       7.321  -0.279  -2.876  0.00  0.00    +0.149 HD
BRANCH  26  30
ATOM     30  C   UNL     1       6.019  -0.616  -4.519  0.00  0.00    +0.225 C 
BRANCH  30  31
ATOM     31  C   UNL     1       7.255  -1.009  -5.287  0.00  0.00    +0.324 C 
ATOM     32  O   UNL     1       8.335  -0.982  -4.747  0.00  0.00    -0.249 OA
BRANCH  31  33
ATOM     33  O   UNL     1       7.155  -1.389  -6.571  0.00  0.00    -0.464 OA
BRANCH  33  35
ATOM     34  C   UNL     1       8.075  -2.156  -8.691  0.00  0.00    +0.048 C 
ATOM     35  C   UNL     1       8.387  -1.754  -7.248  0.00  0.00    +0.229 C 
ENDBRANCH  33  35
ENDBRANCH  31  33
ENDBRANCH  30  31
ENDBRANCH  26  30
ENDBRANCH  25  27
ENDBRANCH   1  25
TORSDOF 10
