REMARK  Name = ZINC24578735
REMARK  7 active torsions:
REMARK  status: ('A' for Active; 'I' for Inactive)
REMARK    1  A    between atoms: C_1  and  C_2
REMARK    2  A    between atoms: C_2  and  C_3
REMARK    3  A    between atoms: C_2  and  C_4
REMARK    4  A    between atoms: C_4  and  C_6
REMARK    5  A    between atoms: C_4  and  N_21
REMARK    6  A    between atoms: N_11  and  C_14
REMARK    7  A    between atoms: C_22  and  C_24
REMARK                            x       y       z     vdW  Elec       q    Type
REMARK                         _______ _______ _______ _____ _____    ______ ____
ROOT
ATOM      1  C   UNL     1      -2.161   7.301  -1.040  0.00  0.00    +0.162 C 
ENDROOT
BRANCH   1   2
ATOM      2  C   UNL     1      -3.328   7.947  -1.742  0.00  0.00    +0.236 C 
ATOM      3  O   UNL     1      -3.410   7.898  -2.951  0.00  0.00    -0.274 OA
ATOM      4  N   UNL     1      -4.279   8.579  -1.027  0.00  0.00    -0.297 N 
ATOM      5  C   UNL     1      -4.143   8.748   0.428  0.00  0.00    +0.126 C 
ATOM      6  C   UNL     1      -4.366  10.230   0.764  0.00  0.00    +0.124 C 
ATOM      7  N   UNL     1      -5.654  10.665   0.207  0.00  0.00    -0.325 N 
ATOM      8  C   UNL     1      -5.658  10.576  -1.259  0.00  0.00    +0.124 C 
ATOM      9  C   UNL     1      -5.484   9.113  -1.679  0.00  0.00    +0.126 C 
BRANCH   7  10
ATOM     10  C   UNL     1      -5.973  11.959   0.632  0.00  0.00    +0.065 A 
ATOM     11  C   UNL     1      -7.192  12.525   0.283  0.00  0.00    +0.026 A 
ATOM     12  C   UNL     1      -7.505  13.802   0.708  0.00  0.00    +0.002 A 
ATOM     13  C   UNL     1      -6.604  14.520   1.470  0.00  0.00    +0.003 A 
ATOM     14  C   UNL     1      -5.386  13.963   1.816  0.00  0.00    +0.040 A 
ATOM     15  C   UNL     1      -5.067  12.684   1.399  0.00  0.00    +0.144 A 
ATOM     16  F   UNL     1      -3.877  12.139   1.735  0.00  0.00    -0.204 F 
ENDBRANCH   7  10
ENDBRANCH   1   2
BRANCH   1  17
ATOM     17  N   UNL     1      -1.819   6.046  -1.714  0.00  0.00    -0.303 N 
ATOM     18  C   UNL     1      -1.193   5.065  -1.034  0.00  0.00    +0.220 C 
ATOM     19  O   UNL     1      -0.913   5.221   0.136  0.00  0.00    -0.275 OA
ATOM     20  H   UNL     1      -2.074   5.904  -2.774  0.00  0.00    +0.149 HD
BRANCH  18  21
ATOM     21  C   UNL     1      -0.842   3.774  -1.727  0.00  0.00    +0.048 C 
ATOM     22  C   UNL     1       0.094   4.065  -2.903  0.00  0.00    +0.019 C 
ATOM     23  C   UNL     1       0.451   2.754  -3.606  0.00  0.00    -0.009 C 
ATOM     24  C   UNL     1       1.149   1.818  -2.618  0.00  0.00    +0.007 C 
ATOM     25  C   UNL     1       0.214   1.527  -1.443  0.00  0.00    -0.009 C 
ATOM     26  C   UNL     1      -0.143   2.838  -0.739  0.00  0.00    +0.019 C 
ATOM     27  C   UNL     1      -1.063   0.862  -1.960  0.00  0.00    +0.007 C 
ATOM     28  C   UNL     1      -1.762   1.798  -2.948  0.00  0.00    -0.009 C 
ATOM     29  C   UNL     1      -0.826   2.088  -4.123  0.00  0.00    +0.007 C 
ATOM     30  C   UNL     1      -2.119   3.108  -2.244  0.00  0.00    +0.019 C 
ENDBRANCH  18  21
ENDBRANCH   1  17
BRANCH   1  32
ATOM     31  C   UNL     1      -1.332   9.575  -0.422  0.00  0.00    +0.009 C 
ATOM     32  C   UNL     1      -0.957   8.244  -1.077  0.00  0.00    +0.012 C 
ATOM     33  C   UNL     1       0.210   7.612  -0.317  0.00  0.00    +0.009 C 
ENDBRANCH   1  32
TORSDOF 5
