REMARK  Name = ZINC35069380
REMARK  14 active torsions:
REMARK  status: ('A' for Active; 'I' for Inactive)
REMARK    1  A    between atoms: C_1  and  C_2
REMARK    2  A    between atoms: C_2  and  C_3
REMARK    3  A    between atoms: C_3  and  C_5
REMARK    4  A    between atoms: C_3  and  N_23
REMARK    5  A    between atoms: N_15  and  C_16
REMARK    6  A    between atoms: N_23  and  C_24
REMARK    7  A    between atoms: C_24  and  C_25
REMARK    8  A    between atoms: C_25  and  N_26
REMARK    9  A    between atoms: N_26  and  C_27
REMARK   10  A    between atoms: N_26  and  C_28
REMARK   11  A    between atoms: C_29  and  C_31
REMARK   12  A    between atoms: C_31  and  C_32
REMARK   13  A    between atoms: C_32  and  C_33
REMARK   14  A    between atoms: C_32  and  C_34
REMARK                            x       y       z     vdW  Elec       q    Type
REMARK                         _______ _______ _______ _____ _____    ______ ____
ROOT
ATOM      1  C   UNL     1      -1.814  -2.130  -0.046  0.00  0.00    +0.138 A 
ATOM      2  N   UNL     1      -1.199  -2.902   0.797  0.00  0.00    -0.231 NA
ATOM      3  C   UNL     1      -0.779  -4.143   0.448  0.00  0.00    +0.078 A 
ATOM      4  C   UNL     1      -0.117  -4.974   1.355  0.00  0.00    +0.028 A 
ATOM      5  C   UNL     1       0.291  -6.228   0.958  0.00  0.00    +0.002 A 
ATOM      6  C   UNL     1       0.054  -6.678  -0.335  0.00  0.00    +0.001 A 
ATOM      7  C   UNL     1      -0.597  -5.877  -1.247  0.00  0.00    +0.015 A 
ATOM      8  C   UNL     1      -1.019  -4.605  -0.866  0.00  0.00    +0.065 A 
ATOM      9  C   UNL     1      -1.718  -3.706  -1.796  0.00  0.00    +0.266 A 
ATOM     10  O   UNL     1      -1.957  -4.043  -2.941  0.00  0.00    -0.267 OA
ATOM     11  N   UNL     1      -2.092  -2.493  -1.327  0.00  0.00    -0.263 N 
ENDROOT
BRANCH  11  12
ATOM     12  C   UNL     1      -2.766  -1.600  -2.171  0.00  0.00    +0.051 A 
ATOM     13  C   UNL     1      -2.051  -0.663  -2.906  0.00  0.00    +0.027 A 
ATOM     14  C   UNL     1      -2.718   0.215  -3.737  0.00  0.00    +0.017 A 
ATOM     15  C   UNL     1      -4.097   0.163  -3.838  0.00  0.00    +0.018 A 
ATOM     16  C   UNL     1      -4.811  -0.770  -3.107  0.00  0.00    +0.017 A 
ATOM     17  C   UNL     1      -4.149  -1.655  -2.279  0.00  0.00    +0.027 A 
ATOM     18 BR   UNL     1      -5.006   1.367  -4.977  0.00  0.00    -0.050 Br
ENDBRANCH  11  12
BRANCH   1  19
ATOM     19  C   UNL     1      -2.249  -0.764   0.420  0.00  0.00    +0.142 C 
BRANCH  19  20
ATOM     20  N   UNL     1      -3.278  -0.905   1.454  0.00  0.00    -0.293 N 
ATOM     21  C   UNL     1      -4.502  -0.374   1.263  0.00  0.00    +0.216 C 
ATOM     22  O   UNL     1      -4.751   0.220   0.236  0.00  0.00    -0.276 OA
BRANCH  20  23
ATOM     23  C   UNL     1      -2.977  -1.624   2.694  0.00  0.00    +0.090 C 
BRANCH  23  24
ATOM     24  C   UNL     1      -2.432  -0.642   3.733  0.00  0.00    -0.060 C 
BRANCH  24  25
ATOM     25  N   UNL     1      -2.129  -1.362   4.977  0.00  0.00    +0.377 N 
ATOM     26  C   UNL     1      -1.496  -0.444   5.933  0.00  0.00    -0.097 C 
ATOM     27  C   UNL     1      -3.374  -1.887   5.554  0.00  0.00    -0.097 C 
ATOM     28  H   UNL     1      -1.502  -2.127   4.779  0.00  0.00    -0.083 HD
ENDBRANCH  24  25
ENDBRANCH  23  24
ENDBRANCH  20  23
BRANCH  21  29
ATOM     29  C   UNL     1      -5.560  -0.520   2.325  0.00  0.00    +0.099 C 
BRANCH  29  30
ATOM     30  C   UNL     1      -6.846   0.167   1.862  0.00  0.00    -0.008 C 
ATOM     31  C   UNL     1      -7.401  -0.561   0.636  0.00  0.00    +0.008 C 
ATOM     32  C   UNL     1      -7.880   0.129   2.989  0.00  0.00    +0.008 C 
ENDBRANCH  29  30
ENDBRANCH  21  29
ENDBRANCH  19  20
BRANCH  19  34
ATOM     33  C   UNL     1      -1.462   1.408   1.372  0.00  0.00    +0.006 C 
ATOM     34  C   UNL     1      -1.046  -0.016   0.998  0.00  0.00    +0.027 C 
ENDBRANCH  19  34
ENDBRANCH   1  19
TORSDOF 9
