REMARK  Name = ZINC04095179
REMARK  5 active torsions:
REMARK  status: ('A' for Active; 'I' for Inactive)
REMARK    1  A    between atoms: C_1  and  C_2
REMARK    2  A    between atoms: C_2  and  C_3
REMARK    3  A    between atoms: C_2  and  C_4
REMARK    4  A    between atoms: C_2  and  C_5
REMARK    5  A    between atoms: C_18  and  C_20
REMARK                            x       y       z     vdW  Elec       q    Type
REMARK                         _______ _______ _______ _____ _____    ______ ____
ROOT
ATOM      1  C   UNL     1       5.281   0.623   0.329  0.00  0.00    -0.000 C 
ATOM      2  C   UNL     1       4.333  -0.243  -0.506  0.00  0.00    +0.009 C 
ATOM      3  C   UNL     1       2.893  -0.045  -0.029  0.00  0.00    +0.037 C 
ATOM      4  C   UNL     1       2.580   1.449  -0.015  0.00  0.00    -0.023 A 
ATOM      5  C   UNL     1       3.575   2.362  -0.019  0.00  0.00    -0.004 A 
ATOM      6  S   UNL     1       2.756   3.934  -0.003  0.00  0.00    -0.073 S 
ATOM      7  C   UNL     1       1.077   3.358   0.010  0.00  0.00    +0.116 A 
ATOM      8  C   UNL     1       1.211   1.959   0.001  0.00  0.00    +0.075 A 
ATOM      9  C   UNL     1      -0.015   1.215   0.009  0.00  0.00    +0.260 A 
ATOM     10  O   UNL     1       0.002  -0.004   0.002  0.00  0.00    -0.267 OA
ATOM     11  N   UNL     1      -1.183   1.882   0.018  0.00  0.00    -0.305 N 
ATOM     12  H   UNL     1      -2.042   1.369   0.015  0.00  0.00    +0.170 HD
ATOM     13  C   UNL     1      -1.218   3.249   0.030  0.00  0.00    +0.160 A 
ATOM     14  N   UNL     1      -0.108   3.954   0.024  0.00  0.00    -0.220 NA
ATOM     15  C   UNL     1       5.050   2.097  -0.034  0.00  0.00    +0.046 C 
ENDROOT
BRANCH  13  16
ATOM     16  C   UNL     1      -2.523   3.945   0.046  0.00  0.00    +0.106 A 
ATOM     17  C   UNL     1      -2.564   5.339   0.061  0.00  0.00    +0.031 A 
ATOM     18  C   UNL     1      -3.794   5.975   0.071  0.00  0.00    +0.004 A 
ATOM     19  C   UNL     1      -4.942   5.197   0.077  0.00  0.00    +0.020 A 
ATOM     20  C   UNL     1      -4.828   3.817   0.068  0.00  0.00    +0.111 A 
ATOM     21  N   UNL     1      -3.647   3.237   0.053  0.00  0.00    -0.252 NA
ENDBRANCH  13  16
BRANCH   1  23
ATOM     22  C   UNL     1       7.013   0.465  -1.465  0.00  0.00    +0.011 C 
ATOM     23  C   UNL     1       6.730   0.240   0.022  0.00  0.00    -0.035 C 
ATOM     24  C   UNL     1       7.675   1.107   0.857  0.00  0.00    +0.011 C 
ATOM     25  C   UNL     1       6.952  -1.234   0.366  0.00  0.00    +0.011 C 
ENDBRANCH   1  23
TORSDOF 2
