REMARK  Name = ZINC32958155
REMARK  11 active torsions:
REMARK  status: ('A' for Active; 'I' for Inactive)
REMARK    1  A    between atoms: C_1  and  N_2
REMARK    2  A    between atoms: N_2  and  C_3
REMARK    3  A    between atoms: C_6  and  S_12
REMARK    4  A    between atoms: C_8  and  N_9
REMARK    5  A    between atoms: S_12  and  N_15
REMARK    6  A    between atoms: N_15  and  C_16
REMARK    7  A    between atoms: N_15  and  C_17
REMARK    8  A    between atoms: C_17  and  C_18
REMARK    9  A    between atoms: N_20  and  C_21
REMARK   10  A    between atoms: C_26  and  S_27
REMARK   11  A    between atoms: S_27  and  C_28
REMARK                            x       y       z     vdW  Elec       q    Type
REMARK                         _______ _______ _______ _____ _____    ______ ____
ROOT
ATOM      1  C   UNL     1      -1.058  10.652   0.040  0.00  0.00    +0.205 C 
ENDROOT
BRANCH   1   2
ATOM      2  C   UNL     1      -1.947   9.442  -0.095  0.00  0.00    +0.233 C 
ATOM      3  O   UNL     1      -3.153   9.572  -0.084  0.00  0.00    -0.274 OA
ATOM      4  N   UNL     1      -1.402   8.217  -0.229  0.00  0.00    -0.283 N 
ATOM      5  H   UNL     1      -0.308   8.101  -0.256  0.00  0.00    +0.155 HD
BRANCH   4   6
ATOM      6  C   UNL     1      -2.228   7.090  -0.333  0.00  0.00    +0.047 A 
ATOM      7  C   UNL     1      -3.562   7.236  -0.683  0.00  0.00    +0.024 A 
ATOM      8  C   UNL     1      -4.375   6.123  -0.785  0.00  0.00    +0.002 A 
ATOM      9  C   UNL     1      -3.864   4.862  -0.538  0.00  0.00    +0.001 A 
ATOM     10  C   UNL     1      -2.534   4.706  -0.193  0.00  0.00    +0.017 A 
ATOM     11  C   UNL     1      -1.712   5.818  -0.083  0.00  0.00    +0.034 A 
BRANCH  11  12
ATOM     12  S   UNL     1      -0.018   5.624   0.362  0.00  0.00    -0.088 S 
BRANCH  12  13
ATOM     13  C   UNL     1       0.052   6.190   2.029  0.00  0.00    +0.013 A 
ATOM     14  C   UNL     1       1.240   6.102   2.745  0.00  0.00    +0.015 A 
ATOM     15  C   UNL     1       1.291   6.546   4.052  0.00  0.00    +0.001 A 
ATOM     16  C   UNL     1       0.162   7.078   4.648  0.00  0.00    +0.000 A 
ATOM     17  C   UNL     1      -1.024   7.162   3.940  0.00  0.00    +0.001 A 
ATOM     18  C   UNL     1      -1.081   6.725   2.631  0.00  0.00    +0.015 A 
ENDBRANCH  12  13
ENDBRANCH  11  12
ENDBRANCH   4   6
ENDBRANCH   1   2
BRANCH   1  19
ATOM     19  N   UNL     1      -1.885  11.854   0.170  0.00  0.00    -0.171 NA
ATOM     20  C   UNL     1      -2.394  12.254   1.485  0.00  0.00    +0.132 C 
BRANCH  19  21
ATOM     21  S   UNL     1      -2.247  12.759  -1.168  0.00  0.00    +0.061 S 
ATOM     22  O   UNL     1      -2.538  14.071  -0.705  0.00  0.00    -0.153 OA
ATOM     23  O   UNL     1      -1.227  12.498  -2.123  0.00  0.00    -0.153 OA
BRANCH  21  27
ATOM     24  C   UNL     1      -6.094  11.114  -2.900  0.00  0.00    +0.058 A 
ATOM     25  C   UNL     1      -4.870  10.608  -3.318  0.00  0.00    +0.027 A 
ATOM     26  C   UNL     1      -3.699  11.116  -2.792  0.00  0.00    +0.030 A 
ATOM     27  C   UNL     1      -3.744  12.119  -1.842  0.00  0.00    +0.108 A 
ATOM     28  C   UNL     1      -4.960  12.626  -1.424  0.00  0.00    +0.063 A 
ATOM     29  C   UNL     1      -6.136  12.126  -1.950  0.00  0.00    +0.149 A 
BRANCH  24  31
ATOM     30  C   UNL     1      -7.248   9.427  -4.302  0.00  0.00    +0.125 C 
ATOM     31  N   UNL     1      -7.281  10.607  -3.434  0.00  0.00    -0.345 N 
ATOM     32  H   UNL     1      -8.240  11.093  -3.203  0.00  0.00    +0.146 HD
ENDBRANCH  24  31
BRANCH  29  33
ATOM     33  N   UNL     1      -7.438  12.668  -1.501  0.00  0.00    +0.058 N 
ATOM     34  O   UNL     1      -7.472  13.645  -0.773  0.00  0.00    -0.126 OA
ATOM     35  O   UNL     1      -8.474  12.139  -1.859  0.00  0.00    -0.126 OA
ENDBRANCH  29  33
ENDBRANCH  21  27
ENDBRANCH  19  21
ENDBRANCH   1  19
TORSDOF 9
