REMARK  Name = ZINC04472742
REMARK  6 active torsions:
REMARK  status: ('A' for Active; 'I' for Inactive)
REMARK    1  A    between atoms: C_1  and  O_2
REMARK    2  A    between atoms: O_2  and  C_3
REMARK    3  A    between atoms: C_3  and  C_4
REMARK    4  A    between atoms: C_4  and  N_5
REMARK    5  A    between atoms: C_6  and  C_17
REMARK    6  A    between atoms: N_10  and  C_11
REMARK                            x       y       z     vdW  Elec       q    Type
REMARK                         _______ _______ _______ _____ _____    ______ ____
ROOT
ATOM      1  N   UNL     1      -1.272  -2.155  -0.004  0.00  0.00    -0.317 N 
ATOM      2  C   UNL     1      -1.292  -0.851   0.411  0.00  0.00    +0.058 A 
ATOM      3  C   UNL     1      -2.471  -0.212   0.548  0.00  0.00    +0.075 A 
ATOM      4  S   UNL     1      -3.640  -1.480   0.087  0.00  0.00    -0.057 S 
ATOM      5  C   UNL     1      -2.468  -2.783  -0.259  0.00  0.00    +0.174 A 
ATOM      6  N   UNL     1      -2.691  -4.021  -0.660  0.00  0.00    -0.224 NA
ENDROOT
BRANCH   2   7
ATOM      7  C   UNL     1      -0.025  -0.144   0.701  0.00  0.00    +0.001 A 
ATOM      8  C   UNL     1       1.077  -0.310  -0.140  0.00  0.00    +0.013 A 
ATOM      9  C   UNL     1       2.259   0.350   0.129  0.00  0.00    +0.048 A 
ATOM     10  C   UNL     1       2.355   1.178   1.235  0.00  0.00    +0.142 A 
ATOM     11  C   UNL     1       1.258   1.348   2.080  0.00  0.00    +0.076 A 
ATOM     12  C   UNL     1       0.071   0.690   1.816  0.00  0.00    +0.037 A 
ATOM     13  N   UNL     1       1.376   2.188   3.197  0.00  0.00    -0.280 N 
ATOM     14  C   UNL     1       2.413   3.051   3.260  0.00  0.00    +0.255 C 
ATOM     15  O   UNL     1       2.552   3.767   4.229  0.00  0.00    -0.272 OA
ATOM     16  C   UNL     1       3.398   3.120   2.120  0.00  0.00    +0.325 C 
ATOM     17  O   UNL     1       3.516   1.833   1.508  0.00  0.00    -0.481 OA
ATOM     18  H   UNL     1       0.723   2.151   3.913  0.00  0.00    +0.155 HD
ENDBRANCH   2   7
BRANCH   6  19
ATOM     19  C   UNL     1      -3.966  -4.431  -0.935  0.00  0.00    +0.067 A 
ATOM     20  C   UNL     1      -4.744  -5.024   0.063  0.00  0.00    +0.028 A 
ATOM     21  C   UNL     1      -6.031  -5.431  -0.221  0.00  0.00    +0.002 A 
ATOM     22  C   UNL     1      -6.548  -5.262  -1.493  0.00  0.00    +0.000 A 
ATOM     23  C   UNL     1      -5.782  -4.681  -2.488  0.00  0.00    +0.002 A 
ATOM     24  C   UNL     1      -4.495  -4.264  -2.218  0.00  0.00    +0.028 A 
ENDBRANCH   6  19
BRANCH   1  25
ATOM     25  C   UNL     1      -0.003  -2.869  -0.166  0.00  0.00    +0.152 C 
BRANCH  25  26
ATOM     26  C   UNL     1      -0.181  -4.327   0.261  0.00  0.00    +0.181 C 
BRANCH  26  28
ATOM     27  C   UNL     1       1.000  -6.402   0.475  0.00  0.00    +0.194 C 
ATOM     28  O   UNL     1       1.057  -5.024   0.102  0.00  0.00    -0.381 OA
ENDBRANCH  26  28
ENDBRANCH  25  26
ENDBRANCH   1  25
TORSDOF 5
