REMARK  Name = ZINC33657413
REMARK  13 active torsions:
REMARK  status: ('A' for Active; 'I' for Inactive)
REMARK    1  A    between atoms: C_1  and  C_2
REMARK    2  A    between atoms: C_2  and  C_3
REMARK    3  A    between atoms: C_3  and  C_5
REMARK    4  A    between atoms: C_3  and  N_6
REMARK    5  A    between atoms: N_6  and  C_7
REMARK    6  A    between atoms: C_7  and  C_8
REMARK    7  A    between atoms: N_10  and  C_11
REMARK    8  A    between atoms: N_10  and  C_21
REMARK    9  A    between atoms: C_11  and  C_12
REMARK   10  A    between atoms: C_21  and  C_22
REMARK   11  A    between atoms: C_23  and  C_27
REMARK   12  A    between atoms: N_30  and  C_31
REMARK   13  A    between atoms: C_36  and  C_37
REMARK                            x       y       z     vdW  Elec       q    Type
REMARK                         _______ _______ _______ _____ _____    ______ ____
ROOT
ATOM      1  C   UNL     1      -2.007  -4.289   1.394  0.00  0.00    +0.234 C 
ATOM      2  O   UNL     1      -2.181  -3.382   2.180  0.00  0.00    -0.274 OA
ATOM      3  N   UNL     1      -1.657  -5.511   1.841  0.00  0.00    -0.291 N 
ENDROOT
BRANCH   1   4
ATOM      4  C   UNL     1      -2.183  -4.049  -0.084  0.00  0.00    +0.205 C 
BRANCH   4   5
ATOM      5  N   UNL     1      -2.459  -2.630  -0.319  0.00  0.00    -0.274 N 
ATOM      6  C   UNL     1      -1.441  -1.752  -0.417  0.00  0.00    +0.307 C 
ATOM      7  O   UNL     1      -0.292  -2.146  -0.362  0.00  0.00    -0.252 OA
ATOM      8  N   UNL     1      -1.696  -0.439  -0.576  0.00  0.00    -0.269 N 
ATOM      9  H   UNL     1      -2.734  -0.075  -0.563  0.00  0.00    +0.156 HD
BRANCH   8  10
ATOM     10  C   UNL     1      -0.641   0.463  -0.757  0.00  0.00    +0.038 A 
ATOM     11  C   UNL     1       0.627   0.153  -0.284  0.00  0.00    +0.023 A 
ATOM     12  C   UNL     1       1.667   1.045  -0.465  0.00  0.00    +0.002 A 
ATOM     13  C   UNL     1       1.445   2.244  -1.117  0.00  0.00    +0.000 A 
ATOM     14  C   UNL     1       0.184   2.555  -1.590  0.00  0.00    +0.005 A 
ATOM     15  C   UNL     1      -0.860   1.667  -1.412  0.00  0.00    -0.029 A 
ATOM     16  C   UNL     1      -2.233   2.004  -1.933  0.00  0.00    +0.045 C 
ENDBRANCH   8  10
BRANCH   5  17
ATOM     17  C   UNL     1      -3.842  -2.164  -0.447  0.00  0.00    +0.075 C 
ATOM     18  C   UNL     1      -4.159  -1.188   0.688  0.00  0.00    +0.028 C 
BRANCH  17  20
ATOM     19  C   UNL     1      -3.881  -2.476  -2.926  0.00  0.00    +0.006 C 
ATOM     20  C   UNL     1      -4.019  -1.458  -1.792  0.00  0.00    +0.019 C 
ENDBRANCH  17  20
ENDBRANCH   5  17
ENDBRANCH   4   5
ENDBRANCH   1   4
BRANCH   3  21
ATOM     21  C   UNL     1      -1.486  -5.744   3.277  0.00  0.00    +0.143 C 
BRANCH  21  22
ATOM     22  C   UNL     1      -2.770  -6.283   3.855  0.00  0.00    -0.026 A 
ATOM     23  C   UNL     1      -3.723  -5.412   4.349  0.00  0.00    +0.009 A 
ATOM     24  C   UNL     1      -4.904  -5.902   4.875  0.00  0.00    +0.050 A 
ATOM     25  C   UNL     1      -5.130  -7.268   4.918  0.00  0.00    +0.166 A 
ATOM     26  C   UNL     1      -4.168  -8.145   4.425  0.00  0.00    +0.167 A 
ATOM     27  C   UNL     1      -2.989  -7.647   3.894  0.00  0.00    +0.054 A 
ATOM     28  O   UNL     1      -4.622  -9.423   4.579  0.00  0.00    -0.453 OA
ATOM     29  C   UNL     1      -5.690  -9.338   5.541  0.00  0.00    +0.466 C 
ATOM     30  O   UNL     1      -6.188  -7.996   5.381  0.00  0.00    -0.453 OA
ENDBRANCH  21  22
ENDBRANCH   3  21
BRANCH   3  31
ATOM     31  C   UNL     1      -1.446  -6.606   0.891  0.00  0.00    +0.150 C 
BRANCH  31  32
ATOM     32  C   UNL     1       0.020  -6.710   0.561  0.00  0.00    +0.010 A 
ATOM     33  C   UNL     1       0.956  -7.540   1.082  0.00  0.00    -0.039 A 
ATOM     34  C   UNL     1       2.256  -7.459   0.619  0.00  0.00    +0.011 A 
ATOM     35  C   UNL     1       2.558  -6.546  -0.336  0.00  0.00    +0.046 A 
ATOM     36  S   UNL     1       0.977  -5.765  -0.614  0.00  0.00    -0.100 S 
ATOM     37  C   UNL     1       0.585  -8.538   2.148  0.00  0.00    +0.044 C 
ENDBRANCH  31  32
ENDBRANCH   3  31
TORSDOF 9
