REMARK  Name = ZINC12922825
REMARK  9 active torsions:
REMARK  status: ('A' for Active; 'I' for Inactive)
REMARK    1  A    between atoms: C_1  and  C_2
REMARK    2  A    between atoms: C_2  and  C_3
REMARK    3  A    between atoms: C_3  and  C_4
REMARK    4  A    between atoms: C_4  and  N_5
REMARK    5  A    between atoms: C_6  and  N_31
REMARK    6  A    between atoms: C_7  and  N_14
REMARK    7  A    between atoms: N_14  and  C_15
REMARK    8  A    between atoms: C_15  and  C_16
REMARK    9  A    between atoms: C_21  and  C_23
REMARK                            x       y       z     vdW  Elec       q    Type
REMARK                         _______ _______ _______ _____ _____    ______ ____
ROOT
ATOM      1  N   UNL     1      -0.590  -2.903  -2.474  0.00  0.00    -0.253 N 
ATOM      2  C   UNL     1      -0.231  -2.195  -3.563  0.00  0.00    +0.252 C 
ATOM      3  O   UNL     1       0.258  -2.761  -4.522  0.00  0.00    -0.270 OA
ENDROOT
BRANCH   1   6
ATOM      4  N   UNL     1      -0.853  -1.718   0.994  0.00  0.00    -0.280 N 
ATOM      5  C   UNL     1      -0.381  -2.377  -0.117  0.00  0.00    +0.127 A 
ATOM      6  C   UNL     1      -1.046  -2.235  -1.318  0.00  0.00    +0.140 A 
ATOM      7  C   UNL     1      -2.185  -1.410  -1.371  0.00  0.00    +0.277 A 
ATOM      8  O   UNL     1      -2.789  -1.264  -2.420  0.00  0.00    -0.266 OA
ATOM      9  N   UNL     1      -2.603  -0.783  -0.254  0.00  0.00    -0.273 N 
ATOM     10  H   UNL     1      -3.413  -0.196  -0.290  0.00  0.00    +0.173 HD
ATOM     11  C   UNL     1      -1.945  -0.936   0.908  0.00  0.00    +0.331 A 
ATOM     12  O   UNL     1      -2.344  -0.358   1.901  0.00  0.00    -0.246 OA
BRANCH   5  13
ATOM     13  N   UNL     1       0.738  -3.171  -0.031  0.00  0.00    -0.343 N 
ATOM     14  H   UNL     1       1.135  -3.357   0.834  0.00  0.00    +0.144 HD
ATOM     15  H   UNL     1       1.130  -3.545  -0.836  0.00  0.00    +0.144 HD
ENDBRANCH   5  13
BRANCH   4  16
ATOM     16  C   UNL     1      -0.160  -1.863   2.276  0.00  0.00    +0.128 C 
BRANCH  16  17
ATOM     17  C   UNL     1      -0.753  -3.044   3.046  0.00  0.00    +0.021 C 
BRANCH  17  19
ATOM     18  C   UNL     1      -0.623  -4.376   5.155  0.00  0.00    +0.004 C 
ATOM     19  C   UNL     1      -0.029  -3.195   4.385  0.00  0.00    -0.002 C 
ENDBRANCH  17  19
ENDBRANCH  16  17
ENDBRANCH   4  16
ENDBRANCH   1   6
BRANCH   2  20
ATOM     20  C   UNL     1      -0.432  -0.732  -3.593  0.00  0.00    +0.051 A 
ATOM     21  C   UNL     1      -0.359   0.009  -2.411  0.00  0.00    +0.017 A 
ATOM     22  C   UNL     1      -0.547   1.374  -2.444  0.00  0.00    +0.039 A 
ATOM     23  C   UNL     1      -0.809   2.012  -3.647  0.00  0.00    +0.124 A 
ATOM     24  C   UNL     1      -0.883   1.282  -4.823  0.00  0.00    +0.054 A 
ATOM     25  C   UNL     1      -0.691  -0.084  -4.803  0.00  0.00    +0.033 A 
ATOM     26 BR   UNL     1      -0.784  -1.078  -6.409  0.00  0.00    -0.049 Br
ATOM     27  F   UNL     1      -0.994   3.350  -3.673  0.00  0.00    -0.205 F 
ENDBRANCH   2  20
BRANCH   1  28
ATOM     28  C   UNL     1      -0.505  -4.365  -2.490  0.00  0.00    +0.188 C 
BRANCH  28  29
ATOM     29  C   UNL     1      -1.762  -4.934  -3.098  0.00  0.00    +0.122 A 
ATOM     30  C   UNL     1      -1.922  -5.287  -4.386  0.00  0.00    +0.046 A 
ATOM     31  C   UNL     1      -3.245  -5.768  -4.517  0.00  0.00    +0.041 A 
ATOM     32  C   UNL     1      -3.814  -5.679  -3.302  0.00  0.00    +0.195 A 
ATOM     33  O   UNL     1      -2.909  -5.178  -2.445  0.00  0.00    -0.466 OA
ENDBRANCH  28  29
ENDBRANCH   1  28
TORSDOF 8
