REMARK  Name = ZINC13147828
REMARK  8 active torsions:
REMARK  status: ('A' for Active; 'I' for Inactive)
REMARK    1  A    between atoms: C_1  and  N_2
REMARK    2  A    between atoms: C_3  and  C_27
REMARK    3  A    between atoms: C_6  and  S_7
REMARK    4  A    between atoms: S_7  and  C_8
REMARK    5  A    between atoms: C_8  and  C_9
REMARK    6  A    between atoms: N_11  and  C_12
REMARK    7  A    between atoms: C_16  and  S_18
REMARK    8  A    between atoms: S_18  and  N_21
REMARK                            x       y       z     vdW  Elec       q    Type
REMARK                         _______ _______ _______ _____ _____    ______ ____
ROOT
ATOM      1  C   UNL     1       0.161   7.337   0.198  0.00  0.00    +0.227 C 
ATOM      2  O   UNL     1       1.343   7.608   0.170  0.00  0.00    -0.275 OA
ATOM      3  N   UNL     1      -0.756   8.324   0.244  0.00  0.00    -0.285 N 
ATOM      4  H   UNL     1      -1.698   8.108   0.325  0.00  0.00    +0.155 HD
ENDROOT
BRANCH   3   5
ATOM      5  C   UNL     1      -0.348   9.661   0.176  0.00  0.00    +0.035 A 
ATOM      6  C   UNL     1       0.843  10.056   0.771  0.00  0.00    +0.023 A 
ATOM      7  C   UNL     1       1.246  11.375   0.697  0.00  0.00    +0.004 A 
ATOM      8  C   UNL     1       0.458  12.304   0.042  0.00  0.00    +0.029 A 
ATOM      9  C   UNL     1      -0.732  11.915  -0.546  0.00  0.00    +0.114 A 
ATOM     10  C   UNL     1      -1.137  10.596  -0.480  0.00  0.00    +0.052 A 
BRANCH   9  11
ATOM     11  S   UNL     1      -1.732  13.103  -1.379  0.00  0.00    +0.100 S 
ATOM     12  O   UNL     1      -0.866  14.160  -1.770  0.00  0.00    -0.146 OA
ATOM     13  O   UNL     1      -2.524  12.383  -2.313  0.00  0.00    -0.146 OA
BRANCH  11  14
ATOM     14  N   UNL     1      -2.776  13.735  -0.260  0.00  0.00    -0.118 NA
ATOM     15  C   UNL     1      -3.631  14.640  -0.612  0.00  0.00    +0.117 C 
ATOM     16  C   UNL     1      -3.773  15.207  -2.007  0.00  0.00    +0.074 C 
ATOM     17  C   UNL     1      -5.159  15.895  -1.998  0.00  0.00    +0.026 C 
ATOM     18  C   UNL     1      -5.347  16.220  -0.500  0.00  0.00    +0.103 C 
ATOM     19  N   UNL     1      -4.538  15.232   0.223  0.00  0.00    -0.331 N 
ATOM     20  H   UNL     1      -4.635  15.026   1.166  0.00  0.00    +0.147 HD
ENDBRANCH  11  14
ENDBRANCH   9  11
ENDBRANCH   3   5
BRANCH   1  21
ATOM     21  C   UNL     1      -0.283   5.897   0.180  0.00  0.00    +0.173 C 
BRANCH  21  22
ATOM     22  S   UNL     1       1.170   4.819   0.117  0.00  0.00    -0.077 S 
BRANCH  22  28
ATOM     23  C   UNL     1       2.442   1.770   0.017  0.00  0.00    +0.153 C 
ATOM     24  N   UNL     1       1.001   2.027   0.063  0.00  0.00    -0.305 N 
ATOM     25  C   UNL     1      -0.010   1.094   0.071  0.00  0.00    +0.165 A 
ATOM     26  N   UNL     1      -1.144   1.755   0.112  0.00  0.00    -0.128 NA
ATOM     27  N   UNL     1      -0.914   3.019   0.137  0.00  0.00    -0.122 NA
ATOM     28  C   UNL     1       0.381   3.243   0.106  0.00  0.00    +0.192 A 
BRANCH  25  29
ATOM     29  C   UNL     1       0.149  -0.375   0.035  0.00  0.00    +0.019 A 
ATOM     30  C   UNL     1       1.338  -0.940  -0.430  0.00  0.00    +0.011 A 
ATOM     31  C   UNL     1       1.482  -2.311  -0.457  0.00  0.00    +0.001 A 
ATOM     32  C   UNL     1       0.448  -3.127  -0.034  0.00  0.00    +0.000 A 
ATOM     33  C   UNL     1      -0.735  -2.574   0.424  0.00  0.00    +0.001 A 
ATOM     34  C   UNL     1      -0.890  -1.204   0.461  0.00  0.00    +0.011 A 
ENDBRANCH  25  29
ENDBRANCH  22  28
ENDBRANCH  21  22
ENDBRANCH   1  21
TORSDOF 7
