REMARK  Name = ZINC13372435
REMARK  2 active torsions:
REMARK  status: ('A' for Active; 'I' for Inactive)
REMARK    1  A    between atoms: C_3  and  C_9
REMARK    2  A    between atoms: C_12  and  C_14
REMARK                            x       y       z     vdW  Elec       q    Type
REMARK                         _______ _______ _______ _____ _____    ______ ____
ROOT
ATOM      1  C   UNL     1       5.957  -0.557  -0.291  0.00  0.00    +0.137 A 
ATOM      2  C   UNL     1       6.050  -1.918  -0.363  0.00  0.00    +0.050 A 
ATOM      3  C   UNL     1       4.750  -2.424  -0.268  0.00  0.00    +0.050 A 
ATOM      4  C   UNL     1       3.906  -1.335  -0.149  0.00  0.00    +0.130 A 
ATOM      5  O   UNL     1       4.662  -0.217  -0.163  0.00  0.00    -0.455 OA
ENDROOT
BRANCH   4   6
ATOM      6  C   UNL     1       2.500  -1.385  -0.029  0.00  0.00    +0.066 C 
ATOM      7  C   UNL     1       1.774  -0.230  -0.025  0.00  0.00    +0.081 C 
ATOM      8  C   UNL     1       2.220   1.153  -0.261  0.00  0.00    +0.257 C 
ATOM      9  O   UNL     1       3.385   1.412  -0.502  0.00  0.00    -0.269 OA
ATOM     10  N   UNL     1       1.301   2.101  -0.198  0.00  0.00    -0.261 N 
ATOM     11  C   UNL     1      -0.014   1.786   0.077  0.00  0.00    +0.158 C 
ATOM     12  N   UNL     1      -1.039   2.588   0.171  0.00  0.00    -0.279 NA
ATOM     13  S   UNL     1       0.028   0.011   0.267  0.00  0.00    -0.049 S 
ATOM     14  H   UNL     1       1.553   3.026  -0.347  0.00  0.00    +0.157 HD
ATOM     15  H   UNL     1      -1.919   2.230   0.367  0.00  0.00    +0.189 HD
ENDBRANCH   4   6
BRANCH   1  18
ATOM     16  C   UNL     1       9.260   1.079   0.423  0.00  0.00    +0.002 A 
ATOM     17  C   UNL     1       8.200   0.198   0.483  0.00  0.00    +0.013 A 
ATOM     18  C   UNL     1       7.092   0.385  -0.346  0.00  0.00    +0.037 A 
ATOM     19  C   UNL     1       7.059   1.473  -1.224  0.00  0.00    +0.070 A 
ATOM     20  C   UNL     1       8.125   2.351  -1.269  0.00  0.00    +0.060 A 
ATOM     21  C   UNL     1       9.222   2.154  -0.448  0.00  0.00    +0.021 A 
ATOM     22 CL   UNL     1       8.089   3.703  -2.357  0.00  0.00    -0.082 Cl
ATOM     23 CL   UNL     1       5.684   1.721  -2.254  0.00  0.00    -0.081 Cl
ENDBRANCH   1  18
TORSDOF 2
