REMARK  Name = ZINC39395746
REMARK  3 active torsions:
REMARK  status: ('A' for Active; 'I' for Inactive)
REMARK    1  A    between atoms: C_8  and  S_11
REMARK    2  A    between atoms: S_11  and  C_12
REMARK    3  A    between atoms: C_12  and  C_13
REMARK                            x       y       z     vdW  Elec       q    Type
REMARK                         _______ _______ _______ _____ _____    ______ ____
ROOT
ATOM      1  S   UNL     1       3.537  -3.056   1.436  0.00  0.00    -0.091 S 
ENDROOT
BRANCH   1   9
ATOM      2  C   UNL     1      -0.017   1.377   0.010  0.00  0.00    +0.002 A 
ATOM      3  C   UNL     1       1.171   2.086   0.002  0.00  0.00    +0.004 A 
ATOM      4  C   UNL     1       2.379   1.416  -0.013  0.00  0.00    +0.047 A 
ATOM      5  C   UNL     1       2.409   0.027  -0.022  0.00  0.00    +0.145 A 
ATOM      6  C   UNL     1       1.213  -0.683  -0.014  0.00  0.00    +0.073 A 
ATOM      7  C   UNL     1       0.002  -0.004   0.002  0.00  0.00    +0.027 A 
ATOM      8  N   UNL     1       1.499  -2.056  -0.024  0.00  0.00    -0.298 N 
ATOM      9  C   UNL     1       2.964  -2.170  -0.040  0.00  0.00    +0.322 C 
ATOM     10  O   UNL     1       3.464  -0.831  -0.037  0.00  0.00    -0.460 OA
ATOM     11  H   UNL     1       0.858  -2.784  -0.022  0.00  0.00    +0.150 HD
ENDBRANCH   1   9
BRANCH   1  12
ATOM     12  C   UNL     1       2.954  -2.032   2.816  0.00  0.00    +0.127 C 
BRANCH  12  13
ATOM     13  C   UNL     1       3.369  -2.663   4.120  0.00  0.00    +0.033 A 
ATOM     14  N   UNL     1       2.718  -3.774   4.584  0.00  0.00    -0.338 N 
ATOM     15  C   UNL     1       3.081  -4.345   5.746  0.00  0.00    +0.158 A 
ATOM     16  S   UNL     1       2.247  -5.734   6.300  0.00  0.00    -0.013 S 
ATOM     17  N   UNL     1       4.091  -3.841   6.480  0.00  0.00    -0.303 N 
ATOM     18  C   UNL     1       4.757  -2.747   6.058  0.00  0.00    +0.252 A 
ATOM     19  O   UNL     1       5.671  -2.290   6.721  0.00  0.00    -0.268 OA
ATOM     20  C   UNL     1       4.389  -2.139   4.833  0.00  0.00    +0.092 A 
ATOM     21  H   UNL     1       4.340  -4.266   7.316  0.00  0.00    +0.171 HD
ATOM     22  H   UNL     1       1.988  -4.152   4.069  0.00  0.00    +0.168 HD
ENDBRANCH  12  13
ENDBRANCH   1  12
TORSDOF 3
