REMARK  Name = ZINC19371062
REMARK  7 active torsions:
REMARK  status: ('A' for Active; 'I' for Inactive)
REMARK    1  A    between atoms: C_6  and  C_7
REMARK    2  A    between atoms: C_14  and  O_28
REMARK    3  A    between atoms: C_15  and  C_18
REMARK    4  A    between atoms: C_18  and  N_19
REMARK    5  A    between atoms: N_22  and  C_25
REMARK    6  A    between atoms: C_25  and  C_26
REMARK    7  A    between atoms: C_26  and  O_27
REMARK                            x       y       z     vdW  Elec       q    Type
REMARK                         _______ _______ _______ _____ _____    ______ ____
ROOT
ATOM      1  C   UNL     1       1.569  -2.015  -1.053  0.00  0.00    +0.058 C 
ATOM      2  C   UNL     1       1.126  -0.733  -1.023  0.00  0.00    +0.176 C 
ATOM      3  C   UNL     1      -0.271  -0.292  -1.168  0.00  0.00    +0.231 C 
ATOM      4  O   UNL     1      -1.258  -0.986  -1.338  0.00  0.00    -0.283 OA
ATOM      5  C   UNL     1      -0.207   1.177  -1.063  0.00  0.00    +0.068 A 
ATOM      6  C   UNL     1      -1.176   2.180  -1.113  0.00  0.00    +0.019 A 
ATOM      7  C   UNL     1      -0.807   3.489  -0.985  0.00  0.00    +0.046 A 
ATOM      8  C   UNL     1       0.531   3.824  -0.795  0.00  0.00    +0.122 A 
ATOM      9  C   UNL     1       1.502   2.838  -0.739  0.00  0.00    +0.020 A 
ATOM     10  C   UNL     1       1.145   1.502  -0.872  0.00  0.00    +0.144 A 
ATOM     11  O   UNL     1       1.887   0.373  -0.854  0.00  0.00    -0.451 OA
ENDROOT
BRANCH   1  17
ATOM     12  C   UNL     1       3.480  -3.602  -1.174  0.00  0.00    +0.009 A 
ATOM     13  C   UNL     1       4.834  -3.856  -1.130  0.00  0.00    +0.016 A 
ATOM     14  C   UNL     1       5.729  -2.823  -0.905  0.00  0.00    +0.018 A 
ATOM     15  C   UNL     1       5.272  -1.527  -0.729  0.00  0.00    +0.016 A 
ATOM     16  C   UNL     1       3.922  -1.256  -0.775  0.00  0.00    +0.009 A 
ATOM     17  C   UNL     1       3.011  -2.295  -1.002  0.00  0.00    -0.021 A 
ATOM     18 BR   UNL     1       7.584  -3.183  -0.840  0.00  0.00    -0.050 Br
ENDBRANCH   1  17
BRANCH   8  19
ATOM     19  O   UNL     1       0.886   5.127  -0.664  0.00  0.00    -0.506 OA
ATOM     20  H   UNL     1       1.942   5.397  -0.513  0.00  0.00    +0.292 HD
ENDBRANCH   8  19
BRANCH   9  21
ATOM     21  C   UNL     1       2.947   3.215  -0.533  0.00  0.00    -0.035 C 
BRANCH  21  22
ATOM     22  N   UNL     1       3.588   3.429  -1.837  0.00  0.00    +0.384 N 
ATOM     23  C   UNL     1       3.662   2.174  -2.599  0.00  0.00    -0.063 C 
ATOM     24  C   UNL     1       4.262   2.454  -3.979  0.00  0.00    +0.066 C 
ATOM     25  N   UNL     1       5.596   3.050  -3.819  0.00  0.00    -0.304 NA
ATOM     26  C   UNL     1       5.521   4.304  -3.057  0.00  0.00    +0.066 C 
ATOM     27  C   UNL     1       4.922   4.024  -1.677  0.00  0.00    -0.063 C 
ATOM     28  H   UNL     1       2.966   4.136  -2.406  0.00  0.00    -0.081 HD
BRANCH  25  29
ATOM     29  C   UNL     1       6.237   3.264  -5.124  0.00  0.00    +0.112 C 
BRANCH  29  30
ATOM     30  C   UNL     1       5.297   4.062  -6.029  0.00  0.00    +0.171 C 
BRANCH  30  31
ATOM     31  O   UNL     1       5.138   5.382  -5.505  0.00  0.00    -0.394 OA
ATOM     32  H   UNL     1       4.493   6.106  -6.024  0.00  0.00    +0.209 HD
ENDBRANCH  30  31
ENDBRANCH  29  30
ENDBRANCH  25  29
ENDBRANCH  21  22
ENDBRANCH   9  21
TORSDOF 7
