REMARK  Name = ZINC22292276
REMARK  6 active torsions:
REMARK  status: ('A' for Active; 'I' for Inactive)
REMARK    1  A    between atoms: C_1  and  C_2
REMARK    2  A    between atoms: C_2  and  C_3
REMARK    3  A    between atoms: C_2  and  N_4
REMARK    4  A    between atoms: C_5  and  N_9
REMARK    5  A    between atoms: C_10  and  C_12
REMARK    6  A    between atoms: C_19  and  C_24
REMARK                            x       y       z     vdW  Elec       q    Type
REMARK                         _______ _______ _______ _____ _____    ______ ____
ROOT
ATOM      1  C   UNL     1       0.002  -0.004   0.002  0.00  0.00    +0.037 A 
ATOM      2  C   UNL     1      -1.198  -0.717   0.015  0.00  0.00    +0.014 A 
ATOM      3  C   UNL     1      -1.179  -2.095   0.001  0.00  0.00    +0.016 A 
ATOM      4  C   UNL     1       0.040  -2.772  -0.016  0.00  0.00    +0.062 A 
ATOM      5  C   UNL     1       1.242  -2.063  -0.021  0.00  0.00    -0.029 A 
ATOM      6  C   UNL     1       1.220  -0.684  -0.013  0.00  0.00    +0.017 A 
ATOM      7  C   UNL     1       2.561  -2.791  -0.027  0.00  0.00    +0.085 C 
ATOM      8  C   UNL     1       2.379  -4.215  -0.552  0.00  0.00    +0.211 C 
ATOM      9  O   UNL     1       1.275  -4.852   0.156  0.00  0.00    -0.453 OA
ATOM     10  C   UNL     1       0.070  -4.256  -0.031  0.00  0.00    +0.340 C 
ATOM     11  O   UNL     1      -0.939  -4.908  -0.204  0.00  0.00    -0.245 OA
ENDROOT
BRANCH   8  12
ATOM     12  C   UNL     1       3.644  -5.001  -0.322  0.00  0.00    -0.007 A 
ATOM     13  C   UNL     1       3.866  -5.611   0.899  0.00  0.00    +0.007 A 
ATOM     14  C   UNL     1       5.024  -6.337   1.108  0.00  0.00    +0.000 A 
ATOM     15  C   UNL     1       5.965  -6.443   0.101  0.00  0.00    +0.000 A 
ATOM     16  C   UNL     1       5.745  -5.828  -1.118  0.00  0.00    +0.000 A 
ATOM     17  C   UNL     1       4.585  -5.108  -1.329  0.00  0.00    +0.007 A 
ENDBRANCH   8  12
BRANCH   1  19
ATOM     18  N   UNL     1      -1.194   2.134   0.019  0.00  0.00    -0.267 N 
ATOM     19  C   UNL     1      -0.018   1.476   0.010  0.00  0.00    +0.249 C 
ATOM     20  O   UNL     1       1.026   2.098   0.004  0.00  0.00    -0.270 OA
ATOM     21  H   UNL     1      -2.139   1.571   0.021  0.00  0.00    +0.157 HD
BRANCH  18  23
ATOM     22  N   UNL     1      -2.319   4.316   0.031  0.00  0.00    -0.248 N 
ATOM     23  C   UNL     1      -1.213   3.527   0.027  0.00  0.00    +0.124 A 
ATOM     24  C   UNL     1      -0.126   4.347   0.026  0.00  0.00    +0.065 A 
ATOM     25  C   UNL     1      -0.585   5.667   0.035  0.00  0.00    +0.136 A 
ATOM     26  N   UNL     1      -1.894   5.650   0.041  0.00  0.00    -0.178 NA
BRANCH  22  28
ATOM     27  C   UNL     1      -4.421   4.369   1.280  0.00  0.00    +0.032 C 
ATOM     28  C   UNL     1      -3.709   3.853   0.029  0.00  0.00    +0.103 C 
ATOM     29  C   UNL     1      -4.421   4.382  -1.218  0.00  0.00    +0.032 C 
ENDBRANCH  22  28
ENDBRANCH  18  23
ENDBRANCH   1  19
TORSDOF 4
