REMARK  Name = ZINC15869762
REMARK  11 active torsions:
REMARK  status: ('A' for Active; 'I' for Inactive)
REMARK    1  A    between atoms: C_1  and  C_2
REMARK    2  A    between atoms: C_2  and  N_3
REMARK    3  A    between atoms: N_3  and  C_4
REMARK    4  A    between atoms: N_3  and  C_6
REMARK    5  A    between atoms: C_4  and  C_5
REMARK    6  A    between atoms: C_6  and  C_7
REMARK    7  A    between atoms: C_7  and  N_8
REMARK    8  A    between atoms: N_8  and  C_9
REMARK    9  A    between atoms: C_11  and  C_13
REMARK   10  A    between atoms: C_19  and  C_21
REMARK   11  A    between atoms: C_28  and  C_30
REMARK                            x       y       z     vdW  Elec       q    Type
REMARK                         _______ _______ _______ _____ _____    ______ ____
ROOT
ATOM      1  C   UNL     1       2.921  -8.982  -3.908  0.00  0.00    +0.020 C 
ATOM      2  C   UNL     1       4.071  -9.639  -3.142  0.00  0.00    +0.027 C 
ATOM      3  C   UNL     1       5.000 -10.348  -4.133  0.00  0.00    +0.108 C 
ATOM      4  N   UNL     1       4.204 -11.280  -4.943  0.00  0.00    -0.297 N 
ATOM      5  C   UNL     1       3.021 -10.770  -5.649  0.00  0.00    +0.108 C 
ATOM      6  C   UNL     1       2.115 -10.057  -4.641  0.00  0.00    +0.027 C 
ATOM      7  C   UNL     1       4.553 -12.579  -5.036  0.00  0.00    +0.247 C 
ATOM      8  O   UNL     1       5.475 -13.010  -4.371  0.00  0.00    -0.270 OA
ENDROOT
BRANCH   7   9
ATOM      9  C   UNL     1       3.816 -13.477  -5.946  0.00  0.00    +0.041 A 
ATOM     10  C   UNL     1       3.479 -14.772  -5.528  0.00  0.00    +0.015 A 
ATOM     11  C   UNL     1       2.799 -15.610  -6.359  0.00  0.00    +0.032 A 
ATOM     12  C   UNL     1       2.431 -15.181  -7.640  0.00  0.00    +0.110 A 
ATOM     13  C   UNL     1       2.765 -13.882  -8.066  0.00  0.00    +0.156 A 
ATOM     14  C   UNL     1       3.451 -13.034  -7.217  0.00  0.00    +0.061 A 
ATOM     15  O   UNL     1       2.287 -13.759  -9.325  0.00  0.00    -0.435 OA
ATOM     16  C   UNL     1       1.689 -14.917  -9.659  0.00  0.00    +0.228 A 
ATOM     17  N   UNL     1       1.769 -15.768  -8.666  0.00  0.00    -0.209 NA
BRANCH  16  18
ATOM     18  C   UNL     1       1.038 -15.190 -10.958  0.00  0.00    +0.037 A 
ATOM     19  C   UNL     1       1.016 -14.209 -11.951  0.00  0.00    +0.013 A 
ATOM     20  C   UNL     1       0.406 -14.470 -13.161  0.00  0.00    +0.001 A 
ATOM     21  C   UNL     1      -0.182 -15.701 -13.391  0.00  0.00    +0.000 A 
ATOM     22  C   UNL     1      -0.164 -16.678 -12.410  0.00  0.00    +0.001 A 
ATOM     23  C   UNL     1       0.447 -16.432 -11.198  0.00  0.00    +0.013 A 
ENDBRANCH  16  18
ENDBRANCH   7   9
BRANCH   1  26
ATOM     24  C   UNL     1       1.838  -6.946  -3.061  0.00  0.00    +0.233 C 
ATOM     25  O   UNL     1       2.456  -6.263  -4.057  0.00  0.00    -0.271 OA
ATOM     26  C   UNL     1       2.023  -8.255  -2.940  0.00  0.00    +0.044 C 
BRANCH  24  27
ATOM     27  N   UNL     1       1.011  -6.276  -2.169  0.00  0.00    -0.314 N 
ATOM     28  H   UNL     1       0.569  -6.764  -1.457  0.00  0.00    +0.149 HD
BRANCH  27  29
ATOM     29  C   UNL     1       0.806  -4.831  -2.303  0.00  0.00    +0.086 C 
BRANCH  29  30
ATOM     30  C   UNL     1      -0.140  -4.346  -1.203  0.00  0.00    -0.060 C 
BRANCH  30  31
ATOM     31  N   UNL     1      -0.252  -2.882  -1.264  0.00  0.00    +0.380 N 
ATOM     32  H   UNL     1       0.669  -2.473  -1.225  0.00  0.00    -0.082 HD
BRANCH  31  34
ATOM     33  C   UNL     1      -0.913  -0.969  -2.642  0.00  0.00    -0.017 C 
ATOM     34  C   UNL     1      -0.908  -2.494  -2.521  0.00  0.00    -0.082 C 
ENDBRANCH  31  34
BRANCH  31  35
ATOM     35  C   UNL     1      -1.050  -2.405  -0.128  0.00  0.00    -0.082 C 
ATOM     36  C   UNL     1      -0.295  -2.675   1.175  0.00  0.00    -0.017 C 
ENDBRANCH  31  35
ENDBRANCH  30  31
ENDBRANCH  29  30
ENDBRANCH  27  29
ENDBRANCH  24  27
ENDBRANCH   1  26
TORSDOF 9
