REMARK  Name = ZINC15226786
REMARK  3 active torsions:
REMARK  status: ('A' for Active; 'I' for Inactive)
REMARK    1  A    between atoms: C_4  and  N_8
REMARK    2  A    between atoms: C_12  and  N_17
REMARK    3  A    between atoms: N_14  and  O_15
REMARK                            x       y       z     vdW  Elec       q    Type
REMARK                         _______ _______ _______ _____ _____    ______ ____
ROOT
ATOM      1  N   UNL     1       3.622  -0.650  -0.036  0.00  0.00    -0.283 N 
ATOM      2  C   UNL     1       3.646  -2.035   0.061  0.00  0.00    +0.217 A 
ATOM      3  N   UNL     1       2.595  -2.820   0.073  0.00  0.00    -0.311 N 
ATOM      4  H   UNL     1       1.673  -2.524   0.015  0.00  0.00    +0.170 HD
ATOM      5  C   UNL     1       2.995  -4.102   0.178  0.00  0.00    +0.165 A 
ATOM      6  C   UNL     1       4.346  -4.120   0.234  0.00  0.00    +0.324 A 
ATOM      7  N   UNL     1       4.765  -2.807   0.153  0.00  0.00    -0.112 N 
ATOM      8  O   UNL     1       5.140  -5.221   0.343  0.00  0.00    -0.261 OA
ATOM      9  H   UNL     1       4.450  -0.157  -0.138  0.00  0.00    +0.155 HD
ENDROOT
BRANCH   1  13
ATOM     10  C   UNL     1      -0.011   1.386   0.107  0.00  0.00    +0.021 A 
ATOM     11  C   UNL     1       1.044   1.907  -0.621  0.00  0.00    +0.023 A 
ATOM     12  C   UNL     1       2.250   1.234  -0.670  0.00  0.00    +0.062 A 
ATOM     13  C   UNL     1       2.403   0.033   0.012  0.00  0.00    +0.053 A 
ATOM     14  C   UNL     1       1.342  -0.488   0.742  0.00  0.00    +0.044 A 
ATOM     15  C   UNL     1       0.138   0.190   0.788  0.00  0.00    +0.043 A 
ATOM     16 CL   UNL     1      -1.188  -0.459   1.700  0.00  0.00    -0.083 Cl
ATOM     17 CL   UNL     1       3.572   1.889  -1.585  0.00  0.00    -0.082 Cl
ENDBRANCH   1  13
BRANCH   5  18
ATOM     18  N   UNL     1       2.151  -5.231   0.223  0.00  0.00    -0.340 N 
ATOM     19  H   UNL     1       1.188  -5.119   0.177  0.00  0.00    +0.144 HD
ATOM     20  H   UNL     1       2.532  -6.119   0.300  0.00  0.00    +0.144 HD
ENDBRANCH   5  18
BRANCH   7  21
ATOM     21  O   UNL     1       6.105  -2.349   0.168  0.00  0.00    -0.421 OA
ATOM     22  H   UNL     1       6.446  -2.160   1.053  0.00  0.00    +0.326 HD
ENDBRANCH   7  21
TORSDOF 3
