REMARK  Name = ZINC18193700
REMARK  7 active torsions:
REMARK  status: ('A' for Active; 'I' for Inactive)
REMARK    1  A    between atoms: C_1  and  C_2
REMARK    2  A    between atoms: C_3  and  C_14
REMARK    3  A    between atoms: C_4  and  O_13
REMARK    4  A    between atoms: N_5  and  C_7
REMARK    5  A    between atoms: C_14  and  C_26
REMARK    6  A    between atoms: N_15  and  N_16
REMARK    7  A    between atoms: C_17  and  C_19
REMARK                            x       y       z     vdW  Elec       q    Type
REMARK                         _______ _______ _______ _____ _____    ______ ____
ROOT
ATOM      1  C   UNL     1      -0.071   5.324   0.042  0.00  0.00    +0.103 C 
ATOM      2  N   UNL     1       1.050   5.993   0.121  0.00  0.00    -0.179 NA
ENDROOT
BRANCH   1   5
ATOM      3  C   UNL     1      -1.923   6.311   2.417  0.00  0.00    +0.068 C 
ATOM      4  C   UNL     1      -2.187   6.489   0.944  0.00  0.00    +0.073 A 
ATOM      5  C   UNL     1      -1.354   6.044  -0.103  0.00  0.00    +0.086 A 
ATOM      6  C   UNL     1      -1.964   6.403  -1.293  0.00  0.00    +0.225 A 
ATOM      7  N   UNL     1      -3.118   7.044  -0.974  0.00  0.00    -0.200 N 
ATOM      8  N   UNL     1      -3.225   7.084   0.421  0.00  0.00    -0.168 NA
BRANCH   7   9
ATOM      9  C   UNL     1      -4.042   7.575  -1.885  0.00  0.00    +0.069 A 
ATOM     10  C   UNL     1      -3.601   8.140  -3.073  0.00  0.00    +0.028 A 
ATOM     11  C   UNL     1      -4.514   8.658  -3.971  0.00  0.00    +0.002 A 
ATOM     12  C   UNL     1      -5.866   8.623  -3.681  0.00  0.00    +0.000 A 
ATOM     13  C   UNL     1      -6.308   8.065  -2.496  0.00  0.00    +0.002 A 
ATOM     14  C   UNL     1      -5.400   7.541  -1.597  0.00  0.00    +0.028 A 
ENDBRANCH   7   9
BRANCH   6  15
ATOM     15  O   UNL     1      -1.498   6.159  -2.543  0.00  0.00    -0.492 OA
ATOM     16  H   UNL     1      -1.794   5.317  -2.916  0.00  0.00    +0.294 HD
ENDBRANCH   6  15
ENDBRANCH   1   5
BRANCH   1  17
ATOM     17  C   UNL     1      -0.054   3.845   0.099  0.00  0.00    +0.003 A 
ATOM     18  C   UNL     1      -0.916   3.103  -0.710  0.00  0.00    +0.010 A 
ATOM     19  C   UNL     1      -0.896   1.725  -0.653  0.00  0.00    +0.001 A 
ATOM     20  C   UNL     1      -0.024   1.078   0.204  0.00  0.00    +0.000 A 
ATOM     21  C   UNL     1       0.829   1.807   1.013  0.00  0.00    +0.001 A 
ATOM     22  C   UNL     1       0.823   3.186   0.961  0.00  0.00    +0.010 A 
ENDBRANCH   1  17
BRANCH   2  23
ATOM     23  N   UNL     1       2.274   5.314   0.106  0.00  0.00    -0.202 N 
ATOM     24  C   UNL     1       3.423   5.990   0.302  0.00  0.00    +0.264 C 
ATOM     25  O   UNL     1       3.397   7.192   0.491  0.00  0.00    -0.268 OA
ATOM     26  H   UNL     1       2.296   4.356  -0.044  0.00  0.00    +0.178 HD
BRANCH  24  27
ATOM     27  C   UNL     1       4.715   5.274   0.286  0.00  0.00    +0.052 A 
ATOM     28  C   UNL     1       4.749   3.894   0.075  0.00  0.00    +0.014 A 
ATOM     29  C   UNL     1       5.958   3.231   0.057  0.00  0.00    +0.001 A 
ATOM     30  C   UNL     1       7.137   3.929   0.258  0.00  0.00    +0.001 A 
ATOM     31  C   UNL     1       7.111   5.295   0.472  0.00  0.00    +0.016 A 
ATOM     32  C   UNL     1       5.908   5.972   0.488  0.00  0.00    +0.030 A 
ATOM     33 BR   UNL     1       5.874   7.840   0.784  0.00  0.00    -0.050 Br
ENDBRANCH  24  27
ENDBRANCH   2  23
TORSDOF 6
