REMARK  Name = ZINC43732490
REMARK  10 active torsions:
REMARK  status: ('A' for Active; 'I' for Inactive)
REMARK    1  A    between atoms: C_1  and  C_2
REMARK    2  A    between atoms: C_2  and  C_3
REMARK    3  A    between atoms: C_3  and  C_4
REMARK    4  A    between atoms: C_7  and  C_10
REMARK    5  A    between atoms: C_10  and  C_12
REMARK    6  A    between atoms: C_14  and  C_27
REMARK    7  A    between atoms: C_30  and  O_35
REMARK    8  A    between atoms: C_32  and  O_33
REMARK    9  A    between atoms: O_33  and  C_34
REMARK   10  A    between atoms: O_35  and  C_36
REMARK                            x       y       z     vdW  Elec       q    Type
REMARK                         _______ _______ _______ _____ _____    ______ ____
ROOT
ATOM      1  C   UNL     1      -0.280  -6.860  -1.877  0.00  0.00    +0.073 C 
ATOM      2  H   UNL     1      -1.931  -9.303  -3.079  0.00  0.00    +0.194 HD
ATOM      3  C   UNL     1      -0.486  -8.215  -2.049  0.00  0.00    +0.083 C 
ATOM      4  N   UNL     1      -1.594  -8.430  -2.825  0.00  0.00    -0.263 N 
ATOM      5  O   UNL     1      -2.179  -7.197  -3.206  0.00  0.00    -0.248 OA
ATOM      6  C   UNL     1      -1.386  -6.165  -2.624  0.00  0.00    +0.229 C 
ATOM      7  C   UNL     1      -2.196  -5.284  -1.714  0.00  0.00    +0.021 A 
ATOM      8  C   UNL     1      -2.938  -5.524  -0.579  0.00  0.00    +0.009 A 
ATOM      9  C   UNL     1      -3.590  -4.482   0.056  0.00  0.00    +0.000 A 
ATOM     10  C   UNL     1      -3.496  -3.199  -0.454  0.00  0.00    +0.002 A 
ATOM     11  C   UNL     1      -2.753  -2.954  -1.590  0.00  0.00    +0.024 A 
ATOM     12  C   UNL     1      -2.093  -3.998  -2.235  0.00  0.00    +0.040 A 
ATOM     13  N   UNL     1      -1.293  -4.003  -3.379  0.00  0.00    -0.282 N 
ATOM     14  C   UNL     1      -0.838  -5.235  -3.675  0.00  0.00    +0.261 C 
ATOM     15  O   UNL     1      -0.124  -5.537  -4.608  0.00  0.00    -0.271 OA
ATOM     16  H   UNL     1      -1.089  -3.211  -3.900  0.00  0.00    +0.155 HD
ENDROOT
BRANCH   3  17
ATOM     17  C   UNL     1       0.363  -9.275  -1.482  0.00  0.00    +0.042 A 
ATOM     18  C   UNL     1       0.591  -9.329  -0.102  0.00  0.00    +0.017 A 
ATOM     19  C   UNL     1       1.385 -10.322   0.424  0.00  0.00    +0.046 A 
ATOM     20  C   UNL     1       1.963 -11.274  -0.410  0.00  0.00    +0.124 A 
ATOM     21  C   UNL     1       1.743 -11.230  -1.779  0.00  0.00    +0.092 A 
ATOM     22  C   UNL     1       0.942 -10.240  -2.321  0.00  0.00    +0.133 A 
BRANCH  22  23
ATOM     23  O   UNL     1       0.722 -10.198  -3.659  0.00  0.00    -0.494 OA
ATOM     24  C   UNL     1       1.443 -11.134  -4.465  0.00  0.00    +0.277 C 
ENDBRANCH  22  23
BRANCH  20  25
ATOM     25  O   UNL     1       2.745 -12.250   0.117  0.00  0.00    -0.495 OA
ATOM     26  C   UNL     1       2.930 -12.238   1.534  0.00  0.00    +0.277 C 
ENDBRANCH  20  25
ENDBRANCH   3  17
BRANCH   1  27
ATOM     27  C   UNL     1       0.753  -6.253  -1.146  0.00  0.00    +0.195 C 
ATOM     28  O   UNL     1       0.526  -5.788  -0.042  0.00  0.00    -0.287 OA
BRANCH  27  32
ATOM     29  C   UNL     1       4.670  -6.034  -2.780  0.00  0.00    -0.047 A 
ATOM     30  C   UNL     1       4.389  -5.411  -1.577  0.00  0.00    +0.004 A 
ATOM     31  C   UNL     1       3.120  -5.478  -1.041  0.00  0.00    +0.012 A 
ATOM     32  C   UNL     1       2.118  -6.176  -1.715  0.00  0.00    +0.022 A 
ATOM     33  C   UNL     1       2.407  -6.802  -2.928  0.00  0.00    +0.012 A 
ATOM     34  C   UNL     1       3.679  -6.723  -3.456  0.00  0.00    +0.004 A 
BRANCH  29  35
ATOM     35  C   UNL     1       6.059  -5.956  -3.359  0.00  0.00    +0.035 C 
BRANCH  35  37
ATOM     36  C   UNL     1       7.579  -4.644  -4.846  0.00  0.00    +0.004 C 
ATOM     37  C   UNL     1       6.168  -4.723  -4.258  0.00  0.00    +0.001 C 
ENDBRANCH  35  37
ENDBRANCH  29  35
ENDBRANCH  27  32
ENDBRANCH   1  27
TORSDOF 7
