REMARK  Name = ZINC20080539
REMARK  11 active torsions:
REMARK  status: ('A' for Active; 'I' for Inactive)
REMARK    1  A    between atoms: C_1  and  C_2
REMARK    2  A    between atoms: C_2  and  O_3
REMARK    3  A    between atoms: O_3  and  C_4
REMARK    4  A    between atoms: C_11  and  C_16
REMARK    5  A    between atoms: C_16  and  C_18
REMARK    6  A    between atoms: C_16  and  N_32
REMARK    7  A    between atoms: N_22  and  C_23
REMARK    8  A    between atoms: C_23  and  C_24
REMARK    9  A    between atoms: C_27  and  O_30
REMARK   10  A    between atoms: O_30  and  C_31
REMARK   11  A    between atoms: N_35  and  C_38
REMARK                            x       y       z     vdW  Elec       q    Type
REMARK                         _______ _______ _______ _____ _____    ______ ____
ROOT
ATOM      1  C   UNL     1      -2.331  -0.862   1.881  0.00  0.00    +0.162 C 
ENDROOT
BRANCH   1   9
ATOM      2  C   UNL     1      -1.679   4.533   4.865  0.00  0.00    +0.121 A 
ATOM      3  C   UNL     1      -3.039   4.755   5.071  0.00  0.00    +0.047 A 
ATOM      4  C   UNL     1      -3.974   3.850   4.621  0.00  0.00    +0.030 A 
ATOM      5  C   UNL     1      -3.563   2.701   3.952  0.00  0.00    +0.049 A 
ATOM      6  C   UNL     1      -2.191   2.473   3.742  0.00  0.00    +0.002 A 
ATOM      7  C   UNL     1      -1.250   3.399   4.205  0.00  0.00    +0.055 A 
ATOM      8  C   UNL     1      -1.773   1.257   3.041  0.00  0.00    +0.021 A 
ATOM      9  C   UNL     1      -2.728   0.397   2.610  0.00  0.00    +0.042 A 
ATOM     10  C   UNL     1      -4.091   0.672   2.845  0.00  0.00    +0.254 A 
ATOM     11  O   UNL     1      -4.933  -0.117   2.453  0.00  0.00    -0.268 OA
ATOM     12  N   UNL     1      -4.485   1.783   3.492  0.00  0.00    -0.322 N 
ATOM     13  H   UNL     1      -5.560   1.955   3.652  0.00  0.00    +0.169 HD
BRANCH   2  14
ATOM     14  O   UNL     1      -0.769   5.437   5.318  0.00  0.00    -0.492 OA
BRANCH  14  16
ATOM     15  C   UNL     1      -0.117   7.483   6.425  0.00  0.00    +0.048 C 
ATOM     16  C   UNL     1      -1.280   6.588   5.993  0.00  0.00    +0.225 C 
ENDBRANCH  14  16
ENDBRANCH   2  14
ENDBRANCH   1   9
BRANCH   1  17
ATOM     17  N   UNL     1      -2.805  -2.032   2.632  0.00  0.00    -0.292 NA
ATOM     18  C   UNL     1      -2.306  -2.010   4.014  0.00  0.00    +0.067 C 
ATOM     19  C   UNL     1      -2.885  -3.200   4.782  0.00  0.00    -0.064 C 
ATOM     20  N   UNL     1      -2.503  -4.448   4.107  0.00  0.00    +0.379 N 
ATOM     21  C   UNL     1      -3.003  -4.470   2.726  0.00  0.00    -0.064 C 
ATOM     22  C   UNL     1      -2.424  -3.280   1.957  0.00  0.00    +0.067 C 
ATOM     23  C   UNL     1      -2.978  -5.618   4.858  0.00  0.00    -0.096 C 
ATOM     24  H   UNL     1      -1.405  -4.493   4.072  0.00  0.00    -0.082 HD
ENDBRANCH   1  17
BRANCH   1  25
ATOM     25  C   UNL     1      -0.830  -0.919   1.758  0.00  0.00    +0.173 A 
ATOM     26  N   UNL     1       0.027  -1.146   2.724  0.00  0.00    -0.111 NA
ATOM     27  N   UNL     1       1.212  -1.114   2.221  0.00  0.00    -0.023 NA
ATOM     28  N   UNL     1       1.134  -0.878   0.958  0.00  0.00    -0.044 NA
ATOM     29  N   UNL     1      -0.108  -0.746   0.635  0.00  0.00    -0.223 N 
BRANCH  29  30
ATOM     30  C   UNL     1      -0.635  -0.466  -0.703  0.00  0.00    +0.182 C 
BRANCH  30  31
ATOM     31  C   UNL     1      -0.621   1.021  -0.948  0.00  0.00    -0.026 A 
ATOM     32  C   UNL     1      -1.760   1.769  -0.715  0.00  0.00    +0.009 A 
ATOM     33  C   UNL     1      -1.748   3.133  -0.933  0.00  0.00    +0.046 A 
ATOM     34  C   UNL     1      -0.596   3.750  -1.397  0.00  0.00    +0.120 A 
ATOM     35  C   UNL     1       0.544   2.996  -1.636  0.00  0.00    +0.046 A 
ATOM     36  C   UNL     1       0.528   1.633  -1.411  0.00  0.00    +0.009 A 
BRANCH  34  37
ATOM     37  O   UNL     1      -0.583   5.091  -1.618  0.00  0.00    -0.495 OA
ATOM     38  C   UNL     1      -1.792   5.804  -1.350  0.00  0.00    +0.277 C 
ENDBRANCH  34  37
ENDBRANCH  30  31
ENDBRANCH  29  30
ENDBRANCH   1  25
TORSDOF 8
