REMARK  Name = ZINC56748111
REMARK  8 active torsions:
REMARK  status: ('A' for Active; 'I' for Inactive)
REMARK    1  A    between atoms: C_4  and  O_7
REMARK    2  A    between atoms: O_7  and  C_8
REMARK    3  A    between atoms: C_8  and  C_9
REMARK    4  A    between atoms: C_14  and  N_15
REMARK    5  A    between atoms: N_18  and  C_19
REMARK    6  A    between atoms: C_19  and  C_20
REMARK    7  A    between atoms: C_20  and  C_22
REMARK    8  A    between atoms: C_20  and  O_30
REMARK                            x       y       z     vdW  Elec       q    Type
REMARK                         _______ _______ _______ _____ _____    ______ ____
ROOT
ATOM      1  N   UNL     1       4.039  -4.860  -0.064  0.00  0.00    -0.269 N 
ATOM      2  C   UNL     1       4.097  -6.021  -0.745  0.00  0.00    +0.304 C 
ATOM      3  O   UNL     1       5.132  -6.355  -1.290  0.00  0.00    -0.253 OA
ATOM      4  N   UNL     1       3.009  -6.812  -0.823  0.00  0.00    -0.296 N 
ATOM      5  H   UNL     1       3.235  -4.624   0.425  0.00  0.00    +0.156 HD
ATOM      6  H   UNL     1       2.184  -6.545  -0.388  0.00  0.00    +0.150 HD
ENDROOT
BRANCH   1  12
ATOM      7  C   UNL     1       4.942  -2.620  -0.047  0.00  0.00    +0.011 A 
ATOM      8  C   UNL     1       6.030  -1.768  -0.039  0.00  0.00    +0.009 A 
ATOM      9  C   UNL     1       7.313  -2.283  -0.052  0.00  0.00    +0.000 A 
ATOM     10  C   UNL     1       7.512  -3.651  -0.073  0.00  0.00    +0.002 A 
ATOM     11  C   UNL     1       6.429  -4.508  -0.081  0.00  0.00    +0.024 A 
ATOM     12  C   UNL     1       5.139  -3.994  -0.062  0.00  0.00    +0.041 A 
BRANCH   7  13
ATOM     13  C   UNL     1       3.544  -2.058  -0.033  0.00  0.00    +0.266 C 
BRANCH  13  14
ATOM     14  O   UNL     1       3.604  -0.630  -0.020  0.00  0.00    -0.487 OA
BRANCH  14  18
ATOM     15  C   UNL     1       0.011   1.396   0.020  0.00  0.00    +0.000 A 
ATOM     16  C   UNL     1       1.201   2.101   0.021  0.00  0.00    +0.004 A 
ATOM     17  C   UNL     1       2.406   1.425   0.008  0.00  0.00    +0.045 A 
ATOM     18  C   UNL     1       2.421   0.037  -0.006  0.00  0.00    +0.121 A 
ATOM     19  C   UNL     1       1.226  -0.667  -0.007  0.00  0.00    +0.045 A 
ATOM     20  C   UNL     1       0.024   0.014   0.006  0.00  0.00    +0.004 A 
ENDBRANCH  14  18
ENDBRANCH  13  14
ENDBRANCH   7  13
ENDBRANCH   1  12
BRANCH   4  21
ATOM     21  C   UNL     1       3.072  -8.075  -1.563  0.00  0.00    +0.141 C 
BRANCH  21  22
ATOM     22  C   UNL     1       1.713  -8.774  -1.496  0.00  0.00    +0.162 C 
BRANCH  22  23
ATOM     23  C   UNL     1       1.778 -10.072  -2.257  0.00  0.00    -0.015 A 
ATOM     24  C   UNL     1       2.243 -11.216  -1.634  0.00  0.00    +0.009 A 
ATOM     25  C   UNL     1       2.303 -12.408  -2.331  0.00  0.00    +0.041 A 
ATOM     26  C   UNL     1       1.897 -12.458  -3.653  0.00  0.00    +0.158 A 
ATOM     27  C   UNL     1       1.431 -11.312  -4.278  0.00  0.00    +0.159 A 
ATOM     28  C   UNL     1       1.367 -10.120  -3.576  0.00  0.00    +0.047 A 
ATOM     29  F   UNL     1       1.035 -11.358  -5.569  0.00  0.00    -0.202 F 
ATOM     30  F   UNL     1       1.956 -13.623  -4.335  0.00  0.00    -0.202 F 
ENDBRANCH  22  23
BRANCH  22  31
ATOM     31  O   UNL     1       1.380  -9.038  -0.131  0.00  0.00    -0.386 OA
ATOM     32  H   UNL     1       2.016  -9.605   0.326  0.00  0.00    +0.210 HD
ENDBRANCH  22  31
ENDBRANCH  21  22
ENDBRANCH   4  21
TORSDOF 8
