REMARK  Name = ZINC39662850
REMARK  10 active torsions:
REMARK  status: ('A' for Active; 'I' for Inactive)
REMARK    1  A    between atoms: C_1  and  C_2
REMARK    2  A    between atoms: C_2  and  C_3
REMARK    3  A    between atoms: C_2  and  C_4
REMARK    4  A    between atoms: C_4  and  C_6
REMARK    5  A    between atoms: C_4  and  O_32
REMARK    6  A    between atoms: C_10  and  C_19
REMARK    7  A    between atoms: N_21  and  C_22
REMARK    8  A    between atoms: C_22  and  C_23
REMARK    9  A    between atoms: C_26  and  C_29
REMARK   10  A    between atoms: O_32  and  C_33
REMARK                            x       y       z     vdW  Elec       q    Type
REMARK                         _______ _______ _______ _____ _____    ______ ____
ROOT
ATOM      1  C   UNL     1      -2.248   0.026  -1.003  0.00  0.00    +0.257 C 
ATOM      2  O   UNL     1      -2.878  -0.648  -1.791  0.00  0.00    -0.272 OA
ATOM      3  N   UNL     1      -2.386   1.367  -1.003  0.00  0.00    -0.297 N 
ATOM      4  C   UNL     1      -1.647   2.356  -0.183  0.00  0.00    +0.121 C 
ATOM      5  C   UNL     1      -1.388   3.541  -1.139  0.00  0.00    +0.100 C 
ATOM      6  C   UNL     1      -2.484   3.426  -2.212  0.00  0.00    -0.004 C 
ATOM      7  C   UNL     1      -3.306   2.187  -1.828  0.00  0.00    +0.115 C 
ATOM      8  C   UNL     1      -3.367   4.670  -2.203  0.00  0.00    -0.010 C 
ATOM      9  C   UNL     1      -4.412   4.557  -3.316  0.00  0.00    -0.082 C 
ATOM     10  N   UNL     1      -3.736   4.422  -4.612  0.00  0.00    +0.379 N 
ATOM     11  C   UNL     1      -2.963   3.175  -4.646  0.00  0.00    -0.082 C 
ATOM     12  C   UNL     1      -1.857   3.229  -3.589  0.00  0.00    -0.010 C 
ATOM     13  H   UNL     1      -4.425   4.410  -5.349  0.00  0.00    -0.086 HD
ATOM     14  H   UNL     1      -3.115   5.206  -4.750  0.00  0.00    -0.086 HD
ENDROOT
BRANCH   5  15
ATOM     15  C   UNL     1      -1.511   4.848  -0.400  0.00  0.00    +0.218 C 
ATOM     16  O   UNL     1      -2.201   4.920   0.595  0.00  0.00    -0.275 OA
ATOM     17  N   UNL     1      -0.854   5.938  -0.844  0.00  0.00    -0.315 N 
ATOM     18  H   UNL     1      -0.302   5.881  -1.640  0.00  0.00    +0.149 HD
BRANCH  17  19
ATOM     19  C   UNL     1      -0.973   7.209  -0.125  0.00  0.00    +0.107 C 
BRANCH  19  20
ATOM     20  C   UNL     1      -0.135   8.276  -0.832  0.00  0.00    +0.006 C 
ATOM     21  C   UNL     1       1.346   7.900  -0.747  0.00  0.00    +0.006 C 
ATOM     22  C   UNL     1       2.184   8.967  -1.455  0.00  0.00    +0.015 C 
ATOM     23  C   UNL     1       1.962  10.321  -0.778  0.00  0.00    +0.102 C 
ATOM     24  C   UNL     1       0.482  10.697  -0.863  0.00  0.00    +0.015 C 
ATOM     25  C   UNL     1      -0.357   9.630  -0.156  0.00  0.00    +0.006 C 
BRANCH  23  26
ATOM     26  C   UNL     1       2.788  11.372  -1.475  0.00  0.00    +0.359 C 
ATOM     27  O   UNL     1       2.402  12.528  -1.507  0.00  0.00    -0.246 OA
ATOM     28  O   UNL     1       3.841  11.066  -2.007  0.00  0.00    -0.246 OA
ENDBRANCH  23  26
ENDBRANCH  19  20
ENDBRANCH  17  19
ENDBRANCH   5  15
BRANCH   1  29
ATOM     29  C   UNL     1      -1.313  -0.635  -0.024  0.00  0.00    +0.261 C 
BRANCH  29  31
ATOM     30  C   UNL     1       0.659   0.559  -0.986  0.00  0.00    +0.011 C 
ATOM     31  C   UNL     1       0.061  -0.814  -0.672  0.00  0.00    +0.033 C 
ATOM     32  C   UNL     1       0.985  -1.565   0.288  0.00  0.00    +0.011 C 
ENDBRANCH  29  31
BRANCH  29  33
ATOM     33  O   UNL     1      -1.836  -1.914   0.344  0.00  0.00    -0.479 OA
BRANCH  33  34
ATOM     34  C   UNL     1      -1.590  -2.339   1.611  0.00  0.00    +0.122 A 
ATOM     35  C   UNL     1      -0.939  -1.506   2.510  0.00  0.00    +0.045 A 
ATOM     36  C   UNL     1      -0.691  -1.940   3.797  0.00  0.00    +0.004 A 
ATOM     37  C   UNL     1      -1.090  -3.204   4.191  0.00  0.00    +0.000 A 
ATOM     38  C   UNL     1      -1.739  -4.036   3.297  0.00  0.00    +0.004 A 
ATOM     39  C   UNL     1      -1.995  -3.604   2.010  0.00  0.00    +0.045 A 
ENDBRANCH  33  34
ENDBRANCH  29  33
ENDBRANCH   1  29
TORSDOF 8
