REMARK  Name = ZINC21220809
REMARK  10 active torsions:
REMARK  status: ('A' for Active; 'I' for Inactive)
REMARK    1  A    between atoms: C_1  and  C_2
REMARK    2  A    between atoms: C_2  and  C_3
REMARK    3  A    between atoms: C_2  and  C_4
REMARK    4  A    between atoms: C_2  and  C_5
REMARK    5  A    between atoms: C_8  and  C_11
REMARK    6  A    between atoms: C_16  and  C_21
REMARK    7  A    between atoms: C_24  and  O_29
REMARK    8  A    between atoms: C_25  and  O_27
REMARK    9  A    between atoms: O_27  and  C_28
REMARK   10  A    between atoms: O_29  and  C_30
REMARK                            x       y       z     vdW  Elec       q    Type
REMARK                         _______ _______ _______ _____ _____    ______ ____
ROOT
ATOM      1  C   UNL     1      -3.306   3.619  -1.279  0.00  0.00    +0.136 C 
ATOM      2  C   UNL     1      -3.790   2.204  -1.479  0.00  0.00    +0.036 C 
ATOM      3  C   UNL     1      -3.353   1.119  -0.815  0.00  0.00    +0.017 C 
ATOM      4  C   UNL     1      -3.939  -0.252  -1.105  0.00  0.00    +0.059 C 
ATOM      5  C   UNL     1      -4.335  -0.346  -2.578  0.00  0.00    +0.032 C 
ATOM      6  C   UNL     1      -5.375   0.747  -2.853  0.00  0.00    +0.088 C 
ATOM      7  C   UNL     1      -4.786   2.073  -2.475  0.00  0.00    +0.163 C 
ATOM      8  O   UNL     1      -5.179   3.072  -3.045  0.00  0.00    -0.292 OA
ATOM      9  N   UNL     1      -2.398   1.142   0.150  0.00  0.00    -0.316 N 
ATOM     10  C   UNL     1      -1.189   1.818   0.056  0.00  0.00    +0.052 A 
ATOM     11  C   UNL     1       0.029   1.160   0.064  0.00  0.00    +0.025 A 
ATOM     12  C   UNL     1       1.200   1.899   0.054  0.00  0.00    +0.002 A 
ATOM     13  C   UNL     1       1.154   3.281   0.043  0.00  0.00    +0.002 A 
ATOM     14  C   UNL     1      -0.063   3.941   0.024  0.00  0.00    +0.025 A 
ATOM     15  C   UNL     1      -1.236   3.204   0.016  0.00  0.00    +0.049 A 
ATOM     16  N   UNL     1      -2.484   3.817  -0.092  0.00  0.00    -0.331 N 
ATOM     17  H   UNL     1      -2.555   0.596   1.092  0.00  0.00    +0.152 HD
ATOM     18  H   UNL     1      -2.846   4.454   0.728  0.00  0.00    +0.147 HD
ENDROOT
BRANCH   1  22
ATOM     19  C   UNL     1      -1.054   4.775  -4.720  0.00  0.00    -0.042 A 
ATOM     20  C   UNL     1      -0.610   3.739  -3.919  0.00  0.00    +0.004 A 
ATOM     21  C   UNL     1      -1.339   3.365  -2.806  0.00  0.00    +0.006 A 
ATOM     22  C   UNL     1      -2.511   4.027  -2.493  0.00  0.00    -0.023 A 
ATOM     23  C   UNL     1      -2.958   5.060  -3.296  0.00  0.00    +0.006 A 
ATOM     24  C   UNL     1      -2.226   5.437  -4.407  0.00  0.00    +0.004 A 
BRANCH  19  26
ATOM     25  C   UNL     1      -0.147   3.996  -6.892  0.00  0.00    +0.015 C 
ATOM     26  C   UNL     1      -0.259   5.183  -5.933  0.00  0.00    -0.013 C 
ATOM     27  C   UNL     1      -0.963   6.344  -6.638  0.00  0.00    +0.015 C 
ATOM     28  C   UNL     1       1.142   5.623  -5.501  0.00  0.00    +0.015 C 
ENDBRANCH  19  26
ENDBRANCH   1  22
BRANCH   5  29
ATOM     29  C   UNL     1      -4.932  -1.701  -2.860  0.00  0.00    -0.040 A 
ATOM     30  C   UNL     1      -6.068  -2.108  -2.185  0.00  0.00    +0.008 A 
ATOM     31  C   UNL     1      -6.620  -3.350  -2.440  0.00  0.00    +0.049 A 
ATOM     32  C   UNL     1      -6.034  -4.190  -3.374  0.00  0.00    +0.161 A 
ATOM     33  C   UNL     1      -4.891  -3.780  -4.053  0.00  0.00    +0.162 A 
ATOM     34  C   UNL     1      -4.346  -2.532  -3.796  0.00  0.00    +0.053 A 
BRANCH  33  35
ATOM     35  O   UNL     1      -4.312  -4.600  -4.971  0.00  0.00    -0.491 OA
ATOM     36  C   UNL     1      -3.141  -4.113  -5.629  0.00  0.00    +0.277 C 
ENDBRANCH  33  35
BRANCH  32  37
ATOM     37  O   UNL     1      -6.575  -5.411  -3.626  0.00  0.00    -0.491 OA
ATOM     38  C   UNL     1      -7.749  -5.765  -2.892  0.00  0.00    +0.277 C 
ENDBRANCH  32  37
ENDBRANCH   5  29
TORSDOF 5
