REMARK  Name = ZINC12579691
REMARK  4 active torsions:
REMARK  status: ('A' for Active; 'I' for Inactive)
REMARK    1  A    between atoms: C_4  and  N_7
REMARK    2  A    between atoms: N_7  and  C_8
REMARK    3  A    between atoms: N_7  and  C_14
REMARK    4  A    between atoms: C_17  and  C_20
REMARK                            x       y       z     vdW  Elec       q    Type
REMARK                         _______ _______ _______ _____ _____    ______ ____
ROOT
ATOM      1  C   UNL     1       4.193  -1.826   0.457  0.00  0.00    +0.039 A 
ATOM      2  C   UNL     1       3.469  -3.012   0.441  0.00  0.00    +0.024 A 
ATOM      3  C   UNL     1       4.037  -4.172   0.929  0.00  0.00    +0.009 A 
ATOM      4  C   UNL     1       5.325  -4.155   1.433  0.00  0.00    -0.007 A 
ATOM      5  C   UNL     1       6.048  -2.976   1.450  0.00  0.00    +0.009 A 
ATOM      6  C   UNL     1       5.488  -1.813   0.958  0.00  0.00    +0.024 A 
ENDROOT
BRANCH   4   7
ATOM      7  C   UNL     1       5.941  -5.423   1.965  0.00  0.00    +0.209 C 
ATOM      8  N   UNL     1       6.732  -5.124   3.173  0.00  0.00    -0.294 N 
ATOM      9  C   UNL     1       8.011  -4.614   3.001  0.00  0.00    +0.159 C 
ATOM     10  N   UNL     1       8.853  -5.325   2.145  0.00  0.00    -0.259 N 
ATOM     11  C   UNL     1       8.221  -5.930   1.061  0.00  0.00    +0.205 A 
ATOM     12  N   UNL     1       6.848  -5.993   0.962  0.00  0.00    -0.288 N 
ATOM     13  C   UNL     1       6.555  -6.654  -0.196  0.00  0.00    +0.072 A 
ATOM     14  C   UNL     1       5.358  -7.013  -0.803  0.00  0.00    +0.028 A 
ATOM     15  C   UNL     1       5.439  -7.693  -2.007  0.00  0.00    +0.002 A 
ATOM     16  C   UNL     1       6.654  -8.008  -2.592  0.00  0.00    +0.002 A 
ATOM     17  C   UNL     1       7.859  -7.662  -2.008  0.00  0.00    +0.030 A 
ATOM     18  C   UNL     1       7.801  -6.975  -0.791  0.00  0.00    +0.091 A 
ATOM     19  N   UNL     1       8.770  -6.503   0.025  0.00  0.00    -0.214 NA
ATOM     20  N   UNL     1       8.405  -3.529   3.606  0.00  0.00    -0.375 N 
ATOM     21  H   UNL     1       6.370  -5.279   4.060  0.00  0.00    +0.151 HD
ATOM     22  H   UNL     1       7.798  -3.055   4.195  0.00  0.00    +0.158 HD
ATOM     23  H   UNL     1       9.809  -5.393   2.293  0.00  0.00    +0.158 HD
ATOM     24  H   UNL     1       9.305  -3.196   3.466  0.00  0.00    +0.158 HD
ENDBRANCH   4   7
BRANCH   1  25
ATOM     25  N   UNL     1       3.621  -0.650  -0.036  0.00  0.00    -0.269 N 
BRANCH  25  29
ATOM     26  C   UNL     1       1.702   1.982   2.560  0.00  0.00    +0.000 A 
ATOM     27  C   UNL     1       1.871   2.324   1.231  0.00  0.00    +0.002 A 
ATOM     28  C   UNL     1       2.507   1.454   0.367  0.00  0.00    +0.024 A 
ATOM     29  C   UNL     1       2.977   0.234   0.835  0.00  0.00    +0.039 A 
ATOM     30  C   UNL     1       2.806  -0.107   2.171  0.00  0.00    +0.024 A 
ATOM     31  C   UNL     1       2.169   0.767   3.029  0.00  0.00    +0.002 A 
ENDBRANCH  25  29
BRANCH  25  32
ATOM     32  C   UNL     1       3.693  -0.356  -1.402  0.00  0.00    +0.039 A 
ATOM     33  C   UNL     1       4.809   0.291  -1.917  0.00  0.00    +0.024 A 
ATOM     34  C   UNL     1       4.877   0.579  -3.266  0.00  0.00    +0.002 A 
ATOM     35  C   UNL     1       3.835   0.223  -4.104  0.00  0.00    +0.000 A 
ATOM     36  C   UNL     1       2.723  -0.422  -3.594  0.00  0.00    +0.002 A 
ATOM     37  C   UNL     1       2.651  -0.717  -2.247  0.00  0.00    +0.024 A 
ENDBRANCH  25  32
ENDBRANCH   1  25
TORSDOF 4
