REMARK  Name = ZINC16267260
REMARK  14 active torsions:
REMARK  status: ('A' for Active; 'I' for Inactive)
REMARK    1  A    between atoms: C_1  and  C_2
REMARK    2  A    between atoms: C_4  and  C_36
REMARK    3  A    between atoms: C_5  and  N_9
REMARK    4  A    between atoms: C_6  and  C_8
REMARK    5  A    between atoms: N_12  and  C_13
REMARK    6  A    between atoms: C_13  and  C_14
REMARK    7  A    between atoms: C_17  and  C_22
REMARK    8  A    between atoms: C_19  and  C_20
REMARK    9  A    between atoms: C_19  and  C_21
REMARK   10  A    between atoms: C_22  and  N_23
REMARK   11  A    between atoms: N_26  and  C_27
REMARK   12  A    between atoms: C_28  and  C_35
REMARK   13  A    between atoms: C_30  and  C_34
REMARK   14  A    between atoms: C_32  and  C_33
REMARK                            x       y       z     vdW  Elec       q    Type
REMARK                         _______ _______ _______ _____ _____    ______ ____
ROOT
ATOM      1  C   UNL     1       3.940   4.691  -1.928  0.00  0.00    +0.012 C 
ATOM      2  C   UNL     1       2.822   4.817  -2.976  0.00  0.00    +0.011 C 
ATOM      3  C   UNL     1       2.250   3.507  -2.409  0.00  0.00    +0.012 C 
ATOM      4  C   UNL     1       3.679   3.176  -1.946  0.00  0.00    -0.026 C 
ATOM      5  C   UNL     1       3.740   2.527  -0.562  0.00  0.00    +0.011 C 
ATOM      6  C   UNL     1       4.504   2.424  -2.993  0.00  0.00    +0.011 C 
ENDROOT
BRANCH   1   7
ATOM      7  C   UNL     1       5.322   5.082  -2.456  0.00  0.00    +0.109 C 
BRANCH   7  11
ATOM      8  N   UNL     1       6.796   8.443  -2.669  0.00  0.00    -0.269 N 
ATOM      9  C   UNL     1       6.640   7.108  -2.763  0.00  0.00    +0.304 C 
ATOM     10  O   UNL     1       7.535   6.421  -3.217  0.00  0.00    -0.253 OA
ATOM     11  N   UNL     1       5.492   6.533  -2.354  0.00  0.00    -0.299 N 
ATOM     12  H   UNL     1       6.046   9.002  -2.413  0.00  0.00    +0.156 HD
ATOM     13  H   UNL     1       4.778   7.081  -1.992  0.00  0.00    +0.150 HD
BRANCH   8  18
ATOM     14  C   UNL     1      11.841  10.794  -3.771  0.00  0.00    +0.044 C 
ATOM     15  C   UNL     1      10.501  10.170  -3.478  0.00  0.00    -0.050 A 
ATOM     16  C   UNL     1       9.551  10.075  -4.478  0.00  0.00    +0.008 A 
ATOM     17  C   UNL     1       8.322   9.502  -4.213  0.00  0.00    -0.029 A 
ATOM     18  C   UNL     1       8.041   9.023  -2.941  0.00  0.00    +0.041 A 
ATOM     19  C   UNL     1       8.995   9.125  -1.937  0.00  0.00    -0.029 A 
ATOM     20  C   UNL     1      10.224   9.693  -2.210  0.00  0.00    +0.008 A 
ATOM     21  C   UNL     1       8.692   8.611  -0.553  0.00  0.00    +0.045 C 
ATOM     22  C   UNL     1       7.288   9.399  -5.304  0.00  0.00    +0.045 C 
ENDBRANCH   8  18
ENDBRANCH   7  11
ENDBRANCH   1   7
BRANCH   3  23
ATOM     23  C   UNL     1       1.718   2.555  -3.481  0.00  0.00    +0.109 C 
BRANCH  23  24
ATOM     24  N   UNL     1       0.340   2.922  -3.819  0.00  0.00    -0.299 N 
ATOM     25  C   UNL     1      -0.337   2.218  -4.748  0.00  0.00    +0.304 C 
ATOM     26  O   UNL     1       0.196   1.277  -5.305  0.00  0.00    -0.253 OA
ATOM     27  N   UNL     1      -1.604   2.555  -5.059  0.00  0.00    -0.269 N 
ATOM     28  H   UNL     1      -0.085   3.673  -3.375  0.00  0.00    +0.150 HD
ATOM     29  H   UNL     1      -1.989   3.372  -4.704  0.00  0.00    +0.156 HD
BRANCH  27  30
ATOM     30  C   UNL     1      -2.361   1.731  -5.899  0.00  0.00    +0.041 A 
ATOM     31  C   UNL     1      -2.055   1.645  -7.250  0.00  0.00    -0.029 A 
ATOM     32  C   UNL     1      -2.801   0.827  -8.075  0.00  0.00    +0.008 A 
ATOM     33  C   UNL     1      -3.860   0.102  -7.559  0.00  0.00    -0.050 A 
ATOM     34  C   UNL     1      -4.171   0.190  -6.215  0.00  0.00    +0.008 A 
ATOM     35  C   UNL     1      -3.425   1.002  -5.383  0.00  0.00    -0.029 A 
ATOM     36  C   UNL     1      -3.765   1.097  -3.918  0.00  0.00    +0.045 C 
ATOM     37  C   UNL     1      -4.675  -0.786  -8.463  0.00  0.00    +0.044 C 
ATOM     38  C   UNL     1      -0.906   2.440  -7.815  0.00  0.00    +0.045 C 
ENDBRANCH  27  30
ENDBRANCH  23  24
ENDBRANCH   3  23
TORSDOF 6
