REMARK  Name = ZINC60024429
REMARK  15 active torsions:
REMARK  status: ('A' for Active; 'I' for Inactive)
REMARK    1  A    between atoms: C_1  and  C_2
REMARK    2  A    between atoms: C_2  and  N_3
REMARK    3  A    between atoms: N_3  and  C_4
REMARK    4  A    between atoms: N_3  and  C_34
REMARK    5  A    between atoms: C_7  and  N_10
REMARK    6  A    between atoms: C_11  and  C_13
REMARK    7  A    between atoms: C_13  and  O_14
REMARK    8  A    between atoms: O_14  and  C_15
REMARK    9  A    between atoms: C_15  and  C_17
REMARK   10  A    between atoms: C_17  and  N_18
REMARK   11  A    between atoms: C_23  and  C_30
REMARK   12  A    between atoms: C_26  and  C_28
REMARK   13  A    between atoms: C_26  and  C_29
REMARK   14  A    between atoms: C_34  and  C_35
REMARK   15  A    between atoms: C_34  and  C_36
REMARK                            x       y       z     vdW  Elec       q    Type
REMARK                         _______ _______ _______ _____ _____    ______ ____
ROOT
ATOM      1  O   UNL     1      -1.673  -8.193   3.861  0.00  0.00    -0.454 OA
ENDROOT
BRANCH   1   2
ATOM      2  C   UNL     1      -1.831  -9.502   4.109  0.00  0.00    +0.326 C 
ATOM      3  O   UNL     1      -1.417 -10.320   3.321  0.00  0.00    -0.249 OA
BRANCH   2   4
ATOM      4  C   UNL     1      -2.522  -9.953   5.370  0.00  0.00    +0.238 C 
BRANCH   4   5
ATOM      5  N   UNL     1      -2.567 -11.417   5.405  0.00  0.00    -0.213 N 
ATOM      6  C   UNL     1      -3.568 -12.158   4.887  0.00  0.00    +0.247 C 
ATOM      7  O   UNL     1      -4.564 -11.755   4.326  0.00  0.00    -0.273 OA
ATOM      8  C   UNL     1      -3.187 -13.596   5.155  0.00  0.00    +0.113 C 
ATOM      9  C   UNL     1      -3.025 -14.356   3.843  0.00  0.00    +0.038 C 
ATOM     10  C   UNL     1      -2.610 -15.800   4.135  0.00  0.00    -0.011 C 
ATOM     11  C   UNL     1      -3.675 -16.470   5.005  0.00  0.00    +0.009 C 
ATOM     12  C   UNL     1      -3.809 -15.710   6.326  0.00  0.00    -0.032 C 
ATOM     13  C   UNL     1      -4.229 -14.266   6.043  0.00  0.00    +0.041 C 
ATOM     14  C   UNL     1      -4.867 -16.388   7.200  0.00  0.00    +0.011 C 
ATOM     15  C   UNL     1      -2.464 -15.716   7.056  0.00  0.00    +0.011 C 
ATOM     16  C   UNL     1      -2.469 -16.567   2.819  0.00  0.00    +0.007 C 
ATOM     17  N   UNL     1      -1.900 -13.499   5.855  0.00  0.00    -0.285 N 
ATOM     18  C   UNL     1      -1.616 -12.186   5.951  0.00  0.00    +0.310 C 
ATOM     19  O   UNL     1      -0.612 -11.748   6.477  0.00  0.00    -0.252 OA
ATOM     20  H   UNL     1      -1.359 -14.235   6.181  0.00  0.00    +0.151 HD
ENDBRANCH   4   5
ENDBRANCH   2   4
ENDBRANCH   1   2
BRANCH   1  21
ATOM     21  C   UNL     1      -1.009  -7.837   2.647  0.00  0.00    +0.328 C 
BRANCH  21  23
ATOM     22  N   UNL     1      -0.336  -5.768   1.471  0.00  0.00    -0.283 N 
ATOM     23  C   UNL     1      -0.926  -6.336   2.541  0.00  0.00    +0.255 C 
ATOM     24  O   UNL     1      -1.389  -5.639   3.419  0.00  0.00    -0.272 OA
ATOM     25  H   UNL     1      -0.031  -6.321   0.734  0.00  0.00    +0.155 HD
BRANCH  22  29
ATOM     26  C   UNL     1       0.180  -1.636   1.325  0.00  0.00    +0.014 A 
ATOM     27  C   UNL     1       0.117  -2.281   2.546  0.00  0.00    +0.023 A 
ATOM     28  C   UNL     1      -0.054  -3.651   2.598  0.00  0.00    +0.025 A 
ATOM     29  C   UNL     1      -0.163  -4.380   1.422  0.00  0.00    +0.034 A 
ATOM     30  C   UNL     1      -0.099  -3.730   0.196  0.00  0.00    +0.025 A 
ATOM     31  C   UNL     1       0.067  -2.359   0.151  0.00  0.00    +0.023 A 
BRANCH  26  32
ATOM     32  N   UNL     1       0.354  -0.250   1.276  0.00  0.00    -0.392 NA
ATOM     33  H   UNL     1       0.373   0.053   0.313  0.00  0.00    +0.127 HD
BRANCH  32  34
ATOM     34  C   UNL     1      -0.760   0.407   1.973  0.00  0.00    +0.049 C 
ATOM     35  C   UNL     1      -0.642   1.924   1.805  0.00  0.00    +0.026 C 
ATOM     36  C   UNL     1      -2.087  -0.070   1.380  0.00  0.00    +0.026 C 
ENDBRANCH  32  34
BRANCH  32  38
ATOM     37  C   UNL     1       2.788  -0.475   1.129  0.00  0.00    +0.022 C 
ATOM     38  C   UNL     1       1.620   0.109   1.927  0.00  0.00    +0.082 C 
ENDBRANCH  32  38
ENDBRANCH  26  32
ENDBRANCH  22  29
ENDBRANCH  21  23
ENDBRANCH   1  21
TORSDOF 9
