REMARK  Name = ZINC01430701
REMARK  14 active torsions:
REMARK  status: ('A' for Active; 'I' for Inactive)
REMARK    1  A    between atoms: C_1  and  C_2
REMARK    2  A    between atoms: C_2  and  O_3
REMARK    3  A    between atoms: O_3  and  C_4
REMARK    4  A    between atoms: C_7  and  S_13
REMARK    5  A    between atoms: C_9  and  C_10
REMARK    6  A    between atoms: C_10  and  C_11
REMARK    7  A    between atoms: C_10  and  C_12
REMARK    8  A    between atoms: S_13  and  N_16
REMARK    9  A    between atoms: N_16  and  C_17
REMARK   10  A    between atoms: C_17  and  C_18
REMARK   11  A    between atoms: C_18  and  C_19
REMARK   12  A    between atoms: C_20  and  C_34
REMARK   13  A    between atoms: C_26  and  O_29
REMARK   14  A    between atoms: O_29  and  C_30
REMARK                            x       y       z     vdW  Elec       q    Type
REMARK                         _______ _______ _______ _____ _____    ______ ____
ROOT
ATOM      1  C   UNL     1      -0.729   1.579   1.267  0.00  0.00    +0.110 C 
ENDROOT
BRANCH   1   2
ATOM      2  N   UNL     1      -0.020   1.094   2.454  0.00  0.00    -0.190 NA
ATOM      3  H   UNL     1       0.633   0.382   2.371  0.00  0.00    +0.148 HD
BRANCH   2   4
ATOM      4  S   UNL     1      -0.334   1.762   3.936  0.00  0.00    +0.058 S 
ATOM      5  O   UNL     1       0.479   1.069   4.874  0.00  0.00    -0.153 OA
ATOM      6  O   UNL     1      -0.272   3.171   3.768  0.00  0.00    -0.153 OA
BRANCH   4  10
ATOM      7  C   UNL     1      -4.631   0.771   4.968  0.00  0.00    +0.124 A 
ATOM      8  C   UNL     1      -4.333   1.937   4.277  0.00  0.00    +0.048 A 
ATOM      9  C   UNL     1      -3.021   2.239   3.968  0.00  0.00    +0.032 A 
ATOM     10  C   UNL     1      -2.006   1.376   4.338  0.00  0.00    +0.106 A 
ATOM     11  C   UNL     1      -2.300   0.214   5.027  0.00  0.00    +0.036 A 
ATOM     12  C   UNL     1      -3.610  -0.090   5.343  0.00  0.00    -0.001 A 
BRANCH  12  13
ATOM     13  C   UNL     1      -3.930  -1.357   6.093  0.00  0.00    +0.016 C 
ATOM     14  C   UNL     1      -3.455  -2.564   5.282  0.00  0.00    +0.012 C 
ATOM     15  C   UNL     1      -3.217  -1.341   7.447  0.00  0.00    +0.012 C 
ENDBRANCH  12  13
BRANCH   7  16
ATOM     16  O   UNL     1      -5.920   0.473   5.277  0.00  0.00    -0.492 OA
BRANCH  16  18
ATOM     17  C   UNL     1      -8.298   0.905   5.294  0.00  0.00    +0.048 C 
ATOM     18  C   UNL     1      -6.919   1.406   4.860  0.00  0.00    +0.225 C 
ENDBRANCH  16  18
ENDBRANCH   7  16
ENDBRANCH   4  10
ENDBRANCH   2   4
ENDBRANCH   1   2
BRANCH   1  19
ATOM     19  C   UNL     1      -0.013   1.086   0.008  0.00  0.00    +0.054 C 
BRANCH  19  20
ATOM     20  C   UNL     1      -0.742   1.585  -1.213  0.00  0.00    -0.018 A 
ATOM     21  C   UNL     1      -1.735   0.957  -1.862  0.00  0.00    +0.017 A 
ATOM     22  N   UNL     1      -2.152   1.715  -2.921  0.00  0.00    -0.358 N 
ATOM     23  H   UNL     1      -2.861   1.471  -3.537  0.00  0.00    +0.166 HD
ATOM     24  C   UNL     1      -1.411   2.877  -2.987  0.00  0.00    +0.047 A 
ATOM     25  C   UNL     1      -0.496   2.844  -1.920  0.00  0.00    +0.007 A 
ATOM     26  C   UNL     1       0.396   3.902  -1.733  0.00  0.00    +0.056 A 
ATOM     27  C   UNL     1       0.372   4.976  -2.602  0.00  0.00    +0.131 A 
ATOM     28  C   UNL     1      -0.535   5.004  -3.657  0.00  0.00    +0.048 A 
ATOM     29  C   UNL     1      -1.419   3.966  -3.851  0.00  0.00    +0.030 A 
ATOM     30  C   UNL     1      -2.308  -0.383  -1.478  0.00  0.00    +0.063 C 
BRANCH  27  31
ATOM     31  O   UNL     1       1.239   6.009  -2.425  0.00  0.00    -0.406 OA
BRANCH  31  32
ATOM     32  C   UNL     1       1.161   7.088  -3.359  0.00  0.00    +0.575 C 
ATOM     33  F   UNL     1      -0.117   7.656  -3.310  0.00  0.00    -0.133 F 
ATOM     34  F   UNL     1       2.115   8.057  -3.032  0.00  0.00    -0.133 F 
ATOM     35  F   UNL     1       1.409   6.606  -4.649  0.00  0.00    -0.133 F 
ENDBRANCH  31  32
ENDBRANCH  27  31
ENDBRANCH  19  20
ENDBRANCH   1  19
TORSDOF 10
