REMARK  Name = ZINC08791390
REMARK  6 active torsions:
REMARK  status: ('A' for Active; 'I' for Inactive)
REMARK    1  A    between atoms: C_1  and  C_2
REMARK    2  A    between atoms: C_2  and  C_3
REMARK    3  A    between atoms: C_3  and  C_4
REMARK    4  A    between atoms: C_4  and  N_5
REMARK    5  A    between atoms: C_10  and  C_26
REMARK    6  A    between atoms: C_26  and  C_27
REMARK                            x       y       z     vdW  Elec       q    Type
REMARK                         _______ _______ _______ _____ _____    ______ ____
ROOT
ATOM      1  N   UNL     1      -1.823  -3.248  -0.497  0.00  0.00    -0.242 N 
ATOM      2  C   UNL     1      -0.684  -2.615  -0.197  0.00  0.00    +0.224 C 
ATOM      3  O   UNL     1      -0.213  -2.510   0.914  0.00  0.00    -0.275 OA
ATOM      4  C   UNL     1      -0.063  -2.049  -1.474  0.00  0.00    +0.073 C 
ATOM      5  C   UNL     1      -0.130  -0.508  -1.437  0.00  0.00    -0.053 C 
ATOM      6  C   UNL     1      -1.673  -1.144  -3.071  0.00  0.00    +0.050 C 
ATOM      7  C   UNL     1      -1.088  -2.468  -2.565  0.00  0.00    +0.088 C 
ATOM      8  C   UNL     1      -2.144  -3.229  -1.796  0.00  0.00    +0.225 C 
ATOM      9  O   UNL     1      -3.129  -3.743  -2.281  0.00  0.00    -0.275 OA
ATOM     10  C   UNL     1      -3.125  -1.282  -3.429  0.00  0.00    -0.028 A 
ATOM     11  C   UNL     1      -4.245  -1.655  -2.721  0.00  0.00    +0.004 A 
ATOM     12  C   UNL     1      -5.480  -1.683  -3.344  0.00  0.00    +0.000 A 
ATOM     13  C   UNL     1      -5.587  -1.337  -4.679  0.00  0.00    +0.002 A 
ATOM     14  C   UNL     1      -4.467  -0.966  -5.393  0.00  0.00    +0.023 A 
ATOM     15  C   UNL     1      -3.220  -0.933  -4.773  0.00  0.00    +0.036 A 
ATOM     16  N   UNL     1      -1.961  -0.595  -5.275  0.00  0.00    -0.286 N 
ATOM     17  C   UNL     1      -0.998  -0.695  -4.339  0.00  0.00    +0.211 C 
ATOM     18  O   UNL     1       0.183  -0.466  -4.488  0.00  0.00    -0.277 OA
ATOM     19  H   UNL     1      -1.799  -0.321  -6.191  0.00  0.00    +0.155 HD
ATOM     20  N   UNL     1      -1.448  -0.197  -1.993  0.00  0.00    +0.394 N 
ATOM     21  H   UNL     1      -1.463   0.763  -2.355  0.00  0.00    -0.083 HD
ATOM     22  H   UNL     1      -2.171  -0.302  -1.272  0.00  0.00    -0.083 HD
ENDROOT
BRANCH   1  23
ATOM     23  C   UNL     1      -2.652  -3.909   0.514  0.00  0.00    +0.116 C 
BRANCH  23  24
ATOM     24  C   UNL     1      -2.208  -5.364   0.667  0.00  0.00    +0.019 C 
BRANCH  24  26
ATOM     25  C   UNL     1      -2.629  -7.510   1.876  0.00  0.00    +0.004 C 
ATOM     26  C   UNL     1      -3.074  -6.054   1.723  0.00  0.00    -0.002 C 
ENDBRANCH  24  26
ENDBRANCH  23  24
ENDBRANCH   1  23
BRANCH   5  27
ATOM     27  C   UNL     1       0.002  -0.004   0.002  0.00  0.00    +0.022 C 
BRANCH  27  28
ATOM     28  C   UNL     1      -0.018   1.503   0.010  0.00  0.00    -0.024 A 
ATOM     29  C   UNL     1       1.050   2.316   0.004  0.00  0.00    +0.087 A 
ATOM     30  N   UNL     1       0.642   3.622   0.015  0.00  0.00    -0.360 N 
ATOM     31  H   UNL     1       1.234   4.391   0.013  0.00  0.00    +0.165 HD
ATOM     32  C   UNL     1      -0.734   3.683   0.028  0.00  0.00    +0.047 A 
ATOM     33  C   UNL     1      -1.208   2.358   0.020  0.00  0.00    +0.003 A 
ATOM     34  C   UNL     1      -2.581   2.110   0.036  0.00  0.00    +0.010 A 
ATOM     35  C   UNL     1      -3.460   3.157   0.049  0.00  0.00    +0.001 A 
ATOM     36  C   UNL     1      -2.997   4.465   0.052  0.00  0.00    +0.002 A 
ATOM     37  C   UNL     1      -1.646   4.733   0.041  0.00  0.00    +0.026 A 
ENDBRANCH  27  28
ENDBRANCH   5  27
TORSDOF 5
