REMARK  Name = ZINC59890441
REMARK  15 active torsions:
REMARK  status: ('A' for Active; 'I' for Inactive)
REMARK    1  A    between atoms: C_1  and  C_2
REMARK    2  A    between atoms: C_2  and  C_3
REMARK    3  A    between atoms: C_3  and  C_4
REMARK    4  A    between atoms: C_4  and  C_36
REMARK    5  A    between atoms: N_5  and  N_6
REMARK    6  A    between atoms: C_9  and  S_12
REMARK    7  A    between atoms: S_12  and  C_13
REMARK    8  A    between atoms: C_13  and  C_14
REMARK    9  A    between atoms: C_14  and  C_15
REMARK   10  A    between atoms: N_17  and  C_18
REMARK   11  A    between atoms: C_21  and  S_24
REMARK   12  A    between atoms: S_24  and  N_27
REMARK   13  A    between atoms: N_27  and  C_28
REMARK   14  A    between atoms: C_31  and  C_35
REMARK   15  A    between atoms: C_33  and  C_34
REMARK                            x       y       z     vdW  Elec       q    Type
REMARK                         _______ _______ _______ _____ _____    ______ ____
ROOT
ATOM      1  C   UNL     1      -3.949  -8.358  -7.975  0.00  0.00    +0.218 C 
ATOM      2  O   UNL     1      -3.632  -9.406  -7.454  0.00  0.00    -0.275 OA
ATOM      3  N   UNL     1      -4.676  -8.363  -9.110  0.00  0.00    -0.285 N 
ATOM      4  H   UNL     1      -4.987  -7.527  -9.490  0.00  0.00    +0.155 HD
ENDROOT
BRANCH   3   5
ATOM      5  C   UNL     1      -4.982  -9.574  -9.740  0.00  0.00    +0.033 A 
ATOM      6  C   UNL     1      -5.033  -9.644 -11.126  0.00  0.00    +0.025 A 
ATOM      7  C   UNL     1      -5.335 -10.842 -11.745  0.00  0.00    +0.030 A 
ATOM      8  C   UNL     1      -5.586 -11.970 -10.986  0.00  0.00    +0.109 A 
ATOM      9  C   UNL     1      -5.537 -11.903  -9.605  0.00  0.00    +0.030 A 
ATOM     10  C   UNL     1      -5.229 -10.710  -8.981  0.00  0.00    +0.025 A 
BRANCH   8  11
ATOM     11  S   UNL     1      -5.972 -13.495 -11.779  0.00  0.00    +0.072 S 
ATOM     12  O   UNL     1      -6.700 -14.270 -10.837  0.00  0.00    -0.150 OA
ATOM     13  O   UNL     1      -6.491 -13.167 -13.060  0.00  0.00    -0.150 OA
BRANCH  11  14
ATOM     14  N   UNL     1      -4.541 -14.288 -12.038  0.00  0.00    -0.216 N 
ATOM     15  H   UNL     1      -4.269 -14.515 -12.940  0.00  0.00    +0.174 HD
BRANCH  14  16
ATOM     16  C   UNL     1      -3.725 -14.628 -10.956  0.00  0.00    +0.051 A 
ATOM     17  C   UNL     1      -4.295 -15.009  -9.747  0.00  0.00    +0.025 A 
ATOM     18  C   UNL     1      -3.487 -15.346  -8.680  0.00  0.00    +0.005 A 
ATOM     19  C   UNL     1      -2.111 -15.303  -8.812  0.00  0.00    -0.050 A 
ATOM     20  C   UNL     1      -1.540 -14.924 -10.014  0.00  0.00    +0.008 A 
ATOM     21  C   UNL     1      -2.343 -14.592 -11.087  0.00  0.00    -0.028 A 
ATOM     22  C   UNL     1      -1.721 -14.185 -12.398  0.00  0.00    +0.046 C 
ATOM     23  C   UNL     1      -1.231 -15.671  -7.645  0.00  0.00    +0.044 C 
ENDBRANCH  14  16
ENDBRANCH  11  14
ENDBRANCH   8  11
ENDBRANCH   3   5
BRANCH   1  24
ATOM     24  C   UNL     1      -3.531  -7.051  -7.353  0.00  0.00    +0.107 C 
BRANCH  24  25
ATOM     25  C   UNL     1      -2.722  -7.325  -6.084  0.00  0.00    +0.086 C 
BRANCH  25  26
ATOM     26  S   UNL     1      -2.219  -5.751  -5.336  0.00  0.00    -0.084 S 
BRANCH  26  30
ATOM     27  N   UNL     1       0.553  -5.561  -1.008  0.00  0.00    -0.205 N 
ATOM     28  C   UNL     1      -0.142  -6.086  -2.082  0.00  0.00    +0.232 A 
ATOM     29  N   UNL     1      -0.738  -5.395  -3.031  0.00  0.00    -0.186 NA
ATOM     30  C   UNL     1      -1.310  -6.231  -3.904  0.00  0.00    +0.210 A 
ATOM     31  N   UNL     1      -1.086  -7.466  -3.522  0.00  0.00    -0.144 NA
ATOM     32  N   UNL     1      -0.324  -7.398  -2.345  0.00  0.00    -0.245 N 
ATOM     33  H   UNL     1       0.964  -6.154  -0.359  0.00  0.00    +0.177 HD
ATOM     34  H   UNL     1       0.004  -8.146  -1.822  0.00  0.00    +0.192 HD
BRANCH  27  36
ATOM     35  C   UNL     1       1.308  -3.686   0.137  0.00  0.00    +0.034 C 
ATOM     36  N   UNL     1       0.665  -4.173  -0.857  0.00  0.00    -0.189 NA
ATOM     37  C   UNL     1       1.947  -4.607   1.145  0.00  0.00    +0.062 C 
BRANCH  35  38
ATOM     38  C   UNL     1       1.428  -2.193   0.300  0.00  0.00    +0.052 C 
BRANCH  38  40
ATOM     39  C   UNL     1       0.816  -0.242   1.735  0.00  0.00    +0.004 C 
ATOM     40  C   UNL     1       0.695  -1.758   1.570  0.00  0.00    +0.002 C 
ENDBRANCH  38  40
ENDBRANCH  35  38
ENDBRANCH  27  36
ENDBRANCH  26  30
ENDBRANCH  25  26
ENDBRANCH  24  25
ENDBRANCH   1  24
TORSDOF 11
