REMARK  Name = ZINC23291286
REMARK  10 active torsions:
REMARK  status: ('A' for Active; 'I' for Inactive)
REMARK    1  A    between atoms: C_1  and  C_2
REMARK    2  A    between atoms: C_2  and  N_3
REMARK    3  A    between atoms: C_4  and  C_25
REMARK    4  A    between atoms: C_7  and  S_8
REMARK    5  A    between atoms: S_8  and  C_9
REMARK    6  A    between atoms: C_9  and  C_11
REMARK    7  A    between atoms: C_9  and  C_12
REMARK    8  A    between atoms: N_14  and  C_15
REMARK    9  A    between atoms: C_18  and  S_21
REMARK   10  A    between atoms: S_21  and  N_24
REMARK                            x       y       z     vdW  Elec       q    Type
REMARK                         _______ _______ _______ _____ _____    ______ ____
ROOT
ATOM      1  S   UNL     1      -7.652  -1.170   0.010  0.00  0.00    -0.075 S 
ENDROOT
BRANCH   1   6
ATOM      2  N   UNL     1      -5.022  -0.253   0.036  0.00  0.00    -0.319 N 
ATOM      3  C   UNL     1      -3.748  -0.791   0.012  0.00  0.00    +0.069 A 
ATOM      4  C   UNL     1      -3.897  -2.141  -0.043  0.00  0.00    +0.140 A 
ATOM      5  N   UNL     1      -5.208  -2.417  -0.043  0.00  0.00    -0.230 NA
ATOM      6  C   UNL     1      -5.895  -1.298   0.000  0.00  0.00    +0.170 A 
BRANCH   3   7
ATOM      7  C   UNL     1      -2.473  -0.044   0.034  0.00  0.00    +0.004 A 
ATOM      8  C   UNL     1      -2.439   1.295  -0.356  0.00  0.00    +0.014 A 
ATOM      9  C   UNL     1      -1.247   1.988  -0.337  0.00  0.00    +0.050 A 
ATOM     10  C   UNL     1      -0.079   1.361   0.074  0.00  0.00    +0.162 A 
ATOM     11  C   UNL     1      -0.106   0.026   0.466  0.00  0.00    +0.163 A 
ATOM     12  C   UNL     1      -1.299  -0.676   0.446  0.00  0.00    +0.059 A 
ATOM     13  O   UNL     1       1.031  -0.603   0.873  0.00  0.00    -0.485 OA
ATOM     14  C   UNL     1       2.272   0.020   0.525  0.00  0.00    +0.270 C 
ATOM     15  C   UNL     1       2.165   1.516   0.849  0.00  0.00    +0.270 C 
ATOM     16  O   UNL     1       1.087   2.065   0.083  0.00  0.00    -0.485 OA
ENDBRANCH   3   7
BRANCH   2  18
ATOM     17  C   UNL     1      -5.621   1.687  -1.329  0.00  0.00    +0.027 C 
ATOM     18  C   UNL     1      -5.367   1.170   0.089  0.00  0.00    +0.121 C 
ENDBRANCH   2  18
ENDBRANCH   1   6
BRANCH   1  19
ATOM     19  C   UNL     1      -8.095  -2.924  -0.053  0.00  0.00    +0.137 C 
ATOM     20  C   UNL     1      -7.625  -3.615   1.229  0.00  0.00    +0.029 C 
BRANCH  19  21
ATOM     21  C   UNL     1      -9.591  -3.060  -0.177  0.00  0.00    +0.230 C 
ATOM     22  O   UNL     1     -10.312  -2.138   0.138  0.00  0.00    -0.274 OA
ATOM     23  N   UNL     1     -10.127  -4.208  -0.639  0.00  0.00    -0.285 N 
ATOM     24  H   UNL     1      -9.472  -5.016  -0.996  0.00  0.00    +0.155 HD
BRANCH  23  25
ATOM     25  C   UNL     1     -11.516  -4.370  -0.664  0.00  0.00    +0.034 A 
ATOM     26  C   UNL     1     -12.075  -5.617  -0.418  0.00  0.00    +0.025 A 
ATOM     27  C   UNL     1     -13.447  -5.773  -0.438  0.00  0.00    +0.030 A 
ATOM     28  C   UNL     1     -14.264  -4.692  -0.715  0.00  0.00    +0.105 A 
ATOM     29  C   UNL     1     -13.710  -3.450  -0.967  0.00  0.00    +0.030 A 
ATOM     30  C   UNL     1     -12.338  -3.286  -0.942  0.00  0.00    +0.025 A 
BRANCH  28  31
ATOM     31  S   UNL     1     -16.014  -4.896  -0.746  0.00  0.00    +0.056 S 
ATOM     32  O   UNL     1     -16.304  -6.031   0.058  0.00  0.00    -0.153 OA
ATOM     33  O   UNL     1     -16.577  -3.617  -0.490  0.00  0.00    -0.153 OA
BRANCH  31  34
ATOM     34  N   UNL     1     -16.432  -5.296  -2.298  0.00  0.00    -0.204 NA
ATOM     35  H   UNL     1     -17.522  -5.433  -2.360  0.00  0.00    +0.144 HD
ATOM     36  H   UNL     1     -15.928  -6.231  -2.584  0.00  0.00    +0.144 HD
ENDBRANCH  31  34
ENDBRANCH  28  31
ENDBRANCH  23  25
ENDBRANCH  19  21
ENDBRANCH   1  19
TORSDOF 8
