REMARK  Name = ZINC36558426
REMARK  14 active torsions:
REMARK  status: ('A' for Active; 'I' for Inactive)
REMARK    1  A    between atoms: C_1  and  C_2
REMARK    2  A    between atoms: C_2  and  C_3
REMARK    3  A    between atoms: C_3  and  C_5
REMARK    4  A    between atoms: C_3  and  C_11
REMARK    5  A    between atoms: N_13  and  C_14
REMARK    6  A    between atoms: N_13  and  C_21
REMARK    7  A    between atoms: C_14  and  C_15
REMARK    8  A    between atoms: C_18  and  C_20
REMARK    9  A    between atoms: C_21  and  C_23
REMARK   10  A    between atoms: C_21  and  C_32
REMARK   11  A    between atoms: C_24  and  O_31
REMARK   12  A    between atoms: C_26  and  O_30
REMARK   13  A    between atoms: C_28  and  O_29
REMARK   14  A    between atoms: N_34  and  C_35
REMARK                            x       y       z     vdW  Elec       q    Type
REMARK                         _______ _______ _______ _____ _____    ______ ____
ROOT
ATOM      1  C   UNL     1       0.465  -2.764  -0.711  0.00  0.00    +0.200 C 
ENDROOT
BRANCH   1   2
ATOM      2  C   UNL     1      -0.655  -3.264   0.165  0.00  0.00    +0.065 A 
ATOM      3  C   UNL     1      -1.974  -3.074  -0.220  0.00  0.00    +0.129 A 
ATOM      4  C   UNL     1      -3.005  -3.534   0.586  0.00  0.00    +0.091 A 
ATOM      5  C   UNL     1      -2.717  -4.183   1.777  0.00  0.00    +0.124 A 
ATOM      6  C   UNL     1      -1.398  -4.374   2.161  0.00  0.00    +0.091 A 
ATOM      7  C   UNL     1      -0.367  -3.918   1.353  0.00  0.00    +0.129 A 
BRANCH   7   8
ATOM      8  O   UNL     1       0.925  -4.109   1.728  0.00  0.00    -0.506 OA
ATOM      9  H   UNL     1       1.289  -3.391   2.264  0.00  0.00    +0.292 HD
ENDBRANCH   7   8
BRANCH   5  10
ATOM     10  O   UNL     1      -3.727  -4.633   2.567  0.00  0.00    -0.507 OA
ATOM     11  H   UNL     1      -4.007  -5.537   2.370  0.00  0.00    +0.292 HD
ENDBRANCH   5  10
BRANCH   3  12
ATOM     12  O   UNL     1      -2.256  -2.437  -1.387  0.00  0.00    -0.506 OA
ATOM     13  H   UNL     1      -2.387  -3.032  -2.138  0.00  0.00    +0.292 HD
ENDBRANCH   3  12
ENDBRANCH   1   2
BRANCH   1  14
ATOM     14  C   UNL     1       0.662  -3.714  -1.865  0.00  0.00    +0.239 C 
ATOM     15  O   UNL     1       0.204  -3.446  -2.955  0.00  0.00    -0.273 OA
ATOM     16  N   UNL     1       1.346  -4.861  -1.684  0.00  0.00    -0.311 N 
ATOM     17  H   UNL     1       1.712  -5.075  -0.812  0.00  0.00    +0.149 HD
BRANCH  16  18
ATOM     18  C   UNL     1       1.537  -5.784  -2.806  0.00  0.00    +0.073 C 
ATOM     19  C   UNL     1       0.319  -6.701  -2.925  0.00  0.00    +0.022 C 
ATOM     20  C   UNL     1       0.519  -7.665  -4.096  0.00  0.00    +0.002 C 
ATOM     21  C   UNL     1       1.771  -8.509  -3.854  0.00  0.00    +0.000 C 
ATOM     22  C   UNL     1       2.990  -7.592  -3.734  0.00  0.00    +0.002 C 
ATOM     23  C   UNL     1       2.790  -6.628  -2.563  0.00  0.00    +0.022 C 
ENDBRANCH  16  18
ENDBRANCH   1  14
BRANCH   1  26
ATOM     24  C   UNL     1       0.325  -0.345  -0.457  0.00  0.00    +0.224 C 
ATOM     25  O   UNL     1       0.891  -0.450   0.611  0.00  0.00    -0.275 OA
ATOM     26  N   UNL     1       0.127  -1.435  -1.225  0.00  0.00    -0.278 N 
BRANCH  24  27
ATOM     27  C   UNL     1      -0.158   1.004  -0.923  0.00  0.00    +0.105 C 
BRANCH  27  28
ATOM     28  C   UNL     1       0.359   2.072   0.005  0.00  0.00    -0.036 A 
ATOM     29  C   UNL     1       0.028   2.040   1.347  0.00  0.00    +0.004 A 
ATOM     30  C   UNL     1       0.503   3.019   2.200  0.00  0.00    +0.000 A 
ATOM     31  C   UNL     1       1.308   4.031   1.710  0.00  0.00    +0.000 A 
ATOM     32  C   UNL     1       1.639   4.062   0.368  0.00  0.00    +0.000 A 
ATOM     33  C   UNL     1       1.168   3.080  -0.483  0.00  0.00    +0.004 A 
ENDBRANCH  27  28
BRANCH  27  35
ATOM     34  C   UNL     1      -2.179   2.377  -1.448  0.00  0.00    +0.005 C 
ATOM     35  C   UNL     1      -1.688   1.026  -0.924  0.00  0.00    +0.014 C 
ENDBRANCH  27  35
ENDBRANCH  24  27
BRANCH  26  36
ATOM     36  C   UNL     1      -0.426  -1.289  -2.574  0.00  0.00    +0.183 C 
BRANCH  36  37
ATOM     37  C   UNL     1       0.701  -1.197  -3.571  0.00  0.00    +0.122 A 
ATOM     38  C   UNL     1       0.741  -1.802  -4.771  0.00  0.00    +0.046 A 
ATOM     39  C   UNL     1       1.971  -1.445  -5.370  0.00  0.00    +0.045 A 
ATOM     40  C   UNL     1       2.609  -0.642  -4.499  0.00  0.00    +0.102 A 
ATOM     41  O   UNL     1       1.833  -0.491  -3.414  0.00  0.00    -0.463 OA
ATOM     42  C   UNL     1       3.963  -0.015  -4.708  0.00  0.00    +0.086 C 
ENDBRANCH  36  37
ENDBRANCH  26  36
ENDBRANCH   1  26
TORSDOF 12
