REMARK  Name = ZINC44900747
REMARK  5 active torsions:
REMARK  status: ('A' for Active; 'I' for Inactive)
REMARK    1  A    between atoms: C_1  and  C_2
REMARK    2  A    between atoms: N_5  and  C_7
REMARK    3  A    between atoms: C_14  and  O_29
REMARK    4  A    between atoms: C_17  and  C_19
REMARK    5  A    between atoms: C_21  and  N_26
REMARK                            x       y       z     vdW  Elec       q    Type
REMARK                         _______ _______ _______ _____ _____    ______ ____
ROOT
ATOM      1  C   UNL     1      -0.216   1.406   0.082  0.00  0.00    +0.068 C 
ATOM      2  C   UNL     1      -0.201  -0.099   0.019  0.00  0.00    +0.067 A 
ATOM      3  C   UNL     1      -0.206  -0.868  -1.159  0.00  0.00    +0.037 A 
ATOM      4  C   UNL     1      -0.191  -2.188  -0.796  0.00  0.00    +0.164 A 
ATOM      5  N   UNL     1      -0.170  -2.216   0.586  0.00  0.00    -0.214 N 
ATOM      6  N   UNL     1      -0.175  -0.900   1.047  0.00  0.00    -0.169 NA
ATOM      7  N   UNL     1      -0.203  -3.318  -1.520  0.00  0.00    -0.197 NA
ATOM      8  C   UNL     1      -0.225  -3.619  -2.736  0.00  0.00    +0.199 C 
ATOM      9  C   UNL     1      -0.190  -2.748  -3.929  0.00  0.00    +0.165 C 
ATOM     10  S   UNL     1      -1.129  -1.229  -3.723  0.00  0.00    -0.138 S 
ATOM     11  C   UNL     1      -0.220  -0.248  -2.524  0.00  0.00    +0.113 C 
ENDROOT
BRANCH  11  12
ATOM     12  C   UNL     1      -0.852   1.117  -2.432  0.00  0.00    -0.009 A 
ATOM     13  C   UNL     1      -0.063   2.250  -2.501  0.00  0.00    +0.039 A 
ATOM     14  C   UNL     1      -0.643   3.502  -2.416  0.00  0.00    +0.127 A 
ATOM     15  C   UNL     1      -2.012   3.621  -2.263  0.00  0.00    +0.034 A 
ATOM     16  C   UNL     1      -2.801   2.489  -2.194  0.00  0.00    +0.022 A 
ATOM     17  C   UNL     1      -2.222   1.236  -2.285  0.00  0.00    +0.046 A 
ATOM     18 CL   UNL     1      -3.214  -0.187  -2.207  0.00  0.00    -0.083 Cl
BRANCH  14  19
ATOM     19  N   UNL     1       0.202   4.715  -2.489  0.00  0.00    +0.056 N 
ATOM     20  O   UNL     1       1.399   4.610  -2.623  0.00  0.00    -0.126 OA
ATOM     21  O   UNL     1      -0.304   5.810  -2.415  0.00  0.00    -0.126 OA
ENDBRANCH  14  19
ENDBRANCH  11  12
BRANCH   5  22
ATOM     22  C   UNL     1      -0.143  -3.367   1.384  0.00  0.00    +0.068 A 
ATOM     23  C   UNL     1      -0.819  -4.510   0.979  0.00  0.00    +0.028 A 
ATOM     24  C   UNL     1      -0.790  -5.644   1.768  0.00  0.00    +0.002 A 
ATOM     25  C   UNL     1      -0.090  -5.640   2.961  0.00  0.00    +0.000 A 
ATOM     26  C   UNL     1       0.584  -4.503   3.367  0.00  0.00    +0.002 A 
ATOM     27  C   UNL     1       0.564  -3.368   2.579  0.00  0.00    +0.028 A 
ENDBRANCH   5  22
BRANCH   8  28
ATOM     28  O   UNL     1      -0.292  -4.941  -2.996  0.00  0.00    -0.495 OA
ATOM     29  H   UNL     1      -0.314  -5.497  -2.205  0.00  0.00    +0.293 HD
ENDBRANCH   8  28
TORSDOF 4
