REMARK  Name = ZINC12711288
REMARK  8 active torsions:
REMARK  status: ('A' for Active; 'I' for Inactive)
REMARK    1  A    between atoms: C_1  and  C_2
REMARK    2  A    between atoms: C_7  and  C_15
REMARK    3  A    between atoms: C_13  and  C_14
REMARK    4  A    between atoms: C_15  and  C_17
REMARK    5  A    between atoms: C_15  and  N_63
REMARK    6  A    between atoms: N_21  and  C_22
REMARK    7  A    between atoms: C_22  and  C_23
REMARK    8  A    between atoms: C_33  and  C_36
REMARK                            x       y       z     vdW  Elec       q    Type
REMARK                         _______ _______ _______ _____ _____    ______ ____
ROOT
ATOM      1  C   UNL     1      -1.504   3.958   1.603  0.00  0.00    +0.039 C 
ENDROOT
BRANCH   1   8
ATOM      2  C   UNL     1      -3.529  -2.549   5.748  0.00  0.00    +0.044 C 
ATOM      3  C   UNL     1      -2.953  -1.319   5.095  0.00  0.00    -0.046 A 
ATOM      4  C   UNL     1      -1.722  -0.832   5.513  0.00  0.00    +0.004 A 
ATOM      5  C   UNL     1      -1.181   0.281   4.935  0.00  0.00    +0.010 A 
ATOM      6  C   UNL     1      -1.875   0.937   3.912  0.00  0.00    -0.001 A 
ATOM      7  C   UNL     1      -1.323   2.130   3.267  0.00  0.00    +0.017 A 
ATOM      8  C   UNL     1      -2.042   2.726   2.284  0.00  0.00    +0.011 A 
ATOM      9  C   UNL     1      -3.289   2.194   1.893  0.00  0.00    +0.251 A 
ATOM     10  O   UNL     1      -3.917   2.743   1.005  0.00  0.00    -0.268 OA
ATOM     11  N   UNL     1      -3.802   1.097   2.477  0.00  0.00    -0.322 N 
ATOM     12  H   UNL     1      -4.662   0.757   2.183  0.00  0.00    +0.169 HD
ATOM     13  C   UNL     1      -3.123   0.447   3.485  0.00  0.00    +0.052 A 
ATOM     14  C   UNL     1      -3.653  -0.689   4.089  0.00  0.00    -0.024 A 
ATOM     15  C   UNL     1      -4.988  -1.228   3.645  0.00  0.00    +0.046 C 
ENDBRANCH   1   8
BRANCH   1  22
ATOM     16  C   UNL     1      -2.761   5.404   3.083  0.00  0.00    -0.077 C 
ATOM     17  C   UNL     1      -3.901   6.423   3.139  0.00  0.00    -0.018 C 
ATOM     18  C   UNL     1      -3.511   7.663   2.331  0.00  0.00    -0.001 C 
ATOM     19  C   UNL     1      -3.196   7.247   0.891  0.00  0.00    -0.031 C 
ATOM     20  C   UNL     1      -2.076   6.204   0.901  0.00  0.00    -0.074 C 
ATOM     21  C   UNL     1      -2.747   8.471   0.091  0.00  0.00    +0.005 C 
ATOM     22  N   UNL     1      -2.523   5.026   1.674  0.00  0.00    +0.389 N 
ATOM     23  H   UNL     1      -3.401   4.677   1.271  0.00  0.00    -0.080 HD
ENDBRANCH   1  22
BRANCH   1  24
ATOM     24  C   UNL     1      -0.232   4.394   2.283  0.00  0.00    +0.143 A 
ATOM     25  N   UNL     1      -0.117   4.866   3.500  0.00  0.00    -0.115 NA
ATOM     26  N   UNL     1       1.127   5.127   3.710  0.00  0.00    -0.023 NA
ATOM     27  N   UNL     1       1.809   4.830   2.660  0.00  0.00    -0.044 NA
ATOM     28  N   UNL     1       1.008   4.371   1.759  0.00  0.00    -0.226 N 
BRANCH  28  29
ATOM     29  C   UNL     1       1.376   3.917   0.416  0.00  0.00    +0.182 C 
BRANCH  29  30
ATOM     30  C   UNL     1       1.751   2.459   0.464  0.00  0.00    -0.026 A 
ATOM     31  C   UNL     1       0.784   1.490   0.264  0.00  0.00    +0.008 A 
ATOM     32  C   UNL     1       1.127   0.152   0.308  0.00  0.00    +0.038 A 
ATOM     33  C   UNL     1       2.438  -0.219   0.551  0.00  0.00    +0.123 A 
ATOM     34  C   UNL     1       3.405   0.752   0.751  0.00  0.00    +0.038 A 
ATOM     35  C   UNL     1       3.061   2.089   0.707  0.00  0.00    +0.008 A 
ATOM     36  F   UNL     1       2.773  -1.527   0.595  0.00  0.00    -0.205 F 
ENDBRANCH  29  30
ENDBRANCH  28  29
ENDBRANCH   1  24
TORSDOF 5
