REMARK  Name = ZINC00708157
REMARK  13 active torsions:
REMARK  status: ('A' for Active; 'I' for Inactive)
REMARK    1  A    between atoms: C_1  and  C_2
REMARK    2  A    between atoms: C_2  and  O_3
REMARK    3  A    between atoms: O_3  and  C_4
REMARK    4  A    between atoms: C_7  and  C_12
REMARK    5  A    between atoms: C_9  and  O_10
REMARK    6  A    between atoms: O_10  and  C_11
REMARK    7  A    between atoms: C_17  and  C_22
REMARK    8  A    between atoms: C_25  and  O_28
REMARK    9  A    between atoms: O_28  and  C_29
REMARK   10  A    between atoms: C_31  and  C_41
REMARK   11  A    between atoms: C_32  and  C_33
REMARK   12  A    between atoms: C_33  and  O_35
REMARK   13  A    between atoms: O_35  and  C_36
REMARK                            x       y       z     vdW  Elec       q    Type
REMARK                         _______ _______ _______ _____ _____    ______ ____
ROOT
ATOM      1  C   UNL     1       1.132   3.667  -0.047  0.00  0.00    +0.092 C 
ATOM      2  C   UNL     1       1.097   2.171   0.138  0.00  0.00    +0.024 C 
ATOM      3  C   UNL     1      -0.079   1.509   0.180  0.00  0.00    +0.016 C 
ATOM      4  C   UNL     1      -0.121   0.010   0.347  0.00  0.00    +0.059 C 
ATOM      5  C   UNL     1       1.082  -0.449   1.174  0.00  0.00    +0.032 C 
ATOM      6  C   UNL     1       2.362  -0.004   0.459  0.00  0.00    +0.088 C 
ATOM      7  C   UNL     1       2.319   1.487   0.261  0.00  0.00    +0.162 C 
ATOM      8  O   UNL     1       3.360   2.112   0.207  0.00  0.00    -0.292 OA
ATOM      9  N   UNL     1      -1.263   2.189   0.079  0.00  0.00    -0.321 N 
ATOM     10  C   UNL     1      -1.318   3.534   0.313  0.00  0.00    +0.016 C 
ATOM     11  C   UNL     1      -0.200   4.280   0.269  0.00  0.00    +0.065 C 
ATOM     12  C   UNL     1      -2.640   4.185   0.627  0.00  0.00    +0.061 C 
ATOM     13  H   UNL     1      -2.183   1.653  -0.195  0.00  0.00    +0.152 HD
ENDROOT
BRANCH   1  17
ATOM     14  C   UNL     1       2.152   4.554  -4.105  0.00  0.00    +0.162 A 
ATOM     15  C   UNL     1       1.016   3.815  -3.819  0.00  0.00    +0.050 A 
ATOM     16  C   UNL     1       0.689   3.530  -2.506  0.00  0.00    +0.008 A 
ATOM     17  C   UNL     1       1.494   3.981  -1.476  0.00  0.00    -0.032 A 
ATOM     18  C   UNL     1       2.626   4.723  -1.755  0.00  0.00    +0.054 A 
ATOM     19  C   UNL     1       2.963   5.008  -3.068  0.00  0.00    +0.162 A 
BRANCH  19  20
ATOM     20  O   UNL     1       4.079   5.733  -3.344  0.00  0.00    -0.491 OA
ATOM     21  C   UNL     1       4.863   6.166  -2.230  0.00  0.00    +0.277 C 
ENDBRANCH  19  20
BRANCH  14  22
ATOM     22  O   UNL     1       2.475   4.835  -5.396  0.00  0.00    -0.489 OA
BRANCH  22  24
ATOM     23  C   UNL     1       2.120   4.751  -7.785  0.00  0.00    +0.048 C 
ATOM     24  C   UNL     1       1.598   4.338  -6.407  0.00  0.00    +0.226 C 
ENDBRANCH  22  24
ENDBRANCH  14  22
ENDBRANCH   1  17
BRANCH   5  25
ATOM     25  C   UNL     1       1.065  -1.950   1.302  0.00  0.00    -0.043 A 
ATOM     26  C   UNL     1       1.114  -2.740   0.169  0.00  0.00    +0.007 A 
ATOM     27  C   UNL     1       1.104  -4.117   0.284  0.00  0.00    +0.046 A 
ATOM     28  C   UNL     1       1.033  -4.706   1.538  0.00  0.00    +0.120 A 
ATOM     29  C   UNL     1       0.978  -3.911   2.673  0.00  0.00    +0.046 A 
ATOM     30  C   UNL     1       0.994  -2.535   2.553  0.00  0.00    +0.007 A 
BRANCH  28  31
ATOM     31  O   UNL     1       1.016  -6.060   1.653  0.00  0.00    -0.495 OA
ATOM     32  C   UNL     1       1.076  -6.816   0.442  0.00  0.00    +0.277 C 
ENDBRANCH  28  31
ENDBRANCH   5  25
BRANCH  11  33
ATOM     33  C   UNL     1      -0.283   5.669   0.524  0.00  0.00    +0.338 C 
ATOM     34  O   UNL     1       0.118   6.118   1.581  0.00  0.00    -0.245 OA
BRANCH  33  35
ATOM     35  O   UNL     1      -0.806   6.496  -0.406  0.00  0.00    -0.458 OA
BRANCH  35  36
ATOM     36  C   UNL     1      -0.858   7.886  -0.081  0.00  0.00    +0.177 C 
ATOM     37  C   UNL     1      -2.222   8.230   0.552  0.00  0.00    +0.044 C 
ATOM     38  C   UNL     1      -2.554   9.638  -0.004  0.00  0.00    +0.004 C 
ATOM     39  C   UNL     1      -2.040   9.559  -1.462  0.00  0.00    +0.004 C 
ATOM     40  C   UNL     1      -0.742   8.731  -1.362  0.00  0.00    +0.044 C 
ENDBRANCH  35  36
ENDBRANCH  33  35
ENDBRANCH  11  33
TORSDOF 9
