REMARK  Name = ZINC04132828
REMARK  10 active torsions:
REMARK  status: ('A' for Active; 'I' for Inactive)
REMARK    1  A    between atoms: C_1  and  O_2
REMARK    2  A    between atoms: O_2  and  C_3
REMARK    3  A    between atoms: C_6  and  C_9
REMARK    4  A    between atoms: C_14  and  C_24
REMARK    5  A    between atoms: C_27  and  O_34
REMARK    6  A    between atoms: C_28  and  O_32
REMARK    7  A    between atoms: C_29  and  O_30
REMARK    8  A    between atoms: O_30  and  C_31
REMARK    9  A    between atoms: O_32  and  C_33
REMARK   10  A    between atoms: O_34  and  C_35
REMARK                            x       y       z     vdW  Elec       q    Type
REMARK                         _______ _______ _______ _____ _____    ______ ____
ROOT
ATOM      1  C   UNL     1      -3.809   5.440   3.843  0.00  0.00    +0.032 C 
ATOM      2  C   UNL     1      -4.137   3.959   3.663  0.00  0.00    +0.059 C 
ATOM      3  C   UNL     1      -3.912   3.551   2.216  0.00  0.00    +0.017 C 
ATOM      4  C   UNL     1      -2.945   4.132   1.488  0.00  0.00    +0.037 C 
ATOM      5  C   UNL     1      -2.598   3.807   0.054  0.00  0.00    +0.140 C 
ATOM      6  N   UNL     1      -3.567   2.970  -0.622  0.00  0.00    -0.331 N 
ATOM      7  C   UNL     1      -3.803   1.661  -0.206  0.00  0.00    +0.049 A 
ATOM      8  C   UNL     1      -3.446   0.578  -0.992  0.00  0.00    +0.025 A 
ATOM      9  C   UNL     1      -3.601  -0.705  -0.494  0.00  0.00    +0.002 A 
ATOM     10  C   UNL     1      -4.108  -0.905   0.777  0.00  0.00    +0.002 A 
ATOM     11  C   UNL     1      -4.485   0.175   1.557  0.00  0.00    +0.025 A 
ATOM     12  C   UNL     1      -4.347   1.457   1.053  0.00  0.00    +0.052 A 
ATOM     13  N   UNL     1      -4.748   2.582   1.764  0.00  0.00    -0.316 N 
ATOM     14  C   UNL     1      -2.144   5.153   2.052  0.00  0.00    +0.163 C 
ATOM     15  O   UNL     1      -1.266   5.651   1.375  0.00  0.00    -0.292 OA
ATOM     16  C   UNL     1      -2.340   5.643   3.456  0.00  0.00    +0.088 C 
ATOM     17  H   UNL     1      -4.131   3.365  -1.479  0.00  0.00    +0.147 HD
ATOM     18  H   UNL     1      -5.829   2.656   1.954  0.00  0.00    +0.152 HD
ENDROOT
BRANCH   1  22
ATOM     19  C   UNL     1      -4.402   6.569   7.922  0.00  0.00    +0.120 A 
ATOM     20  C   UNL     1      -5.100   7.216   6.913  0.00  0.00    +0.046 A 
ATOM     21  C   UNL     1      -4.907   6.849   5.596  0.00  0.00    +0.007 A 
ATOM     22  C   UNL     1      -4.018   5.838   5.281  0.00  0.00    -0.043 A 
ATOM     23  C   UNL     1      -3.325   5.187   6.285  0.00  0.00    +0.007 A 
ATOM     24  C   UNL     1      -3.510   5.554   7.604  0.00  0.00    +0.046 A 
BRANCH  19  26
ATOM     25  C   UNL     1      -3.836   6.218  10.204  0.00  0.00    +0.277 C 
ATOM     26  O   UNL     1      -4.589   6.928   9.219  0.00  0.00    -0.495 OA
ENDBRANCH  19  26
ENDBRANCH   1  22
BRANCH   5  27
ATOM     27  C   UNL     1      -1.264   3.106   0.033  0.00  0.00    +0.023 A 
ATOM     28  C   UNL     1      -0.754   2.556   1.194  0.00  0.00    +0.013 A 
ATOM     29  C   UNL     1       0.471   1.916   1.181  0.00  0.00    +0.050 A 
ATOM     30  C   UNL     1       1.189   1.815  -0.001  0.00  0.00    +0.165 A 
ATOM     31  C   UNL     1       0.679   2.362  -1.171  0.00  0.00    +0.204 A 
ATOM     32  C   UNL     1      -0.551   3.009  -1.153  0.00  0.00    +0.170 A 
BRANCH  32  33
ATOM     33  O   UNL     1      -1.056   3.546  -2.296  0.00  0.00    -0.491 OA
ATOM     34  C   UNL     1      -0.618   4.861  -2.643  0.00  0.00    +0.277 C 
ENDBRANCH  32  33
BRANCH  31  35
ATOM     35  O   UNL     1       1.381   2.265  -2.333  0.00  0.00    -0.488 OA
ATOM     36  C   UNL     1       1.200   1.075  -3.103  0.00  0.00    +0.277 C 
ENDBRANCH  31  35
BRANCH  30  37
ATOM     37  O   UNL     1       2.393   1.181  -0.014  0.00  0.00    -0.491 OA
ATOM     38  C   UNL     1       2.856   0.643   1.226  0.00  0.00    +0.277 C 
ENDBRANCH  30  37
ENDBRANCH   5  27
TORSDOF 6
