REMARK  Name = ZINC64120654
REMARK  12 active torsions:
REMARK  status: ('A' for Active; 'I' for Inactive)
REMARK    1  A    between atoms: C_1  and  C_2
REMARK    2  A    between atoms: C_10  and  C_12
REMARK    3  A    between atoms: N_14  and  C_15
REMARK    4  A    between atoms: C_15  and  C_16
REMARK    5  A    between atoms: C_16  and  C_18
REMARK    6  A    between atoms: C_16  and  O_19
REMARK    7  A    between atoms: O_19  and  C_20
REMARK    8  A    between atoms: C_24  and  C_26
REMARK    9  A    between atoms: C_26  and  N_27
REMARK   10  A    between atoms: N_27  and  C_28
REMARK   11  A    between atoms: N_27  and  C_29
REMARK   12  A    between atoms: C_29  and  C_30
REMARK                            x       y       z     vdW  Elec       q    Type
REMARK                         _______ _______ _______ _____ _____    ______ ____
ROOT
ATOM      1  C   UNL     1       2.149   1.829   4.380  0.00  0.00    +0.187 C 
ATOM      2  C   UNL     1       3.512   2.304   4.886  0.00  0.00    +0.053 C 
ENDROOT
BRANCH   1   3
ATOM      3  C   UNL     1       2.322   0.525   3.598  0.00  0.00    +0.148 C 
BRANCH   3   6
ATOM      4  C   UNL     1       0.949  -0.993   2.276  0.00  0.00    +0.240 C 
ATOM      5  O   UNL     1       1.932  -1.680   2.098  0.00  0.00    -0.273 OA
ATOM      6  N   UNL     1       1.038   0.132   3.013  0.00  0.00    -0.310 N 
ATOM      7  H   UNL     1       0.252   0.682   3.155  0.00  0.00    +0.149 HD
BRANCH   4  17
ATOM      8  C   UNL     1      -0.764   0.890   0.290  0.00  0.00    +0.042 C 
ATOM      9  C   UNL     1      -0.633  -0.606   0.411  0.00  0.00    -0.033 C 
ATOM     10  C   UNL     1      -0.718  -1.513  -0.588  0.00  0.00    +0.001 A 
ATOM     11  C   UNL     1      -0.951  -1.383  -2.032  0.00  0.00    +0.030 A 
ATOM     12  C   UNL     1      -0.986  -2.501  -2.794  0.00  0.00    +0.042 A 
ATOM     13  C   UNL     1      -0.804  -3.777  -2.241  0.00  0.00    +0.022 A 
ATOM     14  C   UNL     1      -0.586  -3.976  -0.924  0.00  0.00    +0.027 A 
ATOM     15  C   UNL     1      -0.530  -2.871  -0.029  0.00  0.00    +0.043 A 
ATOM     16  N   UNL     1      -0.335  -2.806   1.266  0.00  0.00    -0.370 N 
ATOM     17  C   UNL     1      -0.372  -1.397   1.674  0.00  0.00    +0.193 C 
ATOM     18 CL   UNL     1      -1.261  -2.351  -4.502  0.00  0.00    -0.084 Cl
ATOM     19  H   UNL     1      -0.188  -3.562   1.855  0.00  0.00    +0.161 HD
ENDBRANCH   4  17
ENDBRANCH   3   6
ENDBRANCH   1   3
BRANCH   1  20
ATOM     20  O   UNL     1       1.279   1.605   5.491  0.00  0.00    -0.488 OA
BRANCH  20  21
ATOM     21  C   UNL     1       0.608   2.684   5.976  0.00  0.00    +0.121 A 
ATOM     22  C   UNL     1       0.864   3.948   5.466  0.00  0.00    +0.045 A 
ATOM     23  C   UNL     1       0.181   5.042   5.960  0.00  0.00    +0.004 A 
ATOM     24  C   UNL     1      -0.757   4.878   6.962  0.00  0.00    +0.002 A 
ATOM     25  C   UNL     1      -1.014   3.619   7.473  0.00  0.00    -0.060 A 
ATOM     26  C   UNL     1      -0.337   2.521   6.978  0.00  0.00    +0.047 A 
BRANCH  25  27
ATOM     27  C   UNL     1      -2.037   3.444   8.565  0.00  0.00    -0.043 C 
BRANCH  27  28
ATOM     28  N   UNL     1      -3.356   3.202   7.967  0.00  0.00    +0.383 N 
ATOM     29  C   UNL     1      -3.783   4.394   7.222  0.00  0.00    -0.095 C 
ATOM     30  H   UNL     1      -3.300   2.415   7.338  0.00  0.00    -0.081 HD
BRANCH  28  31
ATOM     31  C   UNL     1      -4.330   2.913   9.028  0.00  0.00    -0.040 C 
BRANCH  31  32
ATOM     32  C   UNL     1      -5.653   2.543   8.409  0.00  0.00    -0.026 A 
ATOM     33  C   UNL     1      -6.701   3.430   8.070  0.00  0.00    +0.043 A 
ATOM     34  C   UNL     1      -7.689   2.683   7.546  0.00  0.00    +0.195 A 
ATOM     35  O   UNL     1      -7.298   1.398   7.550  0.00  0.00    -0.471 OA
ATOM     36  C   UNL     1      -6.061   1.308   8.067  0.00  0.00    +0.196 A 
ENDBRANCH  31  32
ENDBRANCH  28  31
ENDBRANCH  27  28
ENDBRANCH  25  27
ENDBRANCH  20  21
ENDBRANCH   1  20
TORSDOF 9
