REMARK  Name = ZINC16607446
REMARK  5 active torsions:
REMARK  status: ('A' for Active; 'I' for Inactive)
REMARK    1  A    between atoms: C_1  and  C_2
REMARK    2  A    between atoms: N_4  and  C_18
REMARK    3  A    between atoms: C_7  and  C_9
REMARK    4  A    between atoms: N_10  and  C_11
REMARK    5  A    between atoms: C_16  and  N_17
REMARK                            x       y       z     vdW  Elec       q    Type
REMARK                         _______ _______ _______ _____ _____    ______ ____
ROOT
ATOM      1  C   UNL     1       0.551   1.581  -0.102  0.00  0.00    +0.063 C 
ATOM      2  C   UNL     1       0.273   0.101  -0.072  0.00  0.00    +0.052 C 
ATOM      3  N   UNL     1       0.191  -0.675  -1.082  0.00  0.00    -0.181 NA
ATOM      4  N   UNL     1      -0.076  -1.996  -0.737  0.00  0.00    -0.160 N 
ATOM      5  C   UNL     1      -0.184  -2.137   0.601  0.00  0.00    +0.253 C 
ATOM      6  O   UNL     1      -0.410  -3.155   1.220  0.00  0.00    -0.272 OA
ATOM      7  C   UNL     1       0.046  -0.747   1.162  0.00  0.00    +0.164 C 
ENDROOT
BRANCH   4   8
ATOM      8  C   UNL     1      -0.214  -3.042  -1.657  0.00  0.00    +0.060 A 
ATOM      9  C   UNL     1      -0.487  -4.329  -1.212  0.00  0.00    +0.025 A 
ATOM     10  C   UNL     1      -0.623  -5.359  -2.122  0.00  0.00    +0.002 A 
ATOM     11  C   UNL     1      -0.488  -5.110  -3.476  0.00  0.00    +0.000 A 
ATOM     12  C   UNL     1      -0.216  -3.829  -3.922  0.00  0.00    +0.002 A 
ATOM     13  C   UNL     1      -0.085  -2.794  -3.018  0.00  0.00    +0.025 A 
ENDBRANCH   4   8
BRANCH   7  14
ATOM     14  C   UNL     1       1.263  -0.726   2.051  0.00  0.00    +0.103 C 
ATOM     15  N   UNL     1       1.171  -0.282   3.260  0.00  0.00    -0.257 NA
BRANCH  15  16
ATOM     16  C   UNL     1       2.297  -0.162   4.034  0.00  0.00    +0.084 A 
ATOM     17  C   UNL     1       3.437   0.457   3.522  0.00  0.00    +0.029 A 
ATOM     18  C   UNL     1       4.567   0.575   4.305  0.00  0.00    +0.002 A 
ATOM     19  C   UNL     1       4.575   0.081   5.598  0.00  0.00    +0.002 A 
ATOM     20  C   UNL     1       3.453  -0.535   6.118  0.00  0.00    +0.025 A 
ATOM     21  C   UNL     1       2.307  -0.656   5.345  0.00  0.00    +0.050 A 
BRANCH  21  22
ATOM     22  N   UNL     1       1.171  -1.273   5.870  0.00  0.00    -0.356 N 
ATOM     23  H   UNL     1       0.372  -1.360   5.327  0.00  0.00    +0.142 HD
ATOM     24  H   UNL     1       1.180  -1.614   6.777  0.00  0.00    +0.142 HD
ENDBRANCH  21  22
ENDBRANCH  15  16
ENDBRANCH   7  14
TORSDOF 4
