REMARK  Name = ZINC38550556
REMARK  9 active torsions:
REMARK  status: ('A' for Active; 'I' for Inactive)
REMARK    1  A    between atoms: C_1  and  C_2
REMARK    2  A    between atoms: C_4  and  C_15
REMARK    3  A    between atoms: C_5  and  N_7
REMARK    4  A    between atoms: C_8  and  C_10
REMARK    5  A    between atoms: C_15  and  C_17
REMARK    6  A    between atoms: C_15  and  N_26
REMARK    7  A    between atoms: C_20  and  C_23
REMARK    8  A    between atoms: C_23  and  C_24
REMARK    9  A    between atoms: C_23  and  C_25
REMARK                            x       y       z     vdW  Elec       q    Type
REMARK                         _______ _______ _______ _____ _____    ______ ____
ROOT
ATOM      1  C   UNL     1      -1.917  -3.223  -0.007  0.00  0.00    +0.135 C 
ENDROOT
BRANCH   1   2
ATOM      2  N   UNL     1      -3.198  -2.657   0.424  0.00  0.00    -0.320 N 
ATOM      3  C   UNL     1      -3.476  -2.518   1.778  0.00  0.00    +0.097 A 
ATOM      4  C   UNL     1      -2.577  -3.007   2.721  0.00  0.00    +0.041 A 
ATOM      5  C   UNL     1      -2.866  -2.862   4.065  0.00  0.00    +0.005 A 
ATOM      6  C   UNL     1      -4.050  -2.229   4.424  0.00  0.00    +0.018 A 
ATOM      7  C   UNL     1      -4.896  -1.768   3.436  0.00  0.00    +0.084 A 
ATOM      8  N   UNL     1      -4.592  -1.916   2.161  0.00  0.00    -0.350 N 
ATOM      9  H   UNL     1      -3.853  -2.380  -0.237  0.00  0.00    +0.148 HD
ATOM     10  H   UNL     1      -5.202  -1.579   1.487  0.00  0.00    +0.166 HD
ENDBRANCH   1   2
BRANCH   1  14
ATOM     11  C   UNL     1      -0.333   1.614  -0.186  0.00  0.00    +0.051 C 
ATOM     12  C   UNL     1      -0.218   0.117  -0.061  0.00  0.00    -0.011 A 
ATOM     13  C   UNL     1      -1.196  -0.819  -0.103  0.00  0.00    +0.018 A 
ATOM     14  C   UNL     1      -0.857  -2.153   0.035  0.00  0.00    +0.006 A 
ATOM     15  C   UNL     1       0.454  -2.482   0.210  0.00  0.00    +0.078 A 
ATOM     16  S   UNL     1       1.244  -0.881   0.173  0.00  0.00    -0.078 S 
BRANCH  15  17
ATOM     17  N   UNL     1       1.031  -3.743   0.370  0.00  0.00    -0.273 N 
ATOM     18  C   UNL     1       2.364  -3.860   0.531  0.00  0.00    +0.284 C 
ATOM     19  O   UNL     1       3.065  -2.865   0.538  0.00  0.00    -0.266 OA
ATOM     20  H   UNL     1       0.472  -4.536   0.365  0.00  0.00    +0.156 HD
BRANCH  18  21
ATOM     21  C   UNL     1       2.969  -5.184   0.699  0.00  0.00    +0.189 A 
ATOM     22  C   UNL     1       4.298  -5.443   0.877  0.00  0.00    +0.054 A 
ATOM     23  C   UNL     1       4.426  -6.835   0.994  0.00  0.00    +0.042 A 
ATOM     24  C   UNL     1       3.186  -7.360   0.884  0.00  0.00    +0.196 A 
ATOM     25  O   UNL     1       2.310  -6.361   0.712  0.00  0.00    -0.458 OA
ENDBRANCH  18  21
ENDBRANCH  15  17
ENDBRANCH   1  14
BRANCH   1  26
ATOM     26  C   UNL     1      -2.047  -3.747  -1.414  0.00  0.00    -0.023 A 
ATOM     27  C   UNL     1      -2.659  -2.977  -2.385  0.00  0.00    +0.006 A 
ATOM     28  C   UNL     1      -2.778  -3.458  -3.675  0.00  0.00    +0.004 A 
ATOM     29  C   UNL     1      -2.284  -4.709  -3.995  0.00  0.00    -0.045 A 
ATOM     30  C   UNL     1      -1.671  -5.479  -3.024  0.00  0.00    +0.004 A 
ATOM     31  C   UNL     1      -1.549  -4.996  -1.734  0.00  0.00    +0.006 A 
BRANCH  29  32
ATOM     32  C   UNL     1      -2.415  -5.234  -5.401  0.00  0.00    +0.013 C 
ATOM     33  C   UNL     1      -1.023  -5.510  -5.974  0.00  0.00    +0.012 C 
ATOM     34  C   UNL     1      -3.228  -6.530  -5.389  0.00  0.00    +0.012 C 
ENDBRANCH  29  32
ENDBRANCH   1  26
TORSDOF 6
