REMARK  Name = ZINC48889986
REMARK  3 active torsions:
REMARK  status: ('A' for Active; 'I' for Inactive)
REMARK    1  A    between atoms: C_6  and  O_7
REMARK    2  A    between atoms: O_7  and  C_8
REMARK    3  A    between atoms: C_8  and  C_10
REMARK                            x       y       z     vdW  Elec       q    Type
REMARK                         _______ _______ _______ _____ _____    ______ ____
ROOT
ATOM      1  O   UNL     1      -1.165  -0.701   0.010  0.00  0.00    -0.421 OA
ENDROOT
BRANCH   1   7
ATOM      2  C   UNL     1      -0.036   1.391   0.117  0.00  0.00    +0.047 A 
ATOM      3  C   UNL     1       1.144   2.109   0.116  0.00  0.00    +0.018 A 
ATOM      4  C   UNL     1       2.356   1.450   0.008  0.00  0.00    +0.014 A 
ATOM      5  C   UNL     1       2.389   0.072  -0.101  0.00  0.00    +0.018 A 
ATOM      6  C   UNL     1       1.211  -0.650  -0.101  0.00  0.00    +0.047 A 
ATOM      7  C   UNL     1      -0.005   0.008   0.009  0.00  0.00    +0.132 A 
ATOM      8  I   UNL     1       4.143   2.543   0.006  0.00  0.00    -0.044 I 
ENDBRANCH   1   7
BRANCH   1   9
ATOM      9  C   UNL     1      -1.976  -0.587  -1.060  0.00  0.00    +0.366 C 
ATOM     10  O   UNL     1      -1.616   0.048  -2.031  0.00  0.00    -0.243 OA
BRANCH   9  11
ATOM     11  C   UNL     1      -3.303  -1.235  -1.052  0.00  0.00    +0.189 A 
ATOM     12  C   UNL     1      -4.268  -1.216  -2.079  0.00  0.00    +0.171 A 
ATOM     13  N   UNL     1      -5.280  -1.920  -1.631  0.00  0.00    -0.162 NA
ATOM     14  H   UNL     1      -5.600  -2.891   0.089  0.00  0.00    +0.213 HD
ATOM     15  N   UNL     1      -5.005  -2.346  -0.450  0.00  0.00    -0.196 N 
ATOM     16  N   UNL     1      -3.835  -1.961  -0.080  0.00  0.00    -0.148 NA
ENDBRANCH   9  11
ENDBRANCH   1   9
TORSDOF 3
