REMARK  Name = ZINC39637440
REMARK  10 active torsions:
REMARK  status: ('A' for Active; 'I' for Inactive)
REMARK    1  A    between atoms: C_1  and  C_2
REMARK    2  A    between atoms: C_2  and  C_3
REMARK    3  A    between atoms: C_3  and  C_4
REMARK    4  A    between atoms: C_4  and  C_5
REMARK    5  A    between atoms: C_5  and  C_7
REMARK    6  A    between atoms: C_5  and  C_8
REMARK    7  A    between atoms: C_12  and  C_21
REMARK    8  A    between atoms: N_23  and  C_24
REMARK    9  A    between atoms: C_29  and  C_34
REMARK   10  A    between atoms: C_31  and  C_33
REMARK                            x       y       z     vdW  Elec       q    Type
REMARK                         _______ _______ _______ _____ _____    ______ ____
ROOT
ATOM      1  C   UNL     1       1.523  -3.766  -2.650  0.00  0.00    +0.218 C 
ATOM      2  O   UNL     1       1.026  -4.296  -1.679  0.00  0.00    -0.275 OA
ATOM      3  N   UNL     1       2.140  -4.515  -3.585  0.00  0.00    -0.300 N 
ATOM      4  C   UNL     1       2.806  -4.052  -4.825  0.00  0.00    +0.121 C 
ATOM      5  C   UNL     1       4.066  -4.939  -4.946  0.00  0.00    +0.100 C 
ATOM      6  C   UNL     1       3.730  -6.208  -4.145  0.00  0.00    -0.004 C 
ATOM      7  C   UNL     1       2.311  -5.987  -3.602  0.00  0.00    +0.115 C 
ATOM      8  C   UNL     1       4.710  -6.378  -2.988  0.00  0.00    -0.010 C 
ATOM      9  C   UNL     1       4.392  -7.676  -2.242  0.00  0.00    -0.082 C 
ATOM     10  N   UNL     1       4.494  -8.812  -3.166  0.00  0.00    +0.379 N 
ATOM     11  C   UNL     1       3.485  -8.688  -4.225  0.00  0.00    -0.082 C 
ATOM     12  C   UNL     1       3.765  -7.432  -5.055  0.00  0.00    -0.010 C 
ATOM     13  H   UNL     1       5.414  -8.825  -3.580  0.00  0.00    -0.086 HD
ATOM     14  H   UNL     1       4.343  -9.671  -2.659  0.00  0.00    -0.086 HD
ENDROOT
BRANCH   5  15
ATOM     15  C   UNL     1       5.259  -4.239  -4.348  0.00  0.00    +0.218 C 
ATOM     16  O   UNL     1       5.109  -3.460  -3.430  0.00  0.00    -0.275 OA
ATOM     17  N   UNL     1       6.494  -4.478  -4.834  0.00  0.00    -0.312 N 
ATOM     18  H   UNL     1       6.614  -5.101  -5.567  0.00  0.00    +0.149 HD
BRANCH  17  19
ATOM     19  C   UNL     1       7.654  -3.798  -4.253  0.00  0.00    +0.076 C 
ATOM     20  C   UNL     1       7.822  -2.426  -4.909  0.00  0.00    +0.022 C 
ATOM     21  C   UNL     1       9.033  -1.715  -4.302  0.00  0.00    +0.002 C 
ATOM     22  C   UNL     1      10.290  -2.554  -4.545  0.00  0.00    +0.003 C 
ATOM     23  C   UNL     1      10.122  -3.926  -3.889  0.00  0.00    -0.009 C 
ATOM     24  C   UNL     1       8.911  -4.636  -4.495  0.00  0.00    +0.009 C 
ATOM     25  C   UNL     1       9.124  -4.813  -6.000  0.00  0.00    +0.009 C 
ATOM     26  C   UNL     1      11.379  -4.764  -4.131  0.00  0.00    +0.008 C 
ENDBRANCH  17  19
ENDBRANCH   5  15
BRANCH   1  27
ATOM     27  C   UNL     1       1.451  -2.269  -2.810  0.00  0.00    +0.072 C 
ATOM     28  C   UNL     1       0.708  -1.930  -4.104  0.00  0.00    +0.017 C 
BRANCH  27  29
ATOM     29  C   UNL     1       0.704  -1.664  -1.620  0.00  0.00    +0.012 C 
BRANCH  29  30
ATOM     30  C   UNL     1       0.738  -0.138  -1.718  0.00  0.00    +0.000 C 
BRANCH  30  32
ATOM     31  C   UNL     1       0.026   1.994  -0.626  0.00  0.00    +0.004 C 
ATOM     32  C   UNL     1      -0.009   0.467  -0.528  0.00  0.00    -0.003 C 
ENDBRANCH  30  32
ENDBRANCH  29  30
ENDBRANCH  27  29
ENDBRANCH   1  27
TORSDOF 6
