REMARK  Name = ZINC63746941
REMARK  3 active torsions:
REMARK  status: ('A' for Active; 'I' for Inactive)
REMARK    1  A    between atoms: C_6  and  C_11
REMARK    2  A    between atoms: C_16  and  N_17
REMARK    3  A    between atoms: N_20  and  C_21
REMARK                            x       y       z     vdW  Elec       q    Type
REMARK                         _______ _______ _______ _____ _____    ______ ____
ROOT
ATOM      1  C   UNL     1       3.661  -2.766   1.193  0.00  0.00    -0.000 A 
ATOM      2  C   UNL     1       3.950  -2.055   2.342  0.00  0.00    +0.008 A 
ATOM      3  C   UNL     1       4.407  -2.715   3.468  0.00  0.00    +0.000 A 
ATOM      4  C   UNL     1       4.576  -4.087   3.448  0.00  0.00    +0.002 A 
ATOM      5  C   UNL     1       4.288  -4.803   2.303  0.00  0.00    +0.024 A 
ATOM      6  C   UNL     1       3.823  -4.145   1.172  0.00  0.00    +0.040 A 
ENDROOT
BRANCH   1  12
ATOM      7  C   UNL     1       0.021   1.371   0.004  0.00  0.00    +0.001 A 
ATOM      8  C   UNL     1       1.207   2.118   0.011  0.00  0.00    +0.002 A 
ATOM      9  C   UNL     1       2.430   1.545   0.005  0.00  0.00    +0.026 A 
ATOM     10  C   UNL     1       2.560   0.129  -0.010  0.00  0.00    +0.043 A 
ATOM     11  N   UNL     1       3.614  -0.650  -0.019  0.00  0.00    -0.374 N 
ATOM     12  C   UNL     1       3.163  -2.046  -0.034  0.00  0.00    +0.135 C 
ATOM     13  C   UNL     1       1.651  -1.994  -0.032  0.00  0.00    +0.012 C 
ATOM     14  C   UNL     1       1.322  -0.682  -0.018  0.00  0.00    -0.004 A 
ATOM     15  C   UNL     1       0.033   0.019  -0.010  0.00  0.00    +0.010 A 
ATOM     16  H   UNL     1       4.537  -0.354  -0.017  0.00  0.00    +0.161 HD
ENDBRANCH   1  12
BRANCH   6  17
ATOM     17  N   UNL     1       3.525  -4.868   0.012  0.00  0.00    -0.269 N 
ATOM     18  C   UNL     1       4.260  -5.950  -0.315  0.00  0.00    +0.308 C 
ATOM     19  O   UNL     1       5.128  -6.345   0.438  0.00  0.00    -0.252 OA
ATOM     20  N   UNL     1       4.032  -6.592  -1.478  0.00  0.00    -0.269 N 
ATOM     21  H   UNL     1       2.789  -4.592  -0.556  0.00  0.00    +0.156 HD
ATOM     22  H   UNL     1       3.386  -6.239  -2.109  0.00  0.00    +0.156 HD
BRANCH  20  23
ATOM     23  C   UNL     1       4.730  -7.771  -1.775  0.00  0.00    +0.038 A 
ATOM     24  C   UNL     1       4.104  -8.787  -2.484  0.00  0.00    +0.027 A 
ATOM     25  C   UNL     1       4.790  -9.950  -2.777  0.00  0.00    +0.051 A 
ATOM     26  C   UNL     1       6.104 -10.105  -2.366  0.00  0.00    +0.166 A 
ATOM     27  C   UNL     1       6.734  -9.087  -1.655  0.00  0.00    +0.168 A 
ATOM     28  C   UNL     1       6.048  -7.919  -1.366  0.00  0.00    +0.073 A 
ATOM     29  O   UNL     1       8.010  -9.479  -1.369  0.00  0.00    -0.453 OA
ATOM     30  C   UNL     1       8.024 -10.907  -1.554  0.00  0.00    +0.466 C 
ATOM     31  O   UNL     1       6.986 -11.136  -2.525  0.00  0.00    -0.453 OA
ENDBRANCH  20  23
ENDBRANCH   6  17
TORSDOF 3
