REMARK  Name = ZINC06282662
REMARK  10 active torsions:
REMARK  status: ('A' for Active; 'I' for Inactive)
REMARK    1  A    between atoms: C_1  and  O_2
REMARK    2  A    between atoms: O_2  and  C_3
REMARK    3  A    between atoms: C_10  and  C_15
REMARK    4  A    between atoms: C_15  and  C_17
REMARK    5  A    between atoms: C_15  and  N_68
REMARK    6  A    between atoms: N_21  and  C_22
REMARK    7  A    between atoms: C_27  and  C_28
REMARK    8  A    between atoms: C_27  and  N_68
REMARK    9  A    between atoms: C_35  and  C_36
REMARK   10  A    between atoms: C_35  and  N_68
REMARK                            x       y       z     vdW  Elec       q    Type
REMARK                         _______ _______ _______ _____ _____    ______ ____
ROOT
ATOM      1  C   UNL     1      -0.133   1.616  -0.554  0.00  0.00    +0.040 C 
ENDROOT
BRANCH   1   9
ATOM      2  C   UNL     1      -0.866   5.002  -5.694  0.00  0.00    +0.121 A 
ATOM      3  C   UNL     1      -2.235   4.782  -5.824  0.00  0.00    +0.047 A 
ATOM      4  C   UNL     1      -2.910   4.000  -4.914  0.00  0.00    +0.030 A 
ATOM      5  C   UNL     1      -2.224   3.420  -3.852  0.00  0.00    +0.049 A 
ATOM      6  C   UNL     1      -0.840   3.640  -3.717  0.00  0.00    +0.002 A 
ATOM      7  C   UNL     1      -0.166   4.436  -4.648  0.00  0.00    +0.055 A 
ATOM      8  C   UNL     1      -0.131   3.029  -2.591  0.00  0.00    +0.017 A 
ATOM      9  C   UNL     1      -0.834   2.263  -1.721  0.00  0.00    +0.011 A 
ATOM     10  C   UNL     1      -2.220   2.073  -1.901  0.00  0.00    +0.251 A 
ATOM     11  O   UNL     1      -2.834   1.384  -1.104  0.00  0.00    -0.268 OA
ATOM     12  N   UNL     1      -2.882   2.634  -2.928  0.00  0.00    -0.322 N 
ATOM     13  H   UNL     1      -3.835   2.483  -3.022  0.00  0.00    +0.169 HD
BRANCH   2  15
ATOM     14  C   UNL     1      -1.000   6.331  -7.662  0.00  0.00    +0.277 C 
ATOM     15  O   UNL     1      -0.216   5.777  -6.603  0.00  0.00    -0.495 OA
ENDBRANCH   2  15
ENDBRANCH   1   9
BRANCH   1  16
ATOM     16  C   UNL     1      -0.183   0.117  -0.705  0.00  0.00    +0.143 A 
ATOM     17  N   UNL     1      -1.093  -0.689  -0.214  0.00  0.00    -0.115 NA
ATOM     18  N   UNL     1      -0.788  -1.891  -0.561  0.00  0.00    -0.023 NA
ATOM     19  N   UNL     1       0.293  -1.874  -1.260  0.00  0.00    -0.044 NA
ATOM     20  N   UNL     1       0.693  -0.653  -1.376  0.00  0.00    -0.227 N 
BRANCH  20  21
ATOM     21  C   UNL     1       1.881  -0.192  -2.099  0.00  0.00    +0.111 C 
ATOM     22  C   UNL     1       1.731  -0.486  -3.606  0.00  0.00    +0.027 C 
ATOM     23  C   UNL     1       3.158  -0.885  -4.059  0.00  0.00    +0.002 C 
ATOM     24  C   UNL     1       3.683  -1.704  -2.853  0.00  0.00    +0.002 C 
ATOM     25  C   UNL     1       3.123  -0.966  -1.621  0.00  0.00    +0.027 C 
ENDBRANCH  20  21
ENDBRANCH   1  16
BRANCH   1  26
ATOM     26  N   UNL     1      -0.827   1.993   0.695  0.00  0.00    +0.397 N 
ATOM     27  H   UNL     1      -1.772   1.591   0.686  0.00  0.00    -0.079 HD
BRANCH  26  28
ATOM     28  C   UNL     1      -0.090   1.464   1.862  0.00  0.00    -0.041 C 
BRANCH  28  29
ATOM     29  C   UNL     1       1.340   1.937   1.843  0.00  0.00    -0.064 A 
ATOM     30  C   UNL     1       2.319   1.153   1.261  0.00  0.00    +0.004 A 
ATOM     31  C   UNL     1       3.631   1.588   1.238  0.00  0.00    +0.038 A 
ATOM     32  C   UNL     1       3.966   2.805   1.807  0.00  0.00    +0.123 A 
ATOM     33  C   UNL     1       2.986   3.587   2.394  0.00  0.00    +0.038 A 
ATOM     34  C   UNL     1       1.674   3.153   2.411  0.00  0.00    +0.004 A 
ATOM     35  F   UNL     1       5.249   3.229   1.790  0.00  0.00    -0.205 F 
ENDBRANCH  28  29
ENDBRANCH  26  28
BRANCH  26  36
ATOM     36  C   UNL     1      -0.933   3.465   0.789  0.00  0.00    -0.001 C 
BRANCH  36  37
ATOM     37  C   UNL     1      -1.957   3.809   1.840  0.00  0.00    +0.089 A 
ATOM     38  C   UNL     1      -1.694   4.113   3.124  0.00  0.00    +0.042 A 
ATOM     39  C   UNL     1      -2.938   4.367   3.747  0.00  0.00    +0.041 A 
ATOM     40  C   UNL     1      -3.885   4.203   2.807  0.00  0.00    +0.195 A 
ATOM     41  O   UNL     1      -3.285   3.871   1.653  0.00  0.00    -0.470 OA
ENDBRANCH  36  37
ENDBRANCH  26  36
ENDBRANCH   1  26
TORSDOF 9
