REMARK  Name = ZINC55951516
REMARK  3 active torsions:
REMARK  status: ('A' for Active; 'I' for Inactive)
REMARK    1  A    between atoms: C_3  and  N_11
REMARK    2  A    between atoms: C_12  and  C_14
REMARK    3  A    between atoms: C_17  and  C_19
REMARK                            x       y       z     vdW  Elec       q    Type
REMARK                         _______ _______ _______ _____ _____    ______ ____
ROOT
ATOM      1  N   UNL     1       3.583   2.136  -0.023  0.00  0.00    -0.277 N 
ATOM      2  C   UNL     1       3.562   3.480  -0.118  0.00  0.00    +0.267 C 
ATOM      3  O   UNL     1       2.501   4.074  -0.103  0.00  0.00    -0.268 OA
ATOM      4  H   UNL     1       4.430   1.667   0.046  0.00  0.00    +0.155 HD
ENDROOT
BRANCH   1   7
ATOM      5  C   UNL     1       0.065   1.242  -0.622  0.00  0.00    +0.006 A 
ATOM      6  C   UNL     1       1.250   1.954  -0.619  0.00  0.00    +0.027 A 
ATOM      7  C   UNL     1       2.382   1.414  -0.026  0.00  0.00    +0.080 A 
ATOM      8  C   UNL     1       2.324   0.155   0.567  0.00  0.00    +0.183 A 
ATOM      9  C   UNL     1       1.132  -0.554   0.563  0.00  0.00    +0.164 A 
ATOM     10  C   UNL     1       0.004  -0.008  -0.035  0.00  0.00    +0.049 A 
ATOM     11  O   UNL     1       1.051  -1.783   1.143  0.00  0.00    -0.485 OA
ATOM     12  C   UNL     1       2.287  -2.456   1.402  0.00  0.00    +0.270 C 
ATOM     13  C   UNL     1       3.253  -1.455   2.050  0.00  0.00    +0.270 C 
ATOM     14  O   UNL     1       3.444  -0.365   1.143  0.00  0.00    -0.483 OA
ENDBRANCH   1   7
BRANCH   2  15
ATOM     15  C   UNL     1       4.824   4.229  -0.238  0.00  0.00    +0.134 A 
ATOM     16  C   UNL     1       4.813   5.596  -0.329  0.00  0.00    +0.080 A 
ATOM     17  S   UNL     1       6.451   5.967  -0.444  0.00  0.00    -0.074 S 
ATOM     18  C   UNL     1       7.095   4.304  -0.368  0.00  0.00    +0.116 A 
ATOM     19  N   UNL     1       5.987   3.590  -0.254  0.00  0.00    -0.234 NA
BRANCH  18  20
ATOM     20  C   UNL     1       8.493   3.847  -0.415  0.00  0.00    +0.044 A 
ATOM     21  C   UNL     1       9.642   4.589  -0.522  0.00  0.00    +0.018 A 
ATOM     22  C   UNL     1      10.852   3.934  -0.546  0.00  0.00    +0.008 A 
ATOM     23  C   UNL     1      10.873   2.578  -0.463  0.00  0.00    +0.046 A 
ATOM     24  S   UNL     1       9.136   2.183  -0.339  0.00  0.00    -0.095 S 
ENDBRANCH  18  20
ENDBRANCH   2  15
TORSDOF 3
