REMARK  Name = ZINC44253716
REMARK  12 active torsions:
REMARK  status: ('A' for Active; 'I' for Inactive)
REMARK    1  A    between atoms: C_1  and  C_2
REMARK    2  A    between atoms: C_3  and  C_30
REMARK    3  A    between atoms: C_4  and  C_29
REMARK    4  A    between atoms: C_5  and  S_10
REMARK    5  A    between atoms: C_6  and  C_9
REMARK    6  A    between atoms: C_7  and  C_8
REMARK    7  A    between atoms: S_10  and  O_13
REMARK    8  A    between atoms: O_13  and  C_14
REMARK    9  A    between atoms: C_15  and  C_22
REMARK   10  A    between atoms: C_22  and  C_24
REMARK   11  A    between atoms: C_22  and  N_28
REMARK   12  A    between atoms: C_24  and  C_25
REMARK                            x       y       z     vdW  Elec       q    Type
REMARK                         _______ _______ _______ _____ _____    ______ ____
ROOT
ATOM      1  C   UNL     1       2.345  -6.064  -0.210  0.00  0.00    +0.177 A 
ATOM      2  C   UNL     1       1.804  -7.321  -0.435  0.00  0.00    -0.014 A 
ATOM      3  C   UNL     1       2.566  -8.303  -1.037  0.00  0.00    +0.025 A 
ATOM      4  C   UNL     1       3.870  -8.034  -1.415  0.00  0.00    +0.043 A 
ATOM      5  C   UNL     1       4.413  -6.782  -1.191  0.00  0.00    +0.043 A 
ATOM      6  C   UNL     1       3.651  -5.794  -0.595  0.00  0.00    +0.087 A 
ATOM      7 CL   UNL     1       4.329  -4.220  -0.320  0.00  0.00    -0.080 Cl
ATOM      8 CL   UNL     1       4.826  -9.271  -2.170  0.00  0.00    -0.083 Cl
ENDROOT
BRANCH   1   9
ATOM      9  O   UNL     1       1.596  -5.096   0.382  0.00  0.00    -0.341 OA
BRANCH   9  10
ATOM     10  S   UNL     1       0.922  -4.148  -0.599  0.00  0.00    +0.152 S 
ATOM     11  O   UNL     1      -0.337  -4.724  -0.921  0.00  0.00    -0.131 OA
ATOM     12  O   UNL     1       1.891  -3.833  -1.590  0.00  0.00    -0.131 OA
BRANCH  10  17
ATOM     13  C   UNL     1      -0.236   0.972   2.375  0.00  0.00    +0.044 C 
ATOM     14  C   UNL     1       0.053  -0.306   1.632  0.00  0.00    -0.044 A 
ATOM     15  C   UNL     1       0.284  -0.277   0.269  0.00  0.00    -0.042 A 
ATOM     16  C   UNL     1       0.549  -1.450  -0.412  0.00  0.00    -0.019 A 
ATOM     17  C   UNL     1       0.585  -2.653   0.269  0.00  0.00    +0.134 A 
ATOM     18  C   UNL     1       0.355  -2.682   1.632  0.00  0.00    -0.019 A 
ATOM     19  C   UNL     1       0.094  -1.508   2.314  0.00  0.00    -0.042 A 
ATOM     20  C   UNL     1      -0.151  -1.539   3.801  0.00  0.00    +0.044 C 
ATOM     21  C   UNL     1       0.393  -3.992   2.375  0.00  0.00    +0.046 C 
ATOM     22  C   UNL     1       0.799  -1.419  -1.898  0.00  0.00    +0.046 C 
ATOM     23  C   UNL     1       0.245   1.033  -0.474  0.00  0.00    +0.044 C 
ENDBRANCH  10  17
ENDBRANCH   9  10
ENDBRANCH   1   9
BRANCH   2  24
ATOM     24  C   UNL     1       0.384  -7.615  -0.024  0.00  0.00    -0.032 C 
BRANCH  24  25
ATOM     25  N   UNL     1       0.319  -8.946   0.595  0.00  0.00    +0.383 N 
ATOM     26  H   UNL     1       0.885  -8.956   1.430  0.00  0.00    -0.089 HD
ATOM     27  H   UNL     1      -0.637  -9.159   0.834  0.00  0.00    -0.089 HD
ATOM     28  H   UNL     1       0.666  -9.636  -0.054  0.00  0.00    -0.089 HD
ENDBRANCH  24  25
BRANCH  24  29
ATOM     29  C   UNL     1      -0.522  -7.582  -1.257  0.00  0.00    +0.084 C 
BRANCH  29  30
ATOM     30  C   UNL     1      -1.958  -7.744  -0.830  0.00  0.00    +0.209 C 
ATOM     31  O   UNL     1      -2.240  -7.778   0.349  0.00  0.00    -0.276 OA
ATOM     32  N   UNL     1      -2.929  -7.850  -1.758  0.00  0.00    -0.329 N 
ATOM     33  H   UNL     1      -2.698  -7.896  -2.699  0.00  0.00    +0.145 HD
ATOM     34  H   UNL     1      -3.859  -7.882  -1.485  0.00  0.00    +0.145 HD
ENDBRANCH  29  30
ENDBRANCH  24  29
ENDBRANCH   2  24
TORSDOF 7
