REMARK  Name = ZINC20942321
REMARK  11 active torsions:
REMARK  status: ('A' for Active; 'I' for Inactive)
REMARK    1  A    between atoms: C_1  and  C_2
REMARK    2  A    between atoms: C_2  and  O_3
REMARK    3  A    between atoms: O_3  and  C_4
REMARK    4  A    between atoms: C_4  and  C_5
REMARK    5  A    between atoms: C_5  and  C_6
REMARK    6  A    between atoms: C_6  and  N_7
REMARK    7  A    between atoms: N_7  and  C_8
REMARK    8  A    between atoms: N_7  and  C_9
REMARK    9  A    between atoms: C_15  and  C_17
REMARK   10  A    between atoms: C_18  and  N_26
REMARK   11  A    between atoms: C_27  and  C_29
REMARK                            x       y       z     vdW  Elec       q    Type
REMARK                         _______ _______ _______ _____ _____    ______ ____
ROOT
ATOM      1  C   UNL     1       1.354   5.462   0.018  0.00  0.00    +0.212 A 
ATOM      2  C   UNL     1       1.383   4.625   1.099  0.00  0.00    +0.092 A 
ATOM      3  C   UNL     1       0.872   3.334   0.622  0.00  0.00    +0.042 A 
ATOM      4  C   UNL     1       0.655   2.094   1.223  0.00  0.00    +0.013 A 
ATOM      5  C   UNL     1       0.153   1.060   0.483  0.00  0.00    +0.001 A 
ATOM      6  C   UNL     1      -0.138   1.236  -0.863  0.00  0.00    +0.004 A 
ATOM      7  C   UNL     1       0.064   2.455  -1.473  0.00  0.00    +0.047 A 
ATOM      8  C   UNL     1       0.574   3.520  -0.740  0.00  0.00    +0.138 A 
ATOM      9  O   UNL     1       0.875   4.795  -1.057  0.00  0.00    -0.448 OA
ENDROOT
BRANCH   1  16
ATOM     10  C   UNL     1      -1.120   9.723  -0.518  0.00  0.00    -0.066 C 
ATOM     11  C   UNL     1       0.339   9.944  -0.921  0.00  0.00    +0.004 C 
ATOM     12  C   UNL     1       1.255   9.252   0.093  0.00  0.00    +0.106 C 
ATOM     13  N   UNL     1       0.865   7.839   0.196  0.00  0.00    -0.295 N 
ATOM     14  C   UNL     1      -0.538   7.513   0.484  0.00  0.00    +0.106 C 
ATOM     15  C   UNL     1      -1.433   8.225  -0.530  0.00  0.00    +0.004 C 
ATOM     16  C   UNL     1       1.776   6.861   0.023  0.00  0.00    +0.284 C 
ATOM     17  O   UNL     1       2.951   7.143  -0.129  0.00  0.00    -0.267 OA
BRANCH  10  18
ATOM     18  N   UNL     1      -2.001  10.413  -1.470  0.00  0.00    +0.380 N 
ATOM     19  C   UNL     1      -1.667  11.841  -1.555  0.00  0.00    -0.096 C 
ATOM     20  H   UNL     1      -1.839   9.969  -2.464  0.00  0.00    -0.082 HD
BRANCH  18  21
ATOM     21  C   UNL     1      -3.413  10.222  -1.115  0.00  0.00    -0.077 C 
BRANCH  21  22
ATOM     22  C   UNL     1      -4.299  10.736  -2.252  0.00  0.00    +0.009 C 
BRANCH  22  23
ATOM     23  C   UNL     1      -5.770  10.537  -1.882  0.00  0.00    +0.158 C 
BRANCH  23  24
ATOM     24  O   UNL     1      -6.598  11.017  -2.944  0.00  0.00    -0.380 OA
BRANCH  24  26
ATOM     25  C   UNL     1      -8.783  11.420  -3.894  0.00  0.00    +0.034 C 
ATOM     26  C   UNL     1      -7.998  10.877  -2.698  0.00  0.00    +0.156 C 
ENDBRANCH  24  26
ENDBRANCH  23  24
ENDBRANCH  22  23
ENDBRANCH  21  22
ENDBRANCH  18  21
ENDBRANCH  10  18
ENDBRANCH   1  16
BRANCH   2  27
ATOM     27  N   UNL     1       1.809   4.933   2.385  0.00  0.00    -0.282 N 
ATOM     28  C   UNL     1       1.275   4.292   3.444  0.00  0.00    +0.220 C 
ATOM     29  O   UNL     1       0.360   3.513   3.282  0.00  0.00    -0.275 OA
ATOM     30  H   UNL     1       2.582   5.700   2.540  0.00  0.00    +0.155 HD
BRANCH  28  31
ATOM     31  C   UNL     1       1.816   4.543   4.828  0.00  0.00    +0.075 C 
ATOM     32  C   UNL     1       3.297   4.162   4.874  0.00  0.00    +0.013 C 
ATOM     33  C   UNL     1       3.845   4.416   6.279  0.00  0.00    +0.001 C 
ATOM     34  C   UNL     1       3.070   3.570   7.291  0.00  0.00    +0.000 C 
ATOM     35  C   UNL     1       1.588   3.951   7.245  0.00  0.00    +0.001 C 
ATOM     36  C   UNL     1       1.040   3.696   5.840  0.00  0.00    +0.013 C 
ENDBRANCH  28  31
ENDBRANCH   2  27
TORSDOF 9
