REMARK  Name = ZINC00925698
REMARK  13 active torsions:
REMARK  status: ('A' for Active; 'I' for Inactive)
REMARK    1  A    between atoms: C_1  and  C_2
REMARK    2  A    between atoms: C_9  and  C_14
REMARK    3  A    between atoms: C_14  and  N_15
REMARK    4  A    between atoms: N_15  and  C_16
REMARK    5  A    between atoms: N_15  and  C_28
REMARK    6  A    between atoms: C_16  and  C_17
REMARK    7  A    between atoms: C_17  and  C_18
REMARK    8  A    between atoms: C_21  and  O_26
REMARK    9  A    between atoms: C_22  and  O_24
REMARK   10  A    between atoms: O_24  and  C_25
REMARK   11  A    between atoms: O_26  and  C_27
REMARK   12  A    between atoms: C_28  and  C_29
REMARK   13  A    between atoms: N_33  and  C_34
REMARK                            x       y       z     vdW  Elec       q    Type
REMARK                         _______ _______ _______ _____ _____    ______ ____
ROOT
ATOM      1  N   UNL     1      -0.802   1.559  -0.987  0.00  0.00    -0.290 NA
ENDROOT
BRANCH   1   2
ATOM      2  C   UNL     1      -0.275   0.701  -2.057  0.00  0.00    +0.125 C 
BRANCH   2  11
ATOM      3  C   UNL     1      -5.530  -4.219  -4.007  0.00  0.00    +0.044 C 
ATOM      4  C   UNL     1      -4.301  -3.853  -3.215  0.00  0.00    -0.050 A 
ATOM      5  C   UNL     1      -3.725  -4.790  -2.368  0.00  0.00    +0.005 A 
ATOM      6  C   UNL     1      -2.600  -4.477  -1.635  0.00  0.00    +0.026 A 
ATOM      7  C   UNL     1      -2.036  -3.210  -1.742  0.00  0.00    +0.049 A 
ATOM      8  C   UNL     1      -2.624  -2.263  -2.602  0.00  0.00    -0.001 A 
ATOM      9  C   UNL     1      -3.764  -2.603  -3.337  0.00  0.00    +0.013 A 
ATOM     10  C   UNL     1      -2.026  -0.930  -2.704  0.00  0.00    +0.020 A 
ATOM     11  C   UNL     1      -0.918  -0.659  -1.971  0.00  0.00    +0.031 A 
ATOM     12  C   UNL     1      -0.368  -1.645  -1.123  0.00  0.00    +0.254 A 
ATOM     13  O   UNL     1       0.626  -1.379  -0.470  0.00  0.00    -0.268 OA
ATOM     14  N   UNL     1      -0.913  -2.870  -1.020  0.00  0.00    -0.322 N 
ATOM     15  H   UNL     1      -0.449  -3.605  -0.346  0.00  0.00    +0.169 HD
ENDBRANCH   2  11
ENDBRANCH   1   2
BRANCH   1  16
ATOM     16  C   UNL     1      -0.212   1.205   0.311  0.00  0.00    +0.090 C 
BRANCH  16  17
ATOM     17  C   UNL     1      -0.958   1.939   1.427  0.00  0.00    +0.050 C 
BRANCH  17  18
ATOM     18  C   UNL     1      -0.353   1.576   2.759  0.00  0.00    -0.042 A 
ATOM     19  C   UNL     1      -0.843   0.493   3.466  0.00  0.00    +0.007 A 
ATOM     20  C   UNL     1      -0.288   0.152   4.686  0.00  0.00    +0.049 A 
ATOM     21  C   UNL     1       0.754   0.902   5.207  0.00  0.00    +0.161 A 
ATOM     22  C   UNL     1       1.243   1.995   4.497  0.00  0.00    +0.162 A 
ATOM     23  C   UNL     1       0.686   2.328   3.273  0.00  0.00    +0.053 A 
BRANCH  22  24
ATOM     24  O   UNL     1       2.266   2.734   5.004  0.00  0.00    -0.491 OA
ATOM     25  C   UNL     1       2.717   3.841   4.221  0.00  0.00    +0.277 C 
ENDBRANCH  22  24
BRANCH  21  26
ATOM     26  O   UNL     1       1.298   0.571   6.408  0.00  0.00    -0.491 OA
ATOM     27  C   UNL     1       0.745  -0.562   7.080  0.00  0.00    +0.277 C 
ENDBRANCH  21  26
ENDBRANCH  17  18
ENDBRANCH  16  17
ENDBRANCH   1  16
BRANCH   1  28
ATOM     28  C   UNL     1      -0.582   2.979  -1.295  0.00  0.00    +0.162 C 
BRANCH  28  29
ATOM     29  C   UNL     1      -1.488   3.394  -2.426  0.00  0.00    +0.166 A 
ATOM     30  N   UNL     1      -1.189   3.409  -3.702  0.00  0.00    -0.112 NA
ATOM     31  N   UNL     1      -2.225   3.821  -4.348  0.00  0.00    -0.023 NA
ATOM     32  N   UNL     1      -3.174   4.077  -3.516  0.00  0.00    -0.044 NA
ATOM     33  N   UNL     1      -2.758   3.826  -2.321  0.00  0.00    -0.225 N 
BRANCH  33  34
ATOM     34  C   UNL     1      -3.524   3.982  -1.082  0.00  0.00    +0.111 C 
ATOM     35  C   UNL     1      -4.809   3.130  -1.145  0.00  0.00    +0.027 C 
ATOM     36  C   UNL     1      -5.875   3.997  -0.429  0.00  0.00    +0.002 C 
ATOM     37  C   UNL     1      -5.516   5.431  -0.892  0.00  0.00    +0.002 C 
ATOM     38  C   UNL     1      -3.974   5.445  -0.921  0.00  0.00    +0.027 C 
ENDBRANCH  33  34
ENDBRANCH  28  29
ENDBRANCH   1  28
TORSDOF 10
