REMARK  Name = ZINC28793429
REMARK  8 active torsions:
REMARK  status: ('A' for Active; 'I' for Inactive)
REMARK    1  A    between atoms: C_1  and  N_2
REMARK    2  A    between atoms: N_2  and  C_3
REMARK    3  A    between atoms: N_2  and  S_9
REMARK    4  A    between atoms: S_9  and  C_12
REMARK    5  A    between atoms: C_15  and  C_18
REMARK    6  A    between atoms: N_20  and  N_21
REMARK    7  A    between atoms: C_22  and  C_24
REMARK    8  A    between atoms: C_26  and  C_29
REMARK                            x       y       z     vdW  Elec       q    Type
REMARK                         _______ _______ _______ _____ _____    ______ ____
ROOT
ATOM      1  C   UNL     1       5.737  -1.626  -3.034  0.00  0.00    +0.260 C 
ATOM      2  O   UNL     1       6.302  -0.790  -3.713  0.00  0.00    -0.269 OA
ATOM      3  N   UNL     1       6.399  -2.732  -2.639  0.00  0.00    -0.230 N 
ATOM      4  H   UNL     1       5.948  -3.399  -2.097  0.00  0.00    +0.173 HD
ENDROOT
BRANCH   1   8
ATOM      5  C   UNL     1       1.682  -1.059  -1.905  0.00  0.00    +0.106 A 
ATOM      6  C   UNL     1       2.321  -0.106  -2.678  0.00  0.00    +0.029 A 
ATOM      7  C   UNL     1       3.638  -0.284  -3.048  0.00  0.00    +0.015 A 
ATOM      8  C   UNL     1       4.326  -1.429  -2.641  0.00  0.00    +0.038 A 
ATOM      9  C   UNL     1       3.675  -2.386  -1.861  0.00  0.00    +0.015 A 
ATOM     10  C   UNL     1       2.359  -2.194  -1.494  0.00  0.00    +0.029 A 
BRANCH   5  11
ATOM     11  S   UNL     1      -0.000  -0.824  -1.437  0.00  0.00    +0.061 S 
ATOM     12  O   UNL     1      -0.531  -2.115  -1.167  0.00  0.00    -0.153 OA
ATOM     13  O   UNL     1      -0.572   0.049  -2.401  0.00  0.00    -0.153 OA
BRANCH  11  15
ATOM     14  C   UNL     1      -0.018   1.461   0.010  0.00  0.00    +0.132 C 
ATOM     15  N   UNL     1       0.002  -0.004   0.002  0.00  0.00    -0.177 NA
BRANCH  15  16
ATOM     16  C   UNL     1       0.024  -0.743   1.267  0.00  0.00    +0.080 C 
ATOM     17  C   UNL     1      -1.222  -0.395   2.083  0.00  0.00    +0.020 C 
ATOM     18  C   UNL     1      -1.199  -1.167   3.404  0.00  0.00    +0.002 C 
ATOM     19  C   UNL     1       0.052  -0.785   4.196  0.00  0.00    +0.000 C 
ATOM     20  C   UNL     1       1.299  -1.133   3.380  0.00  0.00    +0.002 C 
ATOM     21  C   UNL     1       1.276  -0.361   2.059  0.00  0.00    +0.020 C 
ENDBRANCH  15  16
ENDBRANCH  11  15
ENDBRANCH   5  11
ENDBRANCH   1   8
BRANCH   3  22
ATOM     22  N   UNL     1       7.736  -2.919  -3.012  0.00  0.00    -0.229 N 
ATOM     23  C   UNL     1       8.397  -4.025  -2.617  0.00  0.00    +0.282 C 
ATOM     24  O   UNL     1       7.833  -4.860  -1.939  0.00  0.00    -0.267 OA
ATOM     25  H   UNL     1       8.186  -2.252  -3.554  0.00  0.00    +0.173 HD
BRANCH  23  26
ATOM     26  C   UNL     1       9.813  -4.223  -3.012  0.00  0.00    +0.170 A 
ATOM     27  C   UNL     1      10.621  -5.331  -2.676  0.00  0.00    +0.086 A 
ATOM     28  C   UNL     1      11.849  -5.135  -3.225  0.00  0.00    +0.168 A 
ATOM     29  O   UNL     1      11.827  -3.959  -3.880  0.00  0.00    -0.354 OA
ATOM     30  N   UNL     1      10.534  -3.402  -3.739  0.00  0.00    -0.073 NA
BRANCH  28  31
ATOM     31  C   UNL     1      13.005  -6.051  -3.121  0.00  0.00    +0.020 A 
ATOM     32  C   UNL     1      12.889  -7.247  -2.412  0.00  0.00    +0.011 A 
ATOM     33  C   UNL     1      13.972  -8.098  -2.319  0.00  0.00    +0.001 A 
ATOM     34  C   UNL     1      15.170  -7.767  -2.927  0.00  0.00    +0.000 A 
ATOM     35  C   UNL     1      15.291  -6.582  -3.631  0.00  0.00    +0.001 A 
ATOM     36  C   UNL     1      14.215  -5.726  -3.737  0.00  0.00    +0.011 A 
ENDBRANCH  28  31
ENDBRANCH  23  26
ENDBRANCH   3  22
TORSDOF 7
