REMARK  Name = ZINC59248589
REMARK  4 active torsions:
REMARK  status: ('A' for Active; 'I' for Inactive)
REMARK    1  A    between atoms: C_3  and  C_13
REMARK    2  A    between atoms: N_4  and  C_6
REMARK    3  A    between atoms: N_14  and  N_15
REMARK    4  A    between atoms: N_18  and  C_19
REMARK                            x       y       z     vdW  Elec       q    Type
REMARK                         _______ _______ _______ _____ _____    ______ ____
ROOT
ATOM      1  C   UNL     1       3.586   0.671  -0.052  0.00  0.00    +0.156 C 
ATOM      2  N   UNL     1       4.243   1.793  -0.045  0.00  0.00    -0.185 NA
ENDROOT
BRANCH   2   3
ATOM      3  N   UNL     1       5.644   1.784  -0.049  0.00  0.00    -0.190 N 
ATOM      4  C   UNL     1       6.325   2.947  -0.041  0.00  0.00    +0.323 C 
ATOM      5  O   UNL     1       7.541   2.940  -0.045  0.00  0.00    -0.251 OA
ATOM      6  N   UNL     1       5.659   4.119  -0.030  0.00  0.00    -0.268 N 
ATOM      7  H   UNL     1       6.124   0.941  -0.057  0.00  0.00    +0.179 HD
ATOM      8  H   UNL     1       4.691   4.127  -0.095  0.00  0.00    +0.156 HD
BRANCH   6   9
ATOM      9  C   UNL     1       6.363   5.324   0.075  0.00  0.00    +0.035 A 
ATOM     10  C   UNL     1       5.822   6.386   0.788  0.00  0.00    +0.025 A 
ATOM     11  C   UNL     1       6.519   7.573   0.891  0.00  0.00    +0.022 A 
ATOM     12  C   UNL     1       7.756   7.706   0.285  0.00  0.00    +0.041 A 
ATOM     13  C   UNL     1       8.297   6.649  -0.426  0.00  0.00    +0.022 A 
ATOM     14  C   UNL     1       7.607   5.457  -0.528  0.00  0.00    +0.025 A 
ATOM     15 CL   UNL     1       8.630   9.200   0.416  0.00  0.00    -0.084 Cl
ENDBRANCH   6   9
ENDBRANCH   2   3
BRANCH   1  18
ATOM     16  C   UNL     1      -0.017   1.348  -0.037  0.00  0.00    +0.020 A 
ATOM     17  C   UNL     1       1.312   1.797  -0.037  0.00  0.00    +0.029 A 
ATOM     18  C   UNL     1       2.119   0.680  -0.048  0.00  0.00    +0.066 A 
ATOM     19  N   UNL     1       1.299  -0.425  -0.055  0.00  0.00    -0.315 N 
ATOM     20  C   UNL     1       0.001  -0.003  -0.048  0.00  0.00    +0.092 A 
BRANCH  19  21
ATOM     21  C   UNL     1       1.725  -1.760  -0.066  0.00  0.00    +0.047 A 
ATOM     22  C   UNL     1       2.675  -2.179  -0.989  0.00  0.00    +0.027 A 
ATOM     23  C   UNL     1       3.093  -3.495  -0.998  0.00  0.00    +0.022 A 
ATOM     24  C   UNL     1       2.567  -4.396  -0.089  0.00  0.00    +0.041 A 
ATOM     25  C   UNL     1       1.620  -3.981   0.831  0.00  0.00    +0.022 A 
ATOM     26  C   UNL     1       1.203  -2.664   0.849  0.00  0.00    +0.027 A 
ATOM     27 CL   UNL     1       3.094  -6.050  -0.104  0.00  0.00    -0.084 Cl
ENDBRANCH  19  21
ENDBRANCH   1  18
TORSDOF 4
