REMARK  Name = ZINC45211616
REMARK  6 active torsions:
REMARK  status: ('A' for Active; 'I' for Inactive)
REMARK    1  A    between atoms: C_1  and  C_2
REMARK    2  A    between atoms: C_7  and  N_10
REMARK    3  A    between atoms: C_11  and  C_13
REMARK    4  A    between atoms: C_13  and  N_14
REMARK    5  A    between atoms: N_14  and  C_15
REMARK    6  A    between atoms: C_16  and  C_18
REMARK                            x       y       z     vdW  Elec       q    Type
REMARK                         _______ _______ _______ _____ _____    ______ ____
ROOT
ATOM      1  N   UNL     1       1.652  -2.753   1.839  0.00  0.00    -0.311 N 
ATOM      2  C   UNL     1       2.121  -3.996   2.068  0.00  0.00    +0.231 C 
ATOM      3  O   UNL     1       1.924  -4.877   1.258  0.00  0.00    -0.274 OA
ATOM      4  H   UNL     1       1.810  -2.048   2.486  0.00  0.00    +0.149 HD
ENDROOT
BRANCH   1  10
ATOM      5  C   UNL     1       0.358   0.807  -1.338  0.00  0.00    +0.007 C 
ATOM      6  C   UNL     1       0.239  -0.681  -1.003  0.00  0.00    -0.012 C 
ATOM      7  C   UNL     1      -1.233  -1.041  -0.797  0.00  0.00    +0.003 C 
ATOM      8  C   UNL     1      -1.352  -2.529  -0.462  0.00  0.00    +0.002 C 
ATOM      9  C   UNL     1      -0.570  -2.828   0.819  0.00  0.00    +0.022 C 
ATOM     10  C   UNL     1       0.903  -2.467   0.613  0.00  0.00    +0.073 C 
ATOM     11  C   UNL     1       1.022  -0.979   0.278  0.00  0.00    +0.025 C 
ENDBRANCH   1  10
BRANCH   2  12
ATOM     12  C   UNL     1       2.892  -4.290   3.329  0.00  0.00    +0.203 C 
BRANCH  12  13
ATOM     13  N   UNL     1       3.289  -5.699   3.341  0.00  0.00    -0.289 N 
ATOM     14  C   UNL     1       4.570  -6.104   2.756  0.00  0.00    +0.133 C 
ATOM     15  C   UNL     1       2.477  -6.624   3.890  0.00  0.00    +0.282 C 
ATOM     16  O   UNL     1       1.373  -6.304   4.289  0.00  0.00    -0.267 OA
BRANCH  15  17
ATOM     17  C   UNL     1       2.924  -8.016   4.007  0.00  0.00    +0.189 A 
ATOM     18  C   UNL     1       2.165  -9.070   4.428  0.00  0.00    +0.054 A 
ATOM     19  C   UNL     1       2.989 -10.205   4.384  0.00  0.00    +0.042 A 
ATOM     20  C   UNL     1       4.201  -9.799   3.943  0.00  0.00    +0.196 A 
ATOM     21  O   UNL     1       4.156  -8.481   3.712  0.00  0.00    -0.458 OA
ENDBRANCH  15  17
ENDBRANCH  12  13
ENDBRANCH   2  12
TORSDOF 4
