REMARK  Name = ZINC37276228
REMARK  7 active torsions:
REMARK  status: ('A' for Active; 'I' for Inactive)
REMARK    1  A    between atoms: C_1  and  C_2
REMARK    2  A    between atoms: C_2  and  C_3
REMARK    3  A    between atoms: C_3  and  N_4
REMARK    4  A    between atoms: N_10  and  C_16
REMARK    5  A    between atoms: C_13  and  C_15
REMARK    6  A    between atoms: C_21  and  C_22
REMARK    7  A    between atoms: C_22  and  C_23
REMARK                            x       y       z     vdW  Elec       q    Type
REMARK                         _______ _______ _______ _____ _____    ______ ____
ROOT
ATOM      1  N   UNL     1       1.565  -2.137   3.068  0.00  0.00    -0.299 N 
ATOM      2  C   UNL     1       1.226  -2.708   1.895  0.00  0.00    +0.303 C 
ATOM      3  O   UNL     1       0.840  -2.017   0.972  0.00  0.00    -0.253 OA
ATOM      4  N   UNL     1       1.315  -4.044   1.745  0.00  0.00    -0.273 N 
ATOM      5  C   UNL     1       1.063  -4.688   0.444  0.00  0.00    +0.129 C 
ATOM      6  C   UNL     1       2.344  -5.401   0.009  0.00  0.00    +0.133 C 
ATOM      7  N   UNL     1       2.902  -6.179   1.107  0.00  0.00    -0.268 N 
ATOM      8  C   UNL     1       2.647  -5.956   2.397  0.00  0.00    +0.240 C 
ATOM      9  O   UNL     1       3.234  -6.621   3.225  0.00  0.00    -0.273 OA
ATOM     10  C   UNL     1       1.673  -4.918   2.872  0.00  0.00    +0.161 C 
ATOM     11  C   UNL     1       0.416  -5.608   3.405  0.00  0.00    +0.038 C 
ATOM     12  H   UNL     1       1.804  -2.693   3.826  0.00  0.00    +0.150 HD
ENDROOT
BRANCH   7  13
ATOM     13  C   UNL     1       3.764  -7.233   0.786  0.00  0.00    +0.040 A 
ATOM     14  C   UNL     1       3.274  -8.530   0.697  0.00  0.00    +0.024 A 
ATOM     15  C   UNL     1       4.128  -9.568   0.380  0.00  0.00    +0.002 A 
ATOM     16  C   UNL     1       5.469  -9.318   0.152  0.00  0.00    +0.000 A 
ATOM     17  C   UNL     1       5.959  -8.028   0.240  0.00  0.00    +0.005 A 
ATOM     18  C   UNL     1       5.109  -6.984   0.551  0.00  0.00    -0.026 A 
BRANCH  18  19
ATOM     19  C   UNL     1       5.644  -5.578   0.641  0.00  0.00    +0.033 C 
ATOM     20  C   UNL     1       6.017  -5.266   2.091  0.00  0.00    +0.009 C 
ENDBRANCH  18  19
ENDBRANCH   7  13
BRANCH   1  21
ATOM     21  C   UNL     1       1.572  -0.678   3.198  0.00  0.00    +0.105 C 
BRANCH  21  23
ATOM     22  C   UNL     1       1.997   1.230   4.754  0.00  0.00    +0.005 C 
ATOM     23  C   UNL     1       1.989  -0.294   4.619  0.00  0.00    +0.015 C 
ENDBRANCH  21  23
ENDBRANCH   1  21
TORSDOF 4
