REMARK  Name = ZINC05345816
REMARK  9 active torsions:
REMARK  status: ('A' for Active; 'I' for Inactive)
REMARK    1  A    between atoms: C_1  and  C_2
REMARK    2  A    between atoms: C_2  and  C_3
REMARK    3  A    between atoms: C_2  and  C_4
REMARK    4  A    between atoms: C_4  and  C_5
REMARK    5  A    between atoms: N_13  and  C_16
REMARK    6  A    between atoms: C_16  and  C_17
REMARK    7  A    between atoms: C_17  and  C_18
REMARK    8  A    between atoms: C_18  and  O_19
REMARK    9  A    between atoms: O_19  and  C_20
REMARK                            x       y       z     vdW  Elec       q    Type
REMARK                         _______ _______ _______ _____ _____    ______ ____
ROOT
ATOM      1  C   UNL     1      -2.135  -0.131  -1.286  0.00  0.00    -0.057 C 
ATOM      2  C   UNL     1      -3.574  -0.688  -1.313  0.00  0.00    +0.073 C 
ATOM      3  C   UNL     1      -3.471  -2.023  -2.101  0.00  0.00    +0.088 C 
ATOM      4  C   UNL     1      -4.293  -1.758  -3.343  0.00  0.00    +0.225 C 
ATOM      5  O   UNL     1      -4.487  -2.552  -4.237  0.00  0.00    -0.275 OA
ATOM      6  N   UNL     1      -4.774  -0.510  -3.300  0.00  0.00    -0.242 N 
ATOM      7  C   UNL     1      -4.434   0.190  -2.193  0.00  0.00    +0.224 C 
ATOM      8  O   UNL     1      -4.757   1.331  -1.942  0.00  0.00    -0.275 OA
ATOM      9  C   UNL     1      -1.986  -2.142  -2.465  0.00  0.00    +0.050 C 
ATOM     10  N   UNL     1      -1.459  -0.756  -2.454  0.00  0.00    +0.394 N 
ATOM     11  C   UNL     1      -1.797  -2.778  -3.813  0.00  0.00    -0.026 A 
ATOM     12  C   UNL     1      -2.212  -2.447  -5.084  0.00  0.00    +0.004 A 
ATOM     13  C   UNL     1      -1.871  -3.252  -6.156  0.00  0.00    +0.002 A 
ATOM     14  C   UNL     1      -1.112  -4.389  -5.949  0.00  0.00    +0.022 A 
ATOM     15  C   UNL     1      -0.692  -4.724  -4.677  0.00  0.00    +0.062 A 
ATOM     16  C   UNL     1      -1.032  -3.918  -3.592  0.00  0.00    +0.054 A 
ATOM     17  N   UNL     1      -0.731  -4.043  -2.233  0.00  0.00    -0.285 N 
ATOM     18  C   UNL     1      -1.256  -3.039  -1.504  0.00  0.00    +0.211 C 
ATOM     19  O   UNL     1      -1.157  -2.888  -0.304  0.00  0.00    -0.277 OA
ATOM     20 CL   UNL     1       0.260  -6.154  -4.429  0.00  0.00    -0.082 Cl
ATOM     21  H   UNL     1      -1.701  -0.268  -3.304  0.00  0.00    -0.083 HD
ATOM     22  H   UNL     1      -0.206  -4.767  -1.859  0.00  0.00    +0.155 HD
ATOM     23  H   UNL     1      -0.459  -0.762  -2.321  0.00  0.00    -0.083 HD
ENDROOT
BRANCH   1  24
ATOM     24  C   UNL     1      -1.433  -0.534   0.013  0.00  0.00    -0.012 C 
BRANCH  24  26
ATOM     25  C   UNL     1       0.593   0.820  -0.539  0.00  0.00    +0.007 C 
ATOM     26  C   UNL     1       0.078  -0.585  -0.219  0.00  0.00    -0.019 C 
ATOM     27  C   UNL     1       0.770  -1.107   1.042  0.00  0.00    +0.007 C 
ENDBRANCH  24  26
ENDBRANCH   1  24
BRANCH   6  28
ATOM     28  C   UNL     1      -5.609   0.055  -4.363  0.00  0.00    +0.118 C 
BRANCH  28  29
ATOM     29  C   UNL     1      -7.081  -0.227  -4.059  0.00  0.00    +0.047 C 
BRANCH  29  30
ATOM     30  C   UNL     1      -7.953   0.363  -5.170  0.00  0.00    +0.161 C 
BRANCH  30  31
ATOM     31  O   UNL     1      -9.329   0.100  -4.886  0.00  0.00    -0.383 OA
ATOM     32  C   UNL     1     -10.233   0.611  -5.867  0.00  0.00    +0.193 C 
ENDBRANCH  30  31
ENDBRANCH  29  30
ENDBRANCH  28  29
ENDBRANCH   6  28
TORSDOF 6
