REMARK  Name = ZINC66790233
REMARK  8 active torsions:
REMARK  status: ('A' for Active; 'I' for Inactive)
REMARK    1  A    between atoms: C_1  and  C_2
REMARK    2  A    between atoms: C_3  and  C_26
REMARK    3  A    between atoms: C_5  and  N_20
REMARK    4  A    between atoms: C_6  and  C_7
REMARK    5  A    between atoms: N_9  and  N_10
REMARK    6  A    between atoms: C_11  and  C_13
REMARK    7  A    between atoms: C_13  and  C_14
REMARK    8  A    between atoms: C_21  and  C_23
REMARK                            x       y       z     vdW  Elec       q    Type
REMARK                         _______ _______ _______ _____ _____    ______ ____
ROOT
ATOM      1  C   UNL     1       0.028  -0.138   2.541  0.00  0.00    +0.263 C 
ATOM      2  O   UNL     1      -1.024   0.114   3.099  0.00  0.00    -0.269 OA
ATOM      3  N   UNL     1       1.197   0.172   3.136  0.00  0.00    -0.230 N 
ATOM      4  H   UNL     1       2.035  -0.028   2.692  0.00  0.00    +0.173 HD
ENDROOT
BRANCH   1  10
ATOM      5  C   UNL     1      -0.018   1.503   0.010  0.00  0.00    +0.045 C 
ATOM      6  C   UNL     1       0.002  -0.004   0.002  0.00  0.00    -0.027 A 
ATOM      7  C   UNL     1       0.006  -0.713  -1.142  0.00  0.00    -0.008 A 
ATOM      8  S   UNL     1       0.032  -2.400  -0.579  0.00  0.00    -0.078 S 
ATOM      9  C   UNL     1       0.036  -2.158   1.081  0.00  0.00    +0.084 A 
ATOM     10  C   UNL     1       0.024  -0.778   1.222  0.00  0.00    +0.070 A 
ATOM     11  C   UNL     1      -0.007  -0.200  -2.559  0.00  0.00    +0.052 C 
BRANCH   9  12
ATOM     12  N   UNL     1       0.054  -3.117   2.083  0.00  0.00    -0.279 N 
ATOM     13  C   UNL     1       0.070  -4.426   1.762  0.00  0.00    +0.221 C 
ATOM     14  O   UNL     1       0.070  -4.765   0.597  0.00  0.00    -0.275 OA
ATOM     15  H   UNL     1       0.054  -2.846   3.014  0.00  0.00    +0.155 HD
BRANCH  13  16
ATOM     16  C   UNL     1       0.089  -5.468   2.850  0.00  0.00    +0.075 C 
ATOM     17  C   UNL     1       1.365  -6.296   3.013  0.00  0.00    +0.013 C 
ATOM     18  C   UNL     1       0.108  -6.937   2.421  0.00  0.00    +0.013 C 
ENDBRANCH  13  16
ENDBRANCH   9  12
ENDBRANCH   1  10
BRANCH   3  19
ATOM     19  N   UNL     1       1.200   0.784   4.397  0.00  0.00    -0.234 N 
ATOM     20  C   UNL     1       2.369   1.094   4.992  0.00  0.00    +0.229 C 
ATOM     21  O   UNL     1       3.418   0.844   4.436  0.00  0.00    -0.274 OA
ATOM     22  H   UNL     1       0.362   0.985   4.841  0.00  0.00    +0.173 HD
BRANCH  20  23
ATOM     23  C   UNL     1       2.373   1.752   6.348  0.00  0.00    +0.101 C 
BRANCH  23  24
ATOM     24  C   UNL     1       3.817   1.995   6.793  0.00  0.00    -0.002 C 
ATOM     25  C   UNL     1       4.521   0.651   6.993  0.00  0.00    +0.004 C 
ATOM     26  C   UNL     1       5.965   0.893   7.438  0.00  0.00    +0.000 C 
ATOM     27  C   UNL     1       5.968   1.672   8.755  0.00  0.00    +0.000 C 
ATOM     28  C   UNL     1       5.264   3.016   8.555  0.00  0.00    +0.000 C 
ATOM     29  C   UNL     1       3.821   2.774   8.110  0.00  0.00    +0.004 C 
ENDBRANCH  23  24
ENDBRANCH  20  23
ENDBRANCH   3  19
TORSDOF 6
