REMARK  Name = ZINC13040996
REMARK  7 active torsions:
REMARK  status: ('A' for Active; 'I' for Inactive)
REMARK    1  A    between atoms: C_1  and  C_2
REMARK    2  A    between atoms: C_2  and  C_26
REMARK    3  A    between atoms: C_13  and  C_15
REMARK    4  A    between atoms: C_15  and  N_48
REMARK    5  A    between atoms: C_16  and  N_48
REMARK    6  A    between atoms: C_17  and  C_18
REMARK    7  A    between atoms: C_17  and  N_48
REMARK                            x       y       z     vdW  Elec       q    Type
REMARK                         _______ _______ _______ _____ _____    ______ ____
ROOT
ATOM      1  C   UNL     1       5.008   1.131  -0.231  0.00  0.00    +0.042 C 
ATOM      2  C   UNL     1       3.700   1.911  -0.382  0.00  0.00    +0.113 C 
ATOM      3  C   UNL     1       3.890   3.316   0.128  0.00  0.00    +0.241 C 
ATOM      4  O   UNL     1       4.977   3.846   0.035  0.00  0.00    -0.273 OA
ATOM      5  N   UNL     1       2.866   3.991   0.685  0.00  0.00    -0.282 N 
ATOM      6  C   UNL     1       1.615   3.386   0.849  0.00  0.00    +0.055 A 
ATOM      7  C   UNL     1       0.495   4.145   1.148  0.00  0.00    +0.025 A 
ATOM      8  C   UNL     1      -0.731   3.526   1.313  0.00  0.00    +0.002 A 
ATOM      9  C   UNL     1      -0.846   2.155   1.175  0.00  0.00    +0.002 A 
ATOM     10  C   UNL     1       0.268   1.389   0.880  0.00  0.00    +0.025 A 
ATOM     11  C   UNL     1       1.497   2.002   0.713  0.00  0.00    +0.058 A 
ATOM     12  N   UNL     1       2.643   1.254   0.403  0.00  0.00    -0.257 N 
ATOM     13  C   UNL     1       2.771  -0.024   0.809  0.00  0.00    +0.204 C 
ATOM     14  O   UNL     1       3.717  -0.687   0.438  0.00  0.00    -0.277 OA
ATOM     15  C   UNL     1       3.294   1.949  -1.856  0.00  0.00    +0.042 C 
ATOM     16  H   UNL     1       2.998   4.907   0.975  0.00  0.00    +0.155 HD
ENDROOT
BRANCH  13  17
ATOM     17  C   UNL     1       1.740  -0.630   1.726  0.00  0.00    +0.019 C 
BRANCH  17  19
ATOM     18  C   UNL     1       3.400  -1.419   3.302  0.00  0.00    -0.095 C 
ATOM     19  N   UNL     1       2.321  -1.824   2.375  0.00  0.00    +0.386 N 
ATOM     20  H   UNL     1       2.716  -2.438   1.653  0.00  0.00    -0.081 HD
BRANCH  19  21
ATOM     21  C   UNL     1       1.272  -2.560   3.111  0.00  0.00    -0.043 C 
BRANCH  21  22
ATOM     22  C   UNL     1       1.838  -3.878   3.575  0.00  0.00    -0.062 A 
ATOM     23  C   UNL     1       1.752  -4.992   2.761  0.00  0.00    +0.003 A 
ATOM     24  C   UNL     1       2.275  -6.199   3.183  0.00  0.00    +0.021 A 
ATOM     25  C   UNL     1       2.875  -6.297   4.425  0.00  0.00    +0.059 A 
ATOM     26  C   UNL     1       2.956  -5.183   5.243  0.00  0.00    +0.059 A 
ATOM     27  C   UNL     1       2.437  -3.973   4.817  0.00  0.00    +0.023 A 
ATOM     28 CL   UNL     1       3.710  -5.303   6.802  0.00  0.00    -0.082 Cl
ATOM     29 CL   UNL     1       3.527  -7.815   4.958  0.00  0.00    -0.082 Cl
ENDBRANCH  21  22
ENDBRANCH  19  21
ENDBRANCH  17  19
ENDBRANCH  13  17
TORSDOF 4
