REMARK  Name = ZINC59212468
REMARK  8 active torsions:
REMARK  status: ('A' for Active; 'I' for Inactive)
REMARK    1  A    between atoms: C_3  and  N_35
REMARK    2  A    between atoms: C_6  and  C_7
REMARK    3  A    between atoms: C_10  and  S_12
REMARK    4  A    between atoms: S_12  and  C_13
REMARK    5  A    between atoms: C_13  and  C_14
REMARK    6  A    between atoms: N_16  and  C_17
REMARK    7  A    between atoms: C_20  and  N_23
REMARK    8  A    between atoms: N_26  and  C_29
REMARK                            x       y       z     vdW  Elec       q    Type
REMARK                         _______ _______ _______ _____ _____    ______ ____
ROOT
ATOM      1  C   UNL     1      -7.879  -3.781   0.647  0.00  0.00    +0.228 C 
ATOM      2  O   UNL     1      -8.959  -3.841   1.197  0.00  0.00    -0.275 OA
ATOM      3  N   UNL     1      -7.366  -4.875   0.050  0.00  0.00    -0.285 N 
ATOM      4  H   UNL     1      -6.535  -4.812  -0.445  0.00  0.00    +0.155 HD
ENDROOT
BRANCH   3   5
ATOM      5  C   UNL     1      -8.034  -6.104   0.144  0.00  0.00    +0.034 A 
ATOM      6  C   UNL     1      -7.308  -7.284   0.231  0.00  0.00    +0.025 A 
ATOM      7  C   UNL     1      -7.966  -8.494   0.325  0.00  0.00    +0.025 A 
ATOM      8  C   UNL     1      -9.355  -8.531   0.332  0.00  0.00    +0.030 A 
ATOM      9  C   UNL     1     -10.081  -7.350   0.245  0.00  0.00    +0.025 A 
ATOM     10  C   UNL     1      -9.422  -6.140   0.157  0.00  0.00    +0.025 A 
BRANCH   8  11
ATOM     11  N   UNL     1     -10.022  -9.757   0.426  0.00  0.00    -0.333 N 
ATOM     12  C   UNL     1      -9.278 -11.008   0.643  0.00  0.00    +0.086 C 
ATOM     13  C   UNL     1      -9.922 -11.758   1.814  0.00  0.00    -0.059 C 
ATOM     14  N   UNL     1     -11.354 -11.943   1.547  0.00  0.00    +0.384 N 
ATOM     15  C   UNL     1     -12.026 -10.638   1.497  0.00  0.00    -0.059 C 
ATOM     16  C   UNL     1     -11.487  -9.831   0.316  0.00  0.00    +0.086 C 
ATOM     17  H   UNL     1     -11.472 -12.415   0.663  0.00  0.00    -0.081 HD
BRANCH  14  18
ATOM     18  C   UNL     1     -11.948 -12.757   2.616  0.00  0.00    -0.068 C 
ATOM     19  C   UNL     1     -11.257 -14.121   2.662  0.00  0.00    -0.015 C 
ATOM     20  C   UNL     1     -11.876 -14.969   3.775  0.00  0.00    -0.002 C 
ATOM     21  C   UNL     1     -13.369 -15.162   3.499  0.00  0.00    -0.000 C 
ATOM     22  C   UNL     1     -14.060 -13.798   3.452  0.00  0.00    -0.002 C 
ATOM     23  C   UNL     1     -13.441 -12.950   2.339  0.00  0.00    -0.015 C 
ENDBRANCH  14  18
ENDBRANCH   8  11
ENDBRANCH   3   5
BRANCH   1  24
ATOM     24  C   UNL     1      -7.112  -2.485   0.632  0.00  0.00    +0.175 C 
BRANCH  24  25
ATOM     25  S   UNL     1      -8.059  -1.211   1.511  0.00  0.00    -0.056 S 
BRANCH  25  29
ATOM     26  C   UNL     1      -6.275   2.233   1.604  0.00  0.00    +0.249 A 
ATOM     27  N   UNL     1      -5.417   1.504   0.933  0.00  0.00    -0.106 NA
ATOM     28  N   UNL     1      -5.873   0.307   0.815  0.00  0.00    -0.101 NA
ATOM     29  C   UNL     1      -7.042   0.224   1.406  0.00  0.00    +0.278 A 
ATOM     30  O   UNL     1      -7.320   1.437   1.922  0.00  0.00    -0.411 OA
BRANCH  26  36
ATOM     31  C   UNL     1      -4.986   4.364   1.556  0.00  0.00    +0.015 A 
ATOM     32  C   UNL     1      -4.853   5.697   1.885  0.00  0.00    +0.033 A 
ATOM     33  C   UNL     1      -5.845   6.337   2.606  0.00  0.00    +0.126 A 
ATOM     34  C   UNL     1      -6.976   5.646   3.003  0.00  0.00    +0.033 A 
ATOM     35  C   UNL     1      -7.122   4.313   2.680  0.00  0.00    +0.015 A 
ATOM     36  C   UNL     1      -6.125   3.661   1.953  0.00  0.00    +0.039 A 
BRANCH  33  37
ATOM     37  N   UNL     1      -5.695   7.768   2.956  0.00  0.00    +0.056 N 
ATOM     38  O   UNL     1      -4.707   8.374   2.611  0.00  0.00    -0.126 OA
ATOM     39  O   UNL     1      -6.560   8.330   3.586  0.00  0.00    -0.126 OA
ENDBRANCH  33  37
ENDBRANCH  26  36
ENDBRANCH  25  29
ENDBRANCH  24  25
ENDBRANCH   1  24
TORSDOF 8
