REMARK  Name = ZINC58551899
REMARK  7 active torsions:
REMARK  status: ('A' for Active; 'I' for Inactive)
REMARK    1  A    between atoms: C_1  and  C_2
REMARK    2  A    between atoms: C_2  and  C_3
REMARK    3  A    between atoms: C_2  and  C_4
REMARK    4  A    between atoms: C_4  and  C_5
REMARK    5  A    between atoms: C_5  and  C_7
REMARK    6  A    between atoms: C_5  and  N_17
REMARK    7  A    between atoms: C_18  and  C_20
REMARK                            x       y       z     vdW  Elec       q    Type
REMARK                         _______ _______ _______ _____ _____    ______ ____
ROOT
ATOM      1  N   UNL     1      -1.329  -0.822   2.500  0.00  0.00    -0.301 N 
ATOM      2  C   UNL     1      -2.382  -0.298   1.842  0.00  0.00    +0.250 C 
ATOM      3  O   UNL     1      -2.289   0.797   1.320  0.00  0.00    -0.270 OA
ATOM      4  H   UNL     1      -1.426  -1.658   2.983  0.00  0.00    +0.150 HD
ENDROOT
BRANCH   2   5
ATOM      5  C   UNL     1      -3.645  -1.051   1.755  0.00  0.00    +0.101 A 
ATOM      6  C   UNL     1      -4.695  -0.570   0.994  0.00  0.00    +0.028 A 
ATOM      7  C   UNL     1      -5.896  -1.316   0.930  0.00  0.00    -0.001 A 
ATOM      8  C   UNL     1      -6.977  -0.853   0.164  0.00  0.00    +0.010 A 
ATOM      9  C   UNL     1      -8.131  -1.579   0.108  0.00  0.00    +0.001 A 
ATOM     10  C   UNL     1      -8.247  -2.776   0.804  0.00  0.00    +0.002 A 
ATOM     11  C   UNL     1      -7.200  -3.251   1.562  0.00  0.00    +0.026 A 
ATOM     12  C   UNL     1      -6.011  -2.530   1.635  0.00  0.00    +0.049 A 
ATOM     13  N   UNL     1      -4.960  -3.003   2.393  0.00  0.00    -0.321 N 
ATOM     14  H   UNL     1      -5.056  -3.841   2.872  0.00  0.00    +0.169 HD
ATOM     15  C   UNL     1      -3.802  -2.322   2.470  0.00  0.00    +0.261 A 
ATOM     16  O   UNL     1      -2.884  -2.759   3.140  0.00  0.00    -0.267 OA
ENDBRANCH   2   5
BRANCH   1  17
ATOM     17  C   UNL     1      -0.038  -0.130   2.486  0.00  0.00    +0.139 C 
BRANCH  17  18
ATOM     18  C   UNL     1       0.754  -0.519   3.707  0.00  0.00    +0.129 A 
ATOM     19  N   UNL     1       1.104   0.330   4.712  0.00  0.00    -0.340 N 
ATOM     20  H   UNL     1       0.891   1.274   4.767  0.00  0.00    +0.167 HD
ATOM     21  C   UNL     1       1.818  -0.404   5.638  0.00  0.00    +0.066 A 
ATOM     22  C   UNL     1       2.426  -0.102   6.849  0.00  0.00    +0.028 A 
ATOM     23  C   UNL     1       3.079  -1.092   7.551  0.00  0.00    +0.002 A 
ATOM     24  C   UNL     1       3.132  -2.387   7.056  0.00  0.00    +0.002 A 
ATOM     25  C   UNL     1       2.540  -2.703   5.866  0.00  0.00    +0.030 A 
ATOM     26  C   UNL     1       1.872  -1.715   5.137  0.00  0.00    +0.089 A 
ATOM     27  N   UNL     1       1.198  -1.716   3.958  0.00  0.00    -0.231 NA
ENDBRANCH  17  18
BRANCH  17  28
ATOM     28  C   UNL     1       0.738  -0.525   1.228  0.00  0.00    +0.033 C 
BRANCH  28  30
ATOM     29  C   UNL     1      -0.021   1.510  -0.007  0.00  0.00    +0.007 C 
ATOM     30  C   UNL     1      -0.005  -0.020  -0.010  0.00  0.00    -0.015 C 
ATOM     31  C   UNL     1       0.703  -0.520  -1.270  0.00  0.00    +0.007 C 
ENDBRANCH  28  30
ENDBRANCH  17  28
ENDBRANCH   1  17
TORSDOF 5
