REMARK  Name = ZINC38736223
REMARK  7 active torsions:
REMARK  status: ('A' for Active; 'I' for Inactive)
REMARK    1  A    between atoms: C_1  and  C_2
REMARK    2  A    between atoms: C_3  and  C_14
REMARK    3  A    between atoms: C_5  and  C_7
REMARK    4  A    between atoms: C_14  and  C_15
REMARK    5  A    between atoms: C_15  and  N_16
REMARK    6  A    between atoms: C_17  and  C_19
REMARK    7  A    between atoms: C_22  and  N_26
REMARK                            x       y       z     vdW  Elec       q    Type
REMARK                         _______ _______ _______ _____ _____    ______ ____
ROOT
ATOM      1  C   UNL     1       1.428   0.050  -3.074  0.00  0.00    +0.109 C 
ENDROOT
BRANCH   1   2
ATOM      2  N   UNL     1       1.413   0.565  -4.446  0.00  0.00    -0.311 N 
ATOM      3  C   UNL     1       2.574   0.818  -5.083  0.00  0.00    +0.245 C 
ATOM      4  O   UNL     1       3.632   0.619  -4.520  0.00  0.00    -0.270 OA
ATOM      5  H   UNL     1       0.569   0.723  -4.896  0.00  0.00    +0.149 HD
BRANCH   3   6
ATOM      6  C   UNL     1       2.559   1.337  -6.466  0.00  0.00    +0.055 A 
ATOM      7  C   UNL     1       1.345   1.572  -7.115  0.00  0.00    +0.017 A 
ATOM      8  C   UNL     1       1.339   2.057  -8.406  0.00  0.00    +0.033 A 
ATOM      9  C   UNL     1       2.532   2.310  -9.060  0.00  0.00    +0.128 A 
ATOM     10  C   UNL     1       3.738   2.080  -8.425  0.00  0.00    +0.053 A 
ATOM     11  C   UNL     1       3.760   1.600  -7.130  0.00  0.00    +0.055 A 
ATOM     12 CL   UNL     1       5.276   1.318  -6.332  0.00  0.00    -0.083 Cl
BRANCH   9  13
ATOM     13  N   UNL     1       2.516   2.830 -10.445  0.00  0.00    +0.056 N 
ATOM     14  O   UNL     1       1.462   3.033 -11.003  0.00  0.00    -0.126 OA
ATOM     15  O   UNL     1       3.556   3.053 -11.020  0.00  0.00    -0.126 OA
ENDBRANCH   9  13
ENDBRANCH   3   6
ENDBRANCH   1   2
BRANCH   1  16
ATOM     16  C   UNL     1      -0.010  -0.149  -2.589  0.00  0.00    +0.063 C 
BRANCH  16  19
ATOM     17  C   UNL     1      -0.018   1.503   0.010  0.00  0.00    +0.066 C 
ATOM     18  C   UNL     1       0.002  -0.004   0.002  0.00  0.00    +0.049 A 
ATOM     19  C   UNL     1       0.005  -0.679  -1.179  0.00  0.00    +0.014 A 
ATOM     20  S   UNL     1       0.031  -2.368  -0.593  0.00  0.00    -0.072 S 
ATOM     21  C   UNL     1       0.035  -1.993   1.155  0.00  0.00    +0.109 A 
ATOM     22  N   UNL     1       0.022  -0.667   1.134  0.00  0.00    -0.244 NA
BRANCH  21  23
ATOM     23  C   UNL     1       0.053  -2.913   2.313  0.00  0.00    +0.010 A 
ATOM     24  C   UNL     1       0.075  -4.293   2.110  0.00  0.00    +0.011 A 
ATOM     25  C   UNL     1       0.092  -5.148   3.193  0.00  0.00    +0.003 A 
ATOM     26  C   UNL     1       0.086  -4.639   4.480  0.00  0.00    +0.038 A 
ATOM     27  C   UNL     1       0.063  -3.270   4.689  0.00  0.00    +0.124 A 
ATOM     28  C   UNL     1       0.052  -2.404   3.612  0.00  0.00    +0.049 A 
ATOM     29  F   UNL     1       0.057  -2.780   5.948  0.00  0.00    -0.205 F 
ENDBRANCH  21  23
ENDBRANCH  16  19
ENDBRANCH   1  16
TORSDOF 6
