REMARK  Name = ZINC13271243
REMARK  10 active torsions:
REMARK  status: ('A' for Active; 'I' for Inactive)
REMARK    1  A    between atoms: C_1  and  C_2
REMARK    2  A    between atoms: C_12  and  C_14
REMARK    3  A    between atoms: C_14  and  S_15
REMARK    4  A    between atoms: S_15  and  C_16
REMARK    5  A    between atoms: C_19  and  C_28
REMARK    6  A    between atoms: N_20  and  C_21
REMARK    7  A    between atoms: C_21  and  C_23
REMARK    8  A    between atoms: C_21  and  C_26
REMARK    9  A    between atoms: C_23  and  C_24
REMARK   10  A    between atoms: C_23  and  C_25
REMARK                            x       y       z     vdW  Elec       q    Type
REMARK                         _______ _______ _______ _____ _____    ______ ____
ROOT
ATOM      1  C   UNL     1      -0.921   2.856   1.583  0.00  0.00    +0.193 A 
ATOM      2  N   UNL     1      -1.567   2.830   2.726  0.00  0.00    -0.122 NA
ATOM      3  N   UNL     1      -1.763   1.616   3.097  0.00  0.00    -0.128 NA
ATOM      4  C   UNL     1      -1.259   0.788   2.208  0.00  0.00    +0.172 A 
ATOM      5  N   UNL     1      -0.698   1.558   1.213  0.00  0.00    -0.287 N 
ENDROOT
BRANCH   4   6
ATOM      6  C   UNL     1      -1.285  -0.682   2.267  0.00  0.00    +0.056 A 
ATOM      7  C   UNL     1      -1.568  -1.500   3.332  0.00  0.00    +0.019 A 
ATOM      8  C   UNL     1      -1.530  -2.864   3.146  0.00  0.00    +0.008 A 
ATOM      9  C   UNL     1      -1.216  -3.356   1.920  0.00  0.00    +0.046 A 
ATOM     10  S   UNL     1      -0.965  -1.866   0.970  0.00  0.00    -0.094 S 
ENDBRANCH   4   6
BRANCH   1  11
ATOM     11  S   UNL     1      -0.434   4.295   0.690  0.00  0.00    -0.077 S 
BRANCH  11  12
ATOM     12  C   UNL     1      -1.070   5.580   1.794  0.00  0.00    +0.173 C 
BRANCH  12  23
ATOM     13  C   UNL     1      -1.572   9.662   0.064  0.00  0.00    +0.029 C 
ATOM     14  C   UNL     1      -0.892   9.421   1.414  0.00  0.00    +0.083 C 
ATOM     15  C   UNL     1      -1.515  10.325   2.490  0.00  0.00    +0.059 C 
ATOM     16  C   UNL     1      -2.080   9.365   3.513  0.00  0.00    -0.024 A 
ATOM     17  C   UNL     1      -2.751   9.596   4.699  0.00  0.00    +0.005 A 
ATOM     18  C   UNL     1      -3.175   8.533   5.474  0.00  0.00    +0.000 A 
ATOM     19  C   UNL     1      -2.928   7.237   5.060  0.00  0.00    +0.002 A 
ATOM     20  C   UNL     1      -2.261   7.002   3.877  0.00  0.00    +0.024 A 
ATOM     21  C   UNL     1      -1.828   8.070   3.089  0.00  0.00    +0.040 A 
ATOM     22  N   UNL     1      -1.141   8.051   1.871  0.00  0.00    -0.267 N 
ATOM     23  C   UNL     1      -0.760   6.937   1.216  0.00  0.00    +0.230 C 
ATOM     24  O   UNL     1      -0.167   7.026   0.162  0.00  0.00    -0.274 OA
ENDBRANCH  12  23
ENDBRANCH  11  12
ENDBRANCH   1  11
BRANCH   5  25
ATOM     25  C   UNL     1      -0.013   1.086   0.008  0.00  0.00    +0.206 C 
BRANCH  25  26
ATOM     26  C   UNL     1       1.423   1.615  -0.003  0.00  0.00    +0.017 C 
ATOM     27  C   UNL     1       2.163   1.109   1.237  0.00  0.00    +0.010 C 
ATOM     28  C   UNL     1       2.139   1.122  -1.262  0.00  0.00    +0.010 C 
ENDBRANCH  25  26
BRANCH  25  29
ATOM     29  C   UNL     1      -0.742   1.585  -1.213  0.00  0.00    +0.379 C 
ATOM     30  O   UNL     1      -0.172   2.292  -2.010  0.00  0.00    -0.244 OA
ATOM     31  O   UNL     1      -2.024   1.244  -1.415  0.00  0.00    -0.244 OA
ENDBRANCH  25  29
ENDBRANCH   5  25
TORSDOF 7
