REMARK  Name = ZINC06143605
REMARK  9 active torsions:
REMARK  status: ('A' for Active; 'I' for Inactive)
REMARK    1  A    between atoms: C_1  and  C_2
REMARK    2  A    between atoms: C_3  and  C_13
REMARK    3  A    between atoms: C_5  and  C_7
REMARK    4  A    between atoms: C_13  and  C_15
REMARK    5  A    between atoms: C_16  and  O_34
REMARK    6  A    between atoms: N_19  and  C_27
REMARK    7  A    between atoms: C_20  and  C_22
REMARK    8  A    between atoms: C_27  and  C_28
REMARK    9  A    between atoms: C_28  and  N_59
REMARK                            x       y       z     vdW  Elec       q    Type
REMARK                         _______ _______ _______ _____ _____    ______ ____
ROOT
ATOM      1  C   UNL     1       0.101   0.234  -0.131  0.00  0.00    +0.072 C 
ATOM      2  C   UNL     1       0.324   1.541   0.136  0.00  0.00    +0.188 C 
ATOM      3  C   UNL     1       1.780   1.784   0.188  0.00  0.00    +0.282 C 
ATOM      4  O   UNL     1       2.299   2.861   0.409  0.00  0.00    -0.267 OA
ATOM      5  N   UNL     1       2.446   0.639  -0.045  0.00  0.00    -0.285 N 
ATOM      6  C   UNL     1       1.456  -0.422  -0.263  0.00  0.00    +0.151 C 
ENDROOT
BRANCH   6   7
ATOM      7  C   UNL     1       1.616  -1.007  -1.643  0.00  0.00    +0.015 A 
ATOM      8  C   UNL     1       1.627  -2.308  -2.022  0.00  0.00    +0.013 A 
ATOM      9  C   UNL     1       1.787  -2.614  -3.361  0.00  0.00    +0.008 A 
ATOM     10  C   UNL     1       1.937  -1.605  -4.253  0.00  0.00    +0.045 A 
ATOM     11  S   UNL     1       1.848  -0.166  -3.201  0.00  0.00    -0.099 S 
ENDBRANCH   6   7
BRANCH   1  12
ATOM     12  C   UNL     1      -1.206  -0.421  -0.266  0.00  0.00    +0.203 C 
ATOM     13  O   UNL     1      -1.946  -0.119  -1.186  0.00  0.00    -0.286 OA
BRANCH  12  16
ATOM     14  C   UNL     1      -3.780  -2.167  -0.384  0.00  0.00    +0.067 C 
ATOM     15  C   UNL     1      -2.751  -2.250   0.714  0.00  0.00    +0.057 A 
ATOM     16  C   UNL     1      -1.620  -1.437   0.704  0.00  0.00    +0.082 A 
ATOM     17  S   UNL     1      -0.818  -1.973   2.209  0.00  0.00    -0.064 S 
ATOM     18  C   UNL     1      -1.990  -3.164   2.679  0.00  0.00    +0.109 A 
ATOM     19  N   UNL     1      -2.887  -3.088   1.704  0.00  0.00    -0.244 NA
BRANCH  18  20
ATOM     20  C   UNL     1      -1.990  -4.042   3.867  0.00  0.00    +0.007 A 
ATOM     21  C   UNL     1      -0.942  -3.977   4.788  0.00  0.00    +0.010 A 
ATOM     22  C   UNL     1      -0.951  -4.795   5.898  0.00  0.00    +0.001 A 
ATOM     23  C   UNL     1      -1.989  -5.689   6.094  0.00  0.00    +0.000 A 
ATOM     24  C   UNL     1      -3.028  -5.763   5.184  0.00  0.00    +0.001 A 
ATOM     25  C   UNL     1      -3.035  -4.946   4.072  0.00  0.00    +0.010 A 
ENDBRANCH  18  20
ENDBRANCH  12  16
ENDBRANCH   1  12
BRANCH   2  26
ATOM     26  O   UNL     1      -0.635   2.479   0.321  0.00  0.00    -0.502 OA
ATOM     27  H   UNL     1      -0.205   3.363   0.504  0.00  0.00    +0.292 HD
ENDBRANCH   2  26
BRANCH   5  28
ATOM     28  C   UNL     1       3.902   0.479  -0.076  0.00  0.00    +0.090 C 
BRANCH  28  29
ATOM     29  C   UNL     1       4.411   0.713  -1.500  0.00  0.00    -0.059 C 
BRANCH  29  35
ATOM     30  C   UNL     1       6.533   1.609  -0.752  0.00  0.00    -0.050 C 
ATOM     31  C   UNL     1       8.045   1.370  -0.761  0.00  0.00    +0.141 C 
ATOM     32  O   UNL     1       8.507   1.324  -2.114  0.00  0.00    -0.383 OA
ATOM     33  C   UNL     1       7.883   0.305  -2.901  0.00  0.00    +0.141 C 
ATOM     34  C   UNL     1       6.370   0.533  -2.913  0.00  0.00    -0.050 C 
ATOM     35  N   UNL     1       5.878   0.529  -1.520  0.00  0.00    +0.384 N 
ATOM     36  H   UNL     1       6.107  -0.374  -1.088  0.00  0.00    -0.082 HD
ENDBRANCH  29  35
ENDBRANCH  28  29
ENDBRANCH   5  28
TORSDOF 8
