REMARK  Name = ZINC09212322
REMARK  4 active torsions:
REMARK  status: ('A' for Active; 'I' for Inactive)
REMARK    1  A    between atoms: C_1  and  C_2
REMARK    2  A    between atoms: C_10  and  O_26
REMARK    3  A    between atoms: C_20  and  O_25
REMARK    4  A    between atoms: C_22  and  O_24
REMARK                            x       y       z     vdW  Elec       q    Type
REMARK                         _______ _______ _______ _____ _____    ______ ____
ROOT
ATOM      1  C   UNL     1       4.706   0.093  -2.410  0.00  0.00    +0.014 C 
ATOM      2  C   UNL     1       3.455   0.912  -2.734  0.00  0.00    -0.000 C 
ATOM      3  C   UNL     1       2.203   0.129  -2.382  0.00  0.00    +0.010 C 
ATOM      4  C   UNL     1       2.306  -0.246  -0.895  0.00  0.00    +0.009 C 
ATOM      5  C   UNL     1       2.464   0.986  -0.013  0.00  0.00    +0.023 C 
ATOM      6  C   UNL     1       1.185   1.780   0.000  0.00  0.00    -0.041 A 
ATOM      7  C   UNL     1      -0.013   1.076   0.008  0.00  0.00    +0.008 A 
ATOM      8  C   UNL     1      -1.219   1.742   0.017  0.00  0.00    +0.046 A 
ATOM      9  C   UNL     1      -1.239   3.129   0.032  0.00  0.00    +0.117 A 
ATOM     10  C   UNL     1      -0.046   3.831   0.025  0.00  0.00    +0.049 A 
ATOM     11  C   UNL     1       1.168   3.158   0.008  0.00  0.00    -0.040 A 
ATOM     12  C   UNL     1       2.427   3.984  -0.035  0.00  0.00    +0.036 C 
ATOM     13  C   UNL     1       3.633   3.141   0.372  0.00  0.00    +0.009 C 
ATOM     14  C   UNL     1       3.635   1.861  -0.473  0.00  0.00    +0.001 C 
ATOM     15  C   UNL     1       3.411   2.228  -1.912  0.00  0.00    +0.004 C 
ATOM     16  C   UNL     1       4.479   3.093  -2.574  0.00  0.00    +0.038 C 
ATOM     17  C   UNL     1       4.517   2.633  -4.053  0.00  0.00    +0.144 C 
ATOM     18  C   UNL     1       3.521   1.447  -4.169  0.00  0.00    +0.149 C 
ENDROOT
BRANCH  18  19
ATOM     19  O   UNL     1       2.237   1.905  -4.598  0.00  0.00    -0.389 OA
ATOM     20  H   UNL     1       2.225   2.253  -5.500  0.00  0.00    +0.210 HD
ENDBRANCH  18  19
BRANCH  17  21
ATOM     21  O   UNL     1       4.109   3.701  -4.911  0.00  0.00    -0.389 OA
ATOM     22  H   UNL     1       4.692   4.473  -4.883  0.00  0.00    +0.210 HD
ENDBRANCH  17  21
BRANCH   9  23
ATOM     23  O   UNL     1      -2.424   3.795   0.048  0.00  0.00    -0.507 OA
ATOM     24  H   UNL     1      -2.775   3.994  -0.831  0.00  0.00    +0.292 HD
ENDBRANCH   9  23
TORSDOF 3
