REMARK  Name = ZINC06601583
REMARK  15 active torsions:
REMARK  status: ('A' for Active; 'I' for Inactive)
REMARK    1  A    between atoms: C_1  and  C_2
REMARK    2  A    between atoms: C_2  and  O_3
REMARK    3  A    between atoms: O_3  and  C_4
REMARK    4  A    between atoms: C_7  and  C_10
REMARK    5  A    between atoms: C_10  and  C_12
REMARK    6  A    between atoms: C_10  and  N_21
REMARK    7  A    between atoms: N_14  and  C_15
REMARK    8  A    between atoms: N_21  and  C_37
REMARK    9  A    between atoms: C_22  and  C_24
REMARK   10  A    between atoms: C_24  and  N_25
REMARK   11  A    between atoms: C_27  and  C_30
REMARK   12  A    between atoms: C_33  and  C_36
REMARK   13  A    between atoms: C_37  and  C_38
REMARK   14  A    between atoms: C_37  and  C_39
REMARK   15  A    between atoms: C_37  and  C_40
REMARK                            x       y       z     vdW  Elec       q    Type
REMARK                         _______ _______ _______ _____ _____    ______ ____
ROOT
ATOM      1  C   UNL     1       2.174   0.826  -0.480  0.00  0.00    +0.193 C 
ENDROOT
BRANCH   1   5
ATOM      2  C   UNL     1      -1.774   0.264  -2.016  0.00  0.00    +0.121 A 
ATOM      3  C   UNL     1      -1.022  -0.831  -1.614  0.00  0.00    +0.046 A 
ATOM      4  C   UNL     1       0.251  -0.646  -1.113  0.00  0.00    +0.009 A 
ATOM      5  C   UNL     1       0.781   0.628  -1.022  0.00  0.00    -0.018 A 
ATOM      6  C   UNL     1       0.036   1.720  -1.427  0.00  0.00    +0.009 A 
ATOM      7  C   UNL     1      -1.240   1.540  -1.923  0.00  0.00    +0.046 A 
BRANCH   2   8
ATOM      8  O   UNL     1      -3.030   0.084  -2.505  0.00  0.00    -0.492 OA
BRANCH   8  10
ATOM      9  C   UNL     1      -4.934  -1.260  -3.143  0.00  0.00    +0.048 C 
ATOM     10  C   UNL     1      -3.515  -1.258  -2.571  0.00  0.00    +0.225 C 
ENDBRANCH   8  10
ENDBRANCH   2   8
ENDBRANCH   1   5
BRANCH   1  11
ATOM     11  C   UNL     1       2.119   0.926   1.022  0.00  0.00    +0.238 C 
ATOM     12  O   UNL     1       2.675   1.843   1.590  0.00  0.00    -0.273 OA
ATOM     13  N   UNL     1       1.451  -0.002   1.736  0.00  0.00    -0.311 N 
ATOM     14  H   UNL     1       1.006  -0.735   1.282  0.00  0.00    +0.149 HD
BRANCH  13  15
ATOM     15  C   UNL     1       1.398   0.096   3.196  0.00  0.00    +0.073 C 
ATOM     16  C   UNL     1       2.646  -0.553   3.797  0.00  0.00    +0.022 C 
ATOM     17  C   UNL     1       2.591  -0.451   5.322  0.00  0.00    +0.002 C 
ATOM     18  C   UNL     1       1.343  -1.173   5.837  0.00  0.00    +0.000 C 
ATOM     19  C   UNL     1       0.095  -0.525   5.236  0.00  0.00    +0.002 C 
ATOM     20  C   UNL     1       0.150  -0.626   3.710  0.00  0.00    +0.022 C 
ENDBRANCH  13  15
ENDBRANCH   1  11
BRANCH   1  21
ATOM     21  N   UNL     1       2.741   2.059  -1.032  0.00  0.00    -0.279 N 
ATOM     22  C   UNL     1       2.238   3.255  -0.665  0.00  0.00    +0.240 C 
ATOM     23  O   UNL     1       1.399   3.318   0.208  0.00  0.00    -0.273 OA
BRANCH  21  24
ATOM     24  C   UNL     1       3.855   1.993  -1.981  0.00  0.00    +0.030 C 
ATOM     25  C   UNL     1       4.118   0.533  -2.357  0.00  0.00    +0.031 C 
ATOM     26  C   UNL     1       3.500   2.788  -3.240  0.00  0.00    +0.031 C 
ATOM     27  C   UNL     1       5.109   2.588  -1.339  0.00  0.00    +0.031 C 
ENDBRANCH  21  24
BRANCH  22  28
ATOM     28  C   UNL     1       2.718   4.513  -1.341  0.00  0.00    +0.264 C 
BRANCH  28  29
ATOM     29  N   UNL     1       2.157   5.680  -0.656  0.00  0.00    -0.154 N 
ATOM     30  N   UNL     1       1.040   6.252  -0.951  0.00  0.00    -0.130 NA
ATOM     31  C   UNL     1       0.870   7.260  -0.119  0.00  0.00    +0.205 A 
ATOM     32  N   UNL     1       1.941   7.276   0.687  0.00  0.00    -0.108 NA
ATOM     33  N   UNL     1       2.704   6.300   0.331  0.00  0.00    -0.045 NA
BRANCH  31  34
ATOM     34  C   UNL     1      -0.280   8.198  -0.086  0.00  0.00    +0.023 A 
ATOM     35  C   UNL     1      -1.323   8.058  -0.998  0.00  0.00    +0.012 A 
ATOM     36  C   UNL     1      -2.393   8.929  -0.959  0.00  0.00    +0.004 A 
ATOM     37  C   UNL     1      -2.424   9.948  -0.023  0.00  0.00    -0.050 A 
ATOM     38  C   UNL     1      -1.388  10.095   0.881  0.00  0.00    +0.004 A 
ATOM     39  C   UNL     1      -0.317   9.225   0.855  0.00  0.00    +0.012 A 
ATOM     40  C   UNL     1      -3.591  10.900   0.010  0.00  0.00    +0.044 C 
ENDBRANCH  31  34
ENDBRANCH  28  29
ENDBRANCH  22  28
ENDBRANCH   1  21
TORSDOF 10
