REMARK  Name = ZINC38780504
REMARK  9 active torsions:
REMARK  status: ('A' for Active; 'I' for Inactive)
REMARK    1  A    between atoms: C_1  and  C_2
REMARK    2  A    between atoms: C_2  and  C_4
REMARK    3  A    between atoms: C_2  and  N_13
REMARK    4  A    between atoms: C_7  and  C_10
REMARK    5  A    between atoms: C_10  and  C_11
REMARK    6  A    between atoms: C_10  and  C_12
REMARK    7  A    between atoms: N_13  and  C_14
REMARK    8  A    between atoms: C_14  and  C_15
REMARK    9  A    between atoms: N_17  and  N_18
REMARK                            x       y       z     vdW  Elec       q    Type
REMARK                         _______ _______ _______ _____ _____    ______ ____
ROOT
ATOM      1  C   UNL     1       0.504  -1.036  -3.564  0.00  0.00    +0.244 C 
ATOM      2  O   UNL     1       1.685  -1.300  -3.491  0.00  0.00    -0.273 OA
ATOM      3  N   UNL     1      -0.147  -1.179  -4.736  0.00  0.00    -0.223 N 
ATOM      4  H   UNL     1      -1.092  -0.967  -4.794  0.00  0.00    +0.174 HD
ENDROOT
BRANCH   3   5
ATOM      5  N   UNL     1       0.540  -1.633  -5.869  0.00  0.00    -0.137 N 
ATOM      6  C   UNL     1       0.918  -0.842  -6.894  0.00  0.00    +0.263 C 
ATOM      7  O   UNL     1       0.734   0.351  -7.007  0.00  0.00    -0.271 OA
ATOM      8  C   UNL     1       1.618  -1.757  -7.873  0.00  0.00    +0.114 C 
ATOM      9  C   UNL     1       3.068  -1.325  -8.060  0.00  0.00    +0.035 C 
ATOM     10  C   UNL     1       3.767  -2.281  -9.030  0.00  0.00    +0.003 C 
ATOM     11  C   UNL     1       3.036  -2.267 -10.373  0.00  0.00    +0.000 C 
ATOM     12  C   UNL     1       1.590  -2.725 -10.173  0.00  0.00    +0.003 C 
ATOM     13  C   UNL     1       0.882  -1.770  -9.208  0.00  0.00    +0.035 C 
ATOM     14  N   UNL     1       1.553  -3.078  -7.235  0.00  0.00    -0.284 N 
ATOM     15  C   UNL     1       0.909  -2.905  -6.065  0.00  0.00    +0.326 C 
ATOM     16  O   UNL     1       0.684  -3.803  -5.278  0.00  0.00    -0.251 OA
ATOM     17  H   UNL     1       1.907  -3.910  -7.586  0.00  0.00    +0.151 HD
ENDBRANCH   3   5
BRANCH   1  18
ATOM     18  C   UNL     1      -0.235  -0.547  -2.346  0.00  0.00    +0.179 C 
BRANCH  18  19
ATOM     19  N   UNL     1       0.690  -0.478  -1.207  0.00  0.00    -0.302 NA
ATOM     20  H   UNL     1       1.485   0.104  -1.422  0.00  0.00    +0.123 HD
BRANCH  19  22
ATOM     21  C   UNL     1      -0.019   1.526   0.010  0.00  0.00    +0.029 C 
ATOM     22  C   UNL     1       0.002  -0.004   0.002  0.00  0.00    +0.081 C 
BRANCH  22  23
ATOM     23  C   UNL     1       0.731  -0.503   1.223  0.00  0.00    -0.031 A 
ATOM     24  C   UNL     1       2.113  -0.514   1.247  0.00  0.00    +0.005 A 
ATOM     25  C   UNL     1       2.782  -0.972   2.366  0.00  0.00    +0.004 A 
ATOM     26  C   UNL     1       2.068  -1.419   3.463  0.00  0.00    -0.045 A 
ATOM     27  C   UNL     1       0.686  -1.407   3.439  0.00  0.00    +0.004 A 
ATOM     28  C   UNL     1       0.017  -0.945   2.321  0.00  0.00    +0.005 A 
BRANCH  26  29
ATOM     29  C   UNL     1       2.797  -1.919   4.683  0.00  0.00    +0.013 C 
ATOM     30  C   UNL     1       2.414  -1.063   5.892  0.00  0.00    +0.012 C 
ATOM     31  C   UNL     1       2.410  -3.376   4.947  0.00  0.00    +0.012 C 
ENDBRANCH  26  29
ENDBRANCH  22  23
ENDBRANCH  19  22
ENDBRANCH  18  19
ENDBRANCH   1  18
TORSDOF 6
