REMARK  Name = ZINC34749313
REMARK  11 active torsions:
REMARK  status: ('A' for Active; 'I' for Inactive)
REMARK    1  A    between atoms: C_1  and  C_2
REMARK    2  A    between atoms: C_2  and  C_3
REMARK    3  A    between atoms: C_4  and  C_35
REMARK    4  A    between atoms: N_10  and  C_27
REMARK    5  A    between atoms: N_16  and  C_19
REMARK    6  A    between atoms: C_19  and  C_20
REMARK    7  A    between atoms: N_22  and  C_23
REMARK    8  A    between atoms: N_22  and  C_25
REMARK    9  A    between atoms: C_23  and  C_24
REMARK   10  A    between atoms: C_25  and  C_26
REMARK   11  A    between atoms: C_27  and  C_28
REMARK                            x       y       z     vdW  Elec       q    Type
REMARK                         _______ _______ _______ _____ _____    ______ ____
ROOT
ATOM      1  C   UNL     1       0.680  -0.754  -1.032  0.00  0.00    -0.023 A 
ATOM      2  C   UNL     1       0.193  -1.425   0.022  0.00  0.00    -0.007 A 
ATOM      3  S   UNL     1       1.639  -2.185   0.734  0.00  0.00    -0.073 S 
ATOM      4  C   UNL     1       2.858  -1.580  -0.405  0.00  0.00    +0.117 A 
ATOM      5  C   UNL     1       2.105  -0.809  -1.311  0.00  0.00    +0.076 A 
ATOM      6  C   UNL     1       2.846  -0.189  -2.366  0.00  0.00    +0.264 A 
ATOM      7  O   UNL     1       2.279   0.502  -3.195  0.00  0.00    -0.267 OA
ATOM      8  N   UNL     1       4.177  -0.378  -2.431  0.00  0.00    -0.276 N 
ATOM      9  C   UNL     1       4.827  -1.148  -1.512  0.00  0.00    +0.202 A 
ATOM     10  N   UNL     1       4.173  -1.722  -0.524  0.00  0.00    -0.208 NA
ATOM     11  N   UNL     1       6.186  -1.317  -1.612  0.00  0.00    -0.304 N 
ATOM     12  C   UNL     1       7.062  -1.109  -0.449  0.00  0.00    +0.089 C 
ATOM     13  C   UNL     1       7.975  -2.331  -0.303  0.00  0.00    -0.059 C 
ATOM     14  N   UNL     1       8.688  -2.562  -1.565  0.00  0.00    +0.387 N 
ATOM     15  C   UNL     1       7.732  -2.907  -2.625  0.00  0.00    -0.059 C 
ATOM     16  C   UNL     1       6.806  -1.719  -2.884  0.00  0.00    +0.089 C 
ATOM     17  C   UNL     1      -1.236  -1.514   0.492  0.00  0.00    +0.052 C 
ATOM     18  H   UNL     1       9.188  -1.724  -1.825  0.00  0.00    -0.081 HD
ENDROOT
BRANCH   1  20
ATOM     19  C   UNL     1      -0.758  -0.852  -3.050  0.00  0.00    +0.009 C 
ATOM     20  C   UNL     1      -0.240   0.042  -1.921  0.00  0.00    +0.033 C 
ENDBRANCH   1  20
BRANCH  14  21
ATOM     21  C   UNL     1       9.643  -3.664  -1.392  0.00  0.00    +0.019 C 
BRANCH  21  22
ATOM     22  C   UNL     1      10.462  -3.822  -2.647  0.00  0.00    +0.199 C 
ATOM     23  O   UNL     1      10.269  -3.088  -3.593  0.00  0.00    -0.278 OA
ATOM     24  N   UNL     1      11.409  -4.778  -2.718  0.00  0.00    -0.304 N 
BRANCH  24  25
ATOM     25  C   UNL     1      11.642  -5.665  -1.576  0.00  0.00    +0.104 C 
ATOM     26  C   UNL     1      10.748  -6.900  -1.698  0.00  0.00    +0.024 C 
ENDBRANCH  24  25
BRANCH  24  27
ATOM     27  C   UNL     1      12.205  -4.931  -3.939  0.00  0.00    +0.104 C 
ATOM     28  C   UNL     1      13.458  -4.058  -3.843  0.00  0.00    +0.024 C 
ENDBRANCH  24  27
ENDBRANCH  21  22
ENDBRANCH  14  21
BRANCH   8  29
ATOM     29  C   UNL     1       4.941   0.254  -3.509  0.00  0.00    +0.163 C 
BRANCH  29  30
ATOM     30  C   UNL     1       5.430   1.605  -3.053  0.00  0.00    -0.027 A 
ATOM     31  C   UNL     1       4.604   2.709  -3.153  0.00  0.00    +0.007 A 
ATOM     32  C   UNL     1       5.052   3.948  -2.735  0.00  0.00    +0.020 A 
ATOM     33  C   UNL     1       6.327   4.083  -2.216  0.00  0.00    +0.041 A 
ATOM     34  C   UNL     1       7.153   2.978  -2.115  0.00  0.00    +0.020 A 
ATOM     35  C   UNL     1       6.702   1.738  -2.529  0.00  0.00    +0.007 A 
ATOM     36 CL   UNL     1       6.891   5.639  -1.691  0.00  0.00    -0.084 Cl
ENDBRANCH  29  30
ENDBRANCH   8  29
TORSDOF 7
