REMARK  Name = ZINC66628306
REMARK  7 active torsions:
REMARK  status: ('A' for Active; 'I' for Inactive)
REMARK    1  A    between atoms: C_1  and  C_2
REMARK    2  A    between atoms: C_2  and  C_4
REMARK    3  A    between atoms: C_2  and  N_17
REMARK    4  A    between atoms: C_4  and  C_5
REMARK    5  A    between atoms: N_7  and  C_8
REMARK    6  A    between atoms: C_11  and  N_15
REMARK    7  A    between atoms: C_18  and  C_20
REMARK                            x       y       z     vdW  Elec       q    Type
REMARK                         _______ _______ _______ _____ _____    ______ ____
ROOT
ATOM      1  C   UNL     1       0.849  -1.998  -1.205  0.00  0.00    +0.219 C 
ATOM      2  O   UNL     1       0.419  -2.611  -0.251  0.00  0.00    -0.275 OA
ATOM      3  N   UNL     1       1.449  -2.657  -2.215  0.00  0.00    -0.285 N 
ATOM      4  H   UNL     1       1.733  -2.176  -3.008  0.00  0.00    +0.155 HD
ENDROOT
BRANCH   3   5
ATOM      5  C   UNL     1       1.663  -4.039  -2.121  0.00  0.00    +0.036 A 
ATOM      6  C   UNL     1       2.808  -4.603  -2.668  0.00  0.00    +0.045 A 
ATOM      7  C   UNL     1       3.019  -5.966  -2.576  0.00  0.00    +0.065 A 
ATOM      8  C   UNL     1       2.086  -6.771  -1.934  0.00  0.00    +0.062 A 
ATOM      9  C   UNL     1       0.941  -6.206  -1.386  0.00  0.00    +0.065 A 
ATOM     10  C   UNL     1       0.733  -4.843  -1.475  0.00  0.00    +0.045 A 
ATOM     11 CL   UNL     1      -0.226  -7.212  -0.585  0.00  0.00    -0.082 Cl
ATOM     12 CL   UNL     1       4.449  -6.671  -3.261  0.00  0.00    -0.082 Cl
BRANCH   8  13
ATOM     13  N   UNL     1       2.300  -8.152  -1.840  0.00  0.00    -0.356 N 
ATOM     14  H   UNL     1       3.099  -8.546  -2.223  0.00  0.00    +0.142 HD
ATOM     15  H   UNL     1       1.648  -8.714  -1.392  0.00  0.00    +0.142 HD
ENDBRANCH   8  13
ENDBRANCH   3   5
BRANCH   1  16
ATOM     16  C   UNL     1       0.712  -0.498  -1.260  0.00  0.00    +0.118 C 
BRANCH  16  18
ATOM     17  C   UNL     1      -0.028   1.526   0.004  0.00  0.00    +0.028 C 
ATOM     18  C   UNL     1      -0.000  -0.004   0.001  0.00  0.00    +0.079 C 
BRANCH  18  19
ATOM     19  N   UNL     1      -1.372  -0.518   0.019  0.00  0.00    -0.312 N 
ATOM     20  C   UNL     1      -2.022  -0.661   1.191  0.00  0.00    +0.216 C 
ATOM     21  O   UNL     1      -1.471  -0.365   2.230  0.00  0.00    -0.276 OA
ATOM     22  H   UNL     1      -1.812  -0.755  -0.812  0.00  0.00    +0.149 HD
BRANCH  20  23
ATOM     23  C   UNL     1      -3.433  -1.190   1.210  0.00  0.00    +0.075 C 
ATOM     24  C   UNL     1      -4.337  -0.260   0.398  0.00  0.00    +0.013 C 
ATOM     25  C   UNL     1      -5.770  -0.797   0.417  0.00  0.00    +0.001 C 
ATOM     26  C   UNL     1      -6.271  -0.861   1.862  0.00  0.00    +0.000 C 
ATOM     27  C   UNL     1      -5.367  -1.790   2.674  0.00  0.00    +0.001 C 
ATOM     28  C   UNL     1      -3.934  -1.254   2.655  0.00  0.00    +0.013 C 
ENDBRANCH  20  23
ENDBRANCH  18  19
ENDBRANCH  16  18
ENDBRANCH   1  16
TORSDOF 6
