REMARK  Name = ZINC16457601
REMARK  9 active torsions:
REMARK  status: ('A' for Active; 'I' for Inactive)
REMARK    1  A    between atoms: C_3  and  C_11
REMARK    2  A    between atoms: C_6  and  N_7
REMARK    3  A    between atoms: N_13  and  C_14
REMARK    4  A    between atoms: N_13  and  C_30
REMARK    5  A    between atoms: C_14  and  C_15
REMARK    6  A    between atoms: C_17  and  C_20
REMARK    7  A    between atoms: N_22  and  C_23
REMARK    8  A    between atoms: C_23  and  C_24
REMARK    9  A    between atoms: C_30  and  C_31
REMARK                            x       y       z     vdW  Elec       q    Type
REMARK                         _______ _______ _______ _____ _____    ______ ____
ROOT
ATOM      1  C   UNL     1      -0.431   2.797  -1.701  0.00  0.00    +0.249 C 
ATOM      2  O   UNL     1       0.389   3.505  -1.150  0.00  0.00    -0.270 OA
ATOM      3  N   UNL     1      -0.723   1.583  -1.192  0.00  0.00    -0.286 N 
ENDROOT
BRANCH   1   6
ATOM      4  C   UNL     1      -1.704   2.934  -5.231  0.00  0.00    +0.033 A 
ATOM      5  C   UNL     1      -1.067   2.493  -4.090  0.00  0.00    +0.017 A 
ATOM      6  C   UNL     1      -1.107   3.266  -2.928  0.00  0.00    +0.055 A 
ATOM      7  C   UNL     1      -1.783   4.488  -2.934  0.00  0.00    +0.055 A 
ATOM      8  C   UNL     1      -2.412   4.920  -4.085  0.00  0.00    +0.053 A 
ATOM      9  C   UNL     1      -2.373   4.146  -5.230  0.00  0.00    +0.128 A 
ATOM     10 CL   UNL     1      -1.833   5.462  -1.497  0.00  0.00    -0.083 Cl
BRANCH   9  11
ATOM     11  N   UNL     1      -3.049   4.615  -6.460  0.00  0.00    +0.056 N 
ATOM     12  O   UNL     1      -3.638   5.681  -6.463  0.00  0.00    -0.126 OA
ATOM     13  O   UNL     1      -3.016   3.935  -7.470  0.00  0.00    -0.126 OA
ENDBRANCH   9  11
ENDBRANCH   1   6
BRANCH   3  14
ATOM     14  C   UNL     1       0.030   1.068  -0.046  0.00  0.00    +0.204 C 
BRANCH  14  15
ATOM     15  C   UNL     1      -0.648   1.489   1.232  0.00  0.00    +0.213 A 
ATOM     16  N   UNL     1      -1.571   0.815   1.850  0.00  0.00    -0.207 NA
ATOM     17  C   UNL     1      -1.937   1.507   2.963  0.00  0.00    +0.164 A 
ATOM     18  C   UNL     1      -1.194   2.647   2.988  0.00  0.00    +0.230 A 
ATOM     19  O   UNL     1      -0.400   2.620   1.907  0.00  0.00    -0.445 OA
BRANCH  17  20
ATOM     20  C   UNL     1      -2.952   1.101   3.953  0.00  0.00    +0.266 C 
ATOM     21  O   UNL     1      -3.190   1.815   4.907  0.00  0.00    -0.268 OA
ATOM     22  N   UNL     1      -3.615  -0.063   3.799  0.00  0.00    -0.308 N 
ATOM     23  H   UNL     1      -3.424  -0.633   3.038  0.00  0.00    +0.149 HD
BRANCH  22  24
ATOM     24  C   UNL     1      -4.623  -0.466   4.783  0.00  0.00    +0.136 C 
BRANCH  24  25
ATOM     25  C   UNL     1      -5.220  -1.815   4.377  0.00  0.00    +0.135 C 
ATOM     26  C   UNL     1      -6.288  -2.245   5.401  0.00  0.00    +0.035 C 
ATOM     27  C   UNL     1      -7.578  -2.403   4.561  0.00  0.00    +0.031 C 
ATOM     28  C   UNL     1      -7.013  -2.583   3.128  0.00  0.00    +0.160 C 
ATOM     29  O   UNL     1      -5.871  -1.697   3.100  0.00  0.00    -0.375 OA
ENDBRANCH  24  25
ENDBRANCH  22  24
ENDBRANCH  17  20
ENDBRANCH  14  15
ENDBRANCH   3  14
BRANCH   3  30
ATOM     30  C   UNL     1      -1.795   0.780  -1.785  0.00  0.00    +0.140 C 
BRANCH  30  31
ATOM     31  C   UNL     1      -3.145   1.241  -1.230  0.00  0.00    +0.136 C 
ATOM     32  C   UNL     1      -4.279   0.396  -1.842  0.00  0.00    +0.035 C 
ATOM     33  C   UNL     1      -4.976  -0.246  -0.618  0.00  0.00    +0.031 C 
ATOM     34  C   UNL     1      -4.542   0.695   0.534  0.00  0.00    +0.160 C 
ATOM     35  O   UNL     1      -3.181   1.043   0.193  0.00  0.00    -0.375 OA
ENDBRANCH  30  31
ENDBRANCH   3  30
TORSDOF 9
