REMARK  Name = ZINC10255699
REMARK  2 active torsions:
REMARK  status: ('A' for Active; 'I' for Inactive)
REMARK    1  A    between atoms: C_6  and  C_11
REMARK    2  A    between atoms: C_21  and  C_23
REMARK                            x       y       z     vdW  Elec       q    Type
REMARK                         _______ _______ _______ _____ _____    ______ ____
ROOT
ATOM      1  C   UNL     1       3.641   2.211  -0.021  0.00  0.00    +0.252 C 
ATOM      2  O   UNL     1       2.610   1.568  -0.049  0.00  0.00    -0.270 OA
ATOM      3  N   UNL     1       3.595   3.553   0.088  0.00  0.00    -0.255 N 
ATOM      4  C   UNL     1       2.425   4.308   0.208  0.00  0.00    +0.041 A 
ATOM      5  C   UNL     1       1.096   3.880   0.253  0.00  0.00    +0.024 A 
ATOM      6  C   UNL     1       0.075   4.796   0.382  0.00  0.00    +0.002 A 
ATOM      7  C   UNL     1       0.358   6.146   0.473  0.00  0.00    +0.000 A 
ATOM      8  C   UNL     1       1.671   6.578   0.434  0.00  0.00    +0.005 A 
ATOM      9  C   UNL     1       2.699   5.663   0.305  0.00  0.00    -0.024 A 
ATOM     10  C   UNL     1       4.197   5.857   0.236  0.00  0.00    +0.069 C 
ATOM     11  C   UNL     1       4.765   4.436   0.092  0.00  0.00    +0.171 C 
ENDROOT
BRANCH   1  17
ATOM     12  C   UNL     1       8.701  -1.734  -0.597  0.00  0.00    +0.001 A 
ATOM     13  C   UNL     1       7.530  -2.467  -0.782  0.00  0.00    +0.001 A 
ATOM     14  C   UNL     1       6.311  -1.867  -0.712  0.00  0.00    +0.008 A 
ATOM     15  C   UNL     1       6.227  -0.488  -0.449  0.00  0.00    -0.017 A 
ATOM     16  C   UNL     1       4.986   0.161  -0.369  0.00  0.00    +0.021 A 
ATOM     17  C   UNL     1       4.944   1.520  -0.107  0.00  0.00    +0.038 A 
ATOM     18  C   UNL     1       6.133   2.249   0.077  0.00  0.00    +0.013 A 
ATOM     19  C   UNL     1       7.343   1.637   0.003  0.00  0.00    +0.009 A 
ATOM     20  C   UNL     1       7.419   0.258  -0.261  0.00  0.00    -0.018 A 
ATOM     21  C   UNL     1       8.659  -0.398  -0.341  0.00  0.00    +0.008 A 
ENDBRANCH   1  17
BRANCH  11  22
ATOM     22  C   UNL     1       5.525   4.303  -1.202  0.00  0.00    +0.232 C 
ATOM     23  O   UNL     1       5.132   3.541  -2.060  0.00  0.00    -0.274 OA
ATOM     24  N   UNL     1       6.640   5.032  -1.407  0.00  0.00    -0.328 N 
ATOM     25  H   UNL     1       6.954   5.641  -0.721  0.00  0.00    +0.145 HD
ATOM     26  H   UNL     1       7.129   4.946  -2.240  0.00  0.00    +0.145 HD
ENDBRANCH  11  22
TORSDOF 2
