REMARK  Name = ZINC37572870
REMARK  5 active torsions:
REMARK  status: ('A' for Active; 'I' for Inactive)
REMARK    1  A    between atoms: C_3  and  S_9
REMARK    2  A    between atoms: C_6  and  C_7
REMARK    3  A    between atoms: C_7  and  N_8
REMARK    4  A    between atoms: S_9  and  N_12
REMARK    5  A    between atoms: N_12  and  C_13
REMARK                            x       y       z     vdW  Elec       q    Type
REMARK                         _______ _______ _______ _____ _____    ______ ____
ROOT
ATOM      1  S   UNL     1       3.891   2.312  -0.024  0.00  0.00    +0.092 S 
ATOM      2  O   UNL     1       4.872   1.453  -0.588  0.00  0.00    -0.148 OA
ATOM      3  O   UNL     1       3.597   3.593  -0.566  0.00  0.00    -0.148 OA
ENDROOT
BRANCH   1   6
ATOM      4  C   UNL     1      -0.017   1.378   0.010  0.00  0.00    +0.003 A 
ATOM      5  C   UNL     1       1.171   2.086   0.002  0.00  0.00    +0.029 A 
ATOM      6  C   UNL     1       2.377   1.411  -0.013  0.00  0.00    +0.110 A 
ATOM      7  C   UNL     1       2.396   0.029  -0.020  0.00  0.00    +0.029 A 
ATOM      8  C   UNL     1       1.208  -0.679  -0.012  0.00  0.00    +0.003 A 
ATOM      9  C   UNL     1       0.002  -0.004   0.002  0.00  0.00    -0.065 A 
BRANCH   9  10
ATOM     10  C   UNL     1      -1.293  -0.775   0.011  0.00  0.00    -0.051 C 
BRANCH  10  11
ATOM     11  N   UNL     1      -1.727  -1.018  -1.371  0.00  0.00    +0.381 N 
ATOM     12  H   UNL     1      -2.594  -1.535  -1.366  0.00  0.00    -0.090 HD
ATOM     13  H   UNL     1      -1.864  -0.136  -1.841  0.00  0.00    -0.090 HD
ATOM     14  H   UNL     1      -1.021  -1.552  -1.857  0.00  0.00    -0.090 HD
ENDBRANCH  10  11
ENDBRANCH   9  10
ENDBRANCH   1   6
BRANCH   1  15
ATOM     15  N   UNL     1       4.327   2.556   1.555  0.00  0.00    -0.096 NA
BRANCH  15  16
ATOM     16  C   UNL     1       5.502   3.252   1.857  0.00  0.00    +0.094 A 
ATOM     17  C   UNL     1       6.300   3.745   0.833  0.00  0.00    +0.049 A 
ATOM     18  C   UNL     1       7.461   4.433   1.134  0.00  0.00    +0.061 A 
ATOM     19  C   UNL     1       7.828   4.630   2.455  0.00  0.00    +0.061 A 
ATOM     20  C   UNL     1       7.034   4.139   3.476  0.00  0.00    +0.043 A 
ATOM     21  C   UNL     1       5.869   3.457   3.181  0.00  0.00    +0.067 A 
ATOM     22 CL   UNL     1       4.870   2.848   4.464  0.00  0.00    -0.081 Cl
ATOM     23 CL   UNL     1       9.286   5.494   2.829  0.00  0.00    -0.082 Cl
ATOM     24 CL   UNL     1       8.460   5.050  -0.145  0.00  0.00    -0.082 Cl
ENDBRANCH  15  16
ENDBRANCH   1  15
TORSDOF 5
