REMARK  Name = ZINC03894287
REMARK  3 active torsions:
REMARK  status: ('A' for Active; 'I' for Inactive)
REMARK    1  A    between atoms: C_4  and  C_7
REMARK    2  A    between atoms: C_7  and  N_8
REMARK    3  A    between atoms: C_9  and  O_27
REMARK                            x       y       z     vdW  Elec       q    Type
REMARK                         _______ _______ _______ _____ _____    ______ ____
ROOT
ATOM      1  N   UNL     1       4.152  -0.952   1.338  0.00  0.00    -0.228 N 
ATOM      2  C   UNL     1       4.915  -0.120   2.061  0.00  0.00    +0.219 A 
ATOM      3  C   UNL     1       5.114  -0.706   3.310  0.00  0.00    +0.064 A 
ATOM      4  C   UNL     1       5.802  -0.342   4.476  0.00  0.00    +0.016 A 
ATOM      5  C   UNL     1       5.808  -1.155   5.567  0.00  0.00    +0.013 A 
ATOM      6  C   UNL     1       5.139  -2.385   5.593  0.00  0.00    +0.035 A 
ATOM      7  C   UNL     1       4.426  -2.831   4.476  0.00  0.00    +0.061 A 
ATOM      8  C   UNL     1       4.390  -1.990   3.279  0.00  0.00    +0.108 A 
ATOM      9  N   UNL     1       3.833  -2.087   2.092  0.00  0.00    -0.167 NA
ATOM     10  C   UNL     1       3.726  -4.120   4.503  0.00  0.00    +0.197 C 
ATOM     11  O   UNL     1       3.109  -4.498   3.525  0.00  0.00    -0.287 OA
ATOM     12  C   UNL     1       3.770  -4.961   5.719  0.00  0.00    +0.033 A 
ATOM     13  C   UNL     1       3.111  -6.185   5.754  0.00  0.00    +0.012 A 
ATOM     14  C   UNL     1       3.160  -6.963   6.898  0.00  0.00    +0.001 A 
ATOM     15  C   UNL     1       3.862  -6.531   8.008  0.00  0.00    +0.001 A 
ATOM     16  C   UNL     1       4.524  -5.315   7.990  0.00  0.00    +0.012 A 
ATOM     17  C   UNL     1       4.484  -4.521   6.848  0.00  0.00    +0.033 A 
ATOM     18  C   UNL     1       5.187  -3.222   6.815  0.00  0.00    +0.195 C 
ATOM     19  O   UNL     1       5.805  -2.841   7.789  0.00  0.00    -0.287 OA
ENDROOT
BRANCH   2  20
ATOM     20  O   UNL     1       5.405   1.075   1.651  0.00  0.00    -0.492 OA
ATOM     21  H   UNL     1       4.822   1.823   1.835  0.00  0.00    +0.294 HD
ENDBRANCH   2  20
BRANCH   1  22
ATOM     22  C   UNL     1       3.711  -0.707  -0.038  0.00  0.00    +0.182 C 
BRANCH  22  26
ATOM     23  C   UNL     1      -0.017   1.378   0.010  0.00  0.00    +0.000 A 
ATOM     24  C   UNL     1       1.171   2.086   0.002  0.00  0.00    +0.000 A 
ATOM     25  C   UNL     1       2.377   1.411  -0.013  0.00  0.00    +0.005 A 
ATOM     26  C   UNL     1       2.396   0.029  -0.020  0.00  0.00    -0.026 A 
ATOM     27  C   UNL     1       1.208  -0.679  -0.012  0.00  0.00    +0.005 A 
ATOM     28  C   UNL     1       0.002  -0.004   0.002  0.00  0.00    +0.000 A 
ENDBRANCH  22  26
ENDBRANCH   1  22
TORSDOF 3
