REMARK  Name = ZINC67049671
REMARK  7 active torsions:
REMARK  status: ('A' for Active; 'I' for Inactive)
REMARK    1  A    between atoms: C_1  and  C_2
REMARK    2  A    between atoms: C_2  and  C_3
REMARK    3  A    between atoms: C_2  and  C_4
REMARK    4  A    between atoms: C_7  and  C_10
REMARK    5  A    between atoms: C_11  and  C_12
REMARK    6  A    between atoms: N_14  and  C_15
REMARK    7  A    between atoms: N_18  and  C_21
REMARK                            x       y       z     vdW  Elec       q    Type
REMARK                         _______ _______ _______ _____ _____    ______ ____
ROOT
ATOM      1  C   UNL     1       6.255  -4.343  -6.926  0.00  0.00    +0.076 C 
ATOM      2  C   UNL     1       5.592  -5.623  -7.440  0.00  0.00    +0.041 C 
ATOM      3  C   UNL     1       6.306  -6.088  -8.713  0.00  0.00    +0.108 C 
ATOM      4  N   UNL     1       7.741  -6.225  -8.428  0.00  0.00    -0.313 N 
ATOM      5  C   UNL     1       8.457  -5.081  -7.846  0.00  0.00    +0.108 C 
ATOM      6  C   UNL     1       7.719  -4.628  -6.583  0.00  0.00    +0.041 C 
ENDROOT
BRANCH   4   7
ATOM      7  C   UNL     1       8.405  -7.408  -8.701  0.00  0.00    +0.152 A 
ATOM      8  C   UNL     1       9.798  -7.502  -8.547  0.00  0.00    +0.147 A 
ATOM      9  N   UNL     1      10.774  -6.647  -8.159  0.00  0.00    -0.231 NA
ATOM     10  C   UNL     1      11.923  -7.256  -8.194  0.00  0.00    +0.198 A 
ATOM     11  N   UNL     1      11.755  -8.544  -8.608  0.00  0.00    -0.329 N 
ATOM     12  C   UNL     1      10.416  -8.730  -8.840  0.00  0.00    +0.163 A 
ATOM     13  N   UNL     1       9.667  -9.749  -9.248  0.00  0.00    -0.216 NA
ATOM     14  C   UNL     1       8.364  -9.614  -9.377  0.00  0.00    +0.225 A 
ATOM     15  N   UNL     1       7.738  -8.482  -9.110  0.00  0.00    -0.218 NA
ATOM     16  H   UNL     1      12.455  -9.207  -8.719  0.00  0.00    +0.168 HD
ENDBRANCH   4   7
BRANCH   1  19
ATOM     17  C   UNL     1       4.454  -3.108  -5.846  0.00  0.00    +0.237 C 
ATOM     18  O   UNL     1       4.043  -2.800  -6.949  0.00  0.00    -0.271 OA
ATOM     19  N   UNL     1       5.554  -3.877  -5.727  0.00  0.00    -0.309 N 
ATOM     20  H   UNL     1       5.882  -4.123  -4.848  0.00  0.00    +0.149 HD
BRANCH  17  22
ATOM     21  C   UNL     1       2.653  -1.872  -4.766  0.00  0.00    +0.013 C 
ATOM     22  C   UNL     1       3.753  -2.642  -4.647  0.00  0.00    +0.068 C 
BRANCH  21  26
ATOM     23  C   UNL     1       0.623  -0.525  -1.294  0.00  0.00    -0.045 A 
ATOM     24  C   UNL     1       0.153  -0.172  -2.547  0.00  0.00    +0.004 A 
ATOM     25  C   UNL     1       0.807  -0.606  -3.680  0.00  0.00    +0.008 A 
ATOM     26  C   UNL     1       1.949  -1.404  -3.561  0.00  0.00    -0.025 A 
ATOM     27  C   UNL     1       2.418  -1.757  -2.292  0.00  0.00    +0.008 A 
ATOM     28  C   UNL     1       1.755  -1.310  -1.168  0.00  0.00    +0.004 A 
BRANCH  23  30
ATOM     29  C   UNL     1      -0.115   1.483  -0.040  0.00  0.00    +0.012 C 
ATOM     30  C   UNL     1      -0.099  -0.046  -0.061  0.00  0.00    +0.013 C 
ATOM     31  C   UNL     1      -1.536  -0.571  -0.075  0.00  0.00    +0.012 C 
ENDBRANCH  23  30
ENDBRANCH  21  26
ENDBRANCH  17  22
ENDBRANCH   1  19
TORSDOF 5
