REMARK  Name = ZINC12922457
REMARK  5 active torsions:
REMARK  status: ('A' for Active; 'I' for Inactive)
REMARK    1  A    between atoms: C_1  and  C_2
REMARK    2  A    between atoms: C_5  and  N_9
REMARK    3  A    between atoms: C_10  and  C_12
REMARK    4  A    between atoms: C_12  and  N_13
REMARK    5  A    between atoms: C_16  and  N_29
REMARK                            x       y       z     vdW  Elec       q    Type
REMARK                         _______ _______ _______ _____ _____    ______ ____
ROOT
ATOM      1  N   UNL     1      -0.724   1.974   1.206  0.00  0.00    -0.295 N 
ATOM      2  C   UNL     1      -0.017   2.220   2.369  0.00  0.00    +0.073 A 
ATOM      3  C   UNL     1       1.359   2.021   2.406  0.00  0.00    +0.060 A 
ATOM      4  C   UNL     1       2.057   2.268   3.569  0.00  0.00    +0.128 A 
ATOM      5  C   UNL     1       1.396   2.715   4.705  0.00  0.00    +0.035 A 
ATOM      6  C   UNL     1       0.046   2.918   4.689  0.00  0.00    +0.032 A 
ATOM      7  C   UNL     1      -0.686   2.673   3.519  0.00  0.00    +0.090 A 
ATOM      8  N   UNL     1      -2.021   2.873   3.504  0.00  0.00    -0.225 NA
ATOM      9  C   UNL     1      -2.724   2.651   2.423  0.00  0.00    +0.188 A 
ATOM     10  C   UNL     1      -2.059   2.180   1.193  0.00  0.00    +0.292 A 
ATOM     11  O   UNL     1      -2.705   1.977   0.182  0.00  0.00    -0.264 OA
ATOM     12  N   UNL     1      -4.091   2.864   2.432  0.00  0.00    -0.311 N 
ATOM     13  C   UNL     1      -4.830   1.583   2.300  0.00  0.00    +0.107 C 
ATOM     14  C   UNL     1      -6.238   1.927   2.846  0.00  0.00    +0.020 C 
ATOM     15  C   UNL     1      -5.928   2.887   4.018  0.00  0.00    +0.020 C 
ATOM     16  C   UNL     1      -4.527   3.451   3.717  0.00  0.00    +0.107 C 
ENDROOT
BRANCH   4  17
ATOM     17  N   UNL     1       3.521   2.056   3.607  0.00  0.00    +0.056 N 
ATOM     18  O   UNL     1       4.142   2.273   4.632  0.00  0.00    -0.126 OA
ATOM     19  O   UNL     1       4.106   1.664   2.613  0.00  0.00    -0.126 OA
ENDBRANCH   4  17
BRANCH   1  20
ATOM     20  C   UNL     1      -0.034   1.502   0.002  0.00  0.00    +0.221 C 
BRANCH  20  22
ATOM     21  N   UNL     1       0.585  -0.664  -1.018  0.00  0.00    -0.283 N 
ATOM     22  C   UNL     1      -0.003  -0.005  -0.001  0.00  0.00    +0.237 C 
ATOM     23  O   UNL     1      -0.508  -0.623   0.912  0.00  0.00    -0.274 OA
ATOM     24  H   UNL     1       0.931  -0.173  -1.779  0.00  0.00    +0.155 HD
BRANCH  21  29
ATOM     25  C   UNL     1       1.039  -6.318  -0.846  0.00  0.00    +0.044 C 
ATOM     26  C   UNL     1       0.918  -4.816  -0.892  0.00  0.00    -0.049 A 
ATOM     27  C   UNL     1      -0.192  -4.196  -0.349  0.00  0.00    +0.005 A 
ATOM     28  C   UNL     1      -0.305  -2.820  -0.389  0.00  0.00    +0.024 A 
ATOM     29  C   UNL     1       0.697  -2.059  -0.976  0.00  0.00    +0.048 A 
ATOM     30  C   UNL     1       1.809  -2.685  -1.526  0.00  0.00    +0.039 A 
ATOM     31  C   UNL     1       1.919  -4.062  -1.477  0.00  0.00    +0.020 A 
ATOM     32 BR   UNL     1       3.173  -1.654  -2.333  0.00  0.00    -0.048 Br
ENDBRANCH  21  29
ENDBRANCH  20  22
ENDBRANCH   1  20
TORSDOF 4
