REMARK  Name = ZINC35255680
REMARK  6 active torsions:
REMARK  status: ('A' for Active; 'I' for Inactive)
REMARK    1  A    between atoms: C_1  and  C_2
REMARK    2  A    between atoms: C_2  and  C_4
REMARK    3  A    between atoms: C_2  and  N_12
REMARK    4  A    between atoms: C_7  and  C_10
REMARK    5  A    between atoms: N_12  and  C_13
REMARK    6  A    between atoms: C_18  and  N_19
REMARK                            x       y       z     vdW  Elec       q    Type
REMARK                         _______ _______ _______ _____ _____    ______ ____
ROOT
ATOM      1  N   UNL     1       0.772  -0.020  -1.441  0.00  0.00    -0.336 N 
ATOM      2  H   UNL     1       0.277  -0.243  -2.245  0.00  0.00    +0.147 HD
ENDROOT
BRANCH   1   3
ATOM      3  C   UNL     1       2.122  -0.363  -1.334  0.00  0.00    +0.058 A 
ATOM      4  C   UNL     1       2.864   0.062  -0.239  0.00  0.00    +0.026 A 
ATOM      5  C   UNL     1       4.198  -0.279  -0.136  0.00  0.00    +0.017 A 
ATOM      6  C   UNL     1       4.796  -1.044  -1.122  0.00  0.00    +0.020 A 
ATOM      7  C   UNL     1       4.061  -1.468  -2.213  0.00  0.00    +0.050 A 
ATOM      8  C   UNL     1       2.724  -1.136  -2.319  0.00  0.00    +0.148 A 
ATOM      9 BR   UNL     1       6.624  -1.508  -0.977  0.00  0.00    -0.050 Br
BRANCH   8  10
ATOM     10  N   UNL     1       1.936  -1.596  -3.484  0.00  0.00    +0.058 N 
ATOM     11  O   UNL     1       0.784  -1.933  -3.339  0.00  0.00    -0.126 OA
ATOM     12  O   UNL     1       2.444  -1.636  -4.580  0.00  0.00    -0.126 OA
ENDBRANCH   8  10
ENDBRANCH   1   3
BRANCH   1  14
ATOM     13  C   UNL     1       0.347   2.183  -0.468  0.00  0.00    +0.033 C 
ATOM     14  C   UNL     1       0.104   0.678  -0.340  0.00  0.00    +0.098 C 
BRANCH  14  15
ATOM     15  C   UNL     1      -1.376   0.401  -0.394  0.00  0.00    -0.027 A 
ATOM     16  C   UNL     1      -2.025   0.362  -1.615  0.00  0.00    +0.007 A 
ATOM     17  C   UNL     1      -3.380   0.109  -1.671  0.00  0.00    +0.019 A 
ATOM     18  C   UNL     1      -4.096  -0.109  -0.493  0.00  0.00    +0.052 A 
ATOM     19  C   UNL     1      -3.435  -0.068   0.736  0.00  0.00    +0.019 A 
ATOM     20  C   UNL     1      -2.079   0.181   0.778  0.00  0.00    +0.007 A 
BRANCH  18  21
ATOM     21  C   UNL     1      -5.503  -0.371  -0.544  0.00  0.00    +0.099 C 
ATOM     22  N   UNL     1      -6.619  -0.580  -0.585  0.00  0.00    -0.191 NA
ENDBRANCH  18  21
ENDBRANCH  14  15
ENDBRANCH   1  14
TORSDOF 5
