REMARK  Name = ZINC13033845
REMARK  12 active torsions:
REMARK  status: ('A' for Active; 'I' for Inactive)
REMARK    1  A    between atoms: C_1  and  C_2
REMARK    2  A    between atoms: C_2  and  C_3
REMARK    3  A    between atoms: C_3  and  C_4
REMARK    4  A    between atoms: C_3  and  C_5
REMARK    5  A    between atoms: C_3  and  N_6
REMARK    6  A    between atoms: C_7  and  C_11
REMARK    7  A    between atoms: C_11  and  N_68
REMARK    8  A    between atoms: C_12  and  C_13
REMARK    9  A    between atoms: C_12  and  N_68
REMARK   10  A    between atoms: C_16  and  C_19
REMARK   11  A    between atoms: C_20  and  C_21
REMARK   12  A    between atoms: C_20  and  N_68
REMARK                            x       y       z     vdW  Elec       q    Type
REMARK                         _______ _______ _______ _____ _____    ______ ____
ROOT
ATOM      1  N   UNL     1       1.662  -3.127  -1.354  0.00  0.00    +0.390 N 
ATOM      2  H   UNL     1       0.966  -2.986  -2.096  0.00  0.00    -0.080 HD
ENDROOT
BRANCH   1   3
ATOM      3  C   UNL     1       2.983  -2.680  -1.843  0.00  0.00    +0.001 C 
BRANCH   3   5
ATOM      4  N   UNL     1       5.324  -2.490  -0.849  0.00  0.00    -0.226 N 
ATOM      5  C   UNL     1       4.025  -2.833  -0.766  0.00  0.00    +0.136 A 
ATOM      6  N   UNL     1       3.844  -3.332   0.433  0.00  0.00    -0.115 NA
ATOM      7  N   UNL     1       4.971  -3.292   1.055  0.00  0.00    -0.023 NA
ATOM      8  N   UNL     1       5.867  -2.781   0.284  0.00  0.00    -0.043 NA
BRANCH   4   9
ATOM      9  C   UNL     1       5.994  -1.895  -2.008  0.00  0.00    +0.061 C 
ATOM     10  C   UNL     1       5.795  -2.795  -3.230  0.00  0.00    +0.036 C 
ATOM     11  C   UNL     1       5.397  -0.514  -2.289  0.00  0.00    +0.036 C 
BRANCH   9  13
ATOM     12  C   UNL     1       8.170  -1.029  -2.878  0.00  0.00    +0.006 C 
ATOM     13  C   UNL     1       7.489  -1.755  -1.716  0.00  0.00    +0.026 C 
ENDBRANCH   9  13
ENDBRANCH   4   9
ENDBRANCH   3   5
ENDBRANCH   1   3
BRANCH   1  14
ATOM     14  C   UNL     1       1.267  -2.334  -0.170  0.00  0.00    -0.042 C 
BRANCH  14  15
ATOM     15  C   UNL     1       1.011  -0.913  -0.600  0.00  0.00    -0.064 A 
ATOM     16  C   UNL     1      -0.251  -0.534  -1.018  0.00  0.00    +0.002 A 
ATOM     17  C   UNL     1      -0.485   0.770  -1.411  0.00  0.00    +0.003 A 
ATOM     18  C   UNL     1       0.541   1.696  -1.387  0.00  0.00    -0.050 A 
ATOM     19  C   UNL     1       1.804   1.316  -0.970  0.00  0.00    +0.003 A 
ATOM     20  C   UNL     1       2.038   0.012  -0.576  0.00  0.00    +0.002 A 
ATOM     21  C   UNL     1       0.285   3.117  -1.816  0.00  0.00    +0.044 C 
ENDBRANCH  14  15
ENDBRANCH   1  14
BRANCH   1  22
ATOM     22  C   UNL     1       1.710  -4.563  -1.007  0.00  0.00    -0.036 C 
BRANCH  22  23
ATOM     23  C   UNL     1       1.929  -5.360  -2.267  0.00  0.00    +0.001 A 
ATOM     24  C   UNL     1       3.181  -5.766  -2.601  0.00  0.00    +0.017 A 
ATOM     25  C   UNL     1       3.360  -6.543  -3.827  0.00  0.00    +0.002 A 
ATOM     26  C   UNL     1       4.627  -6.992  -4.220  0.00  0.00    +0.059 A 
ATOM     27  C   UNL     1       4.765  -7.719  -5.383  0.00  0.00    +0.163 A 
ATOM     28  C   UNL     1       3.647  -8.008  -6.170  0.00  0.00    +0.164 A 
ATOM     29  C   UNL     1       2.390  -7.568  -5.790  0.00  0.00    +0.075 A 
ATOM     30  C   UNL     1       2.234  -6.834  -4.622  0.00  0.00    +0.053 A 
ATOM     31  N   UNL     1       0.989  -6.386  -4.228  0.00  0.00    -0.322 N 
ATOM     32  H   UNL     1       0.214  -6.586  -4.776  0.00  0.00    +0.169 HD
ATOM     33  C   UNL     1       0.835  -5.677  -3.097  0.00  0.00    +0.251 A 
ATOM     34  O   UNL     1      -0.280  -5.298  -2.780  0.00  0.00    -0.268 OA
ATOM     35  O   UNL     1       3.775  -8.728  -7.318  0.00  0.00    -0.485 OA
ATOM     36  C   UNL     1       5.092  -8.835  -7.868  0.00  0.00    +0.270 C 
ATOM     37  C   UNL     1       6.060  -9.190  -6.731  0.00  0.00    +0.270 C 
ATOM     38  O   UNL     1       6.005  -8.146  -5.753  0.00  0.00    -0.485 OA
ENDBRANCH  22  23
ENDBRANCH   1  22
TORSDOF 8
