REMARK  Name = ZINC15677389
REMARK  6 active torsions:
REMARK  status: ('A' for Active; 'I' for Inactive)
REMARK    1  A    between atoms: C_1  and  C_2
REMARK    2  A    between atoms: C_7  and  S_8
REMARK    3  A    between atoms: S_8  and  N_11
REMARK    4  A    between atoms: N_11  and  C_12
REMARK    5  A    between atoms: C_18  and  C_20
REMARK    6  A    between atoms: N_24  and  C_25
REMARK                            x       y       z     vdW  Elec       q    Type
REMARK                         _______ _______ _______ _____ _____    ______ ____
ROOT
ATOM      1  C   UNL     1       2.817   1.155   2.403  0.00  0.00    +0.046 C 
ATOM      2  C   UNL     1       1.950   1.267   1.175  0.00  0.00    -0.022 A 
ATOM      3  C   UNL     1       0.926   2.193   1.137  0.00  0.00    +0.032 A 
ATOM      4  C   UNL     1       0.121   2.302   0.008  0.00  0.00    +0.072 A 
ATOM      5  C   UNL     1       0.358   1.475  -1.084  0.00  0.00    +0.143 A 
ATOM      6  C   UNL     1       1.389   0.547  -1.038  0.00  0.00    +0.076 A 
ATOM      7  C   UNL     1       2.181   0.444   0.089  0.00  0.00    +0.112 A 
ATOM      8  O   UNL     1      -0.399   1.558  -2.213  0.00  0.00    -0.488 OA
ATOM      9  C   UNL     1      -1.633   2.275  -2.108  0.00  0.00    +0.248 C 
ATOM     10  C   UNL     1      -1.358   3.578  -1.347  0.00  0.00    +0.146 C 
ATOM     11  N   UNL     1      -0.913   3.243   0.010  0.00  0.00    -0.327 N 
ATOM     12  C   UNL     1      -0.523   4.451   0.750  0.00  0.00    +0.129 C 
ENDROOT
BRANCH   7  13
ATOM     13  S   UNL     1       3.488  -0.737   0.142  0.00  0.00    +0.059 S 
ATOM     14  O   UNL     1       3.424  -1.468  -1.075  0.00  0.00    -0.153 OA
ATOM     15  O   UNL     1       4.654  -0.035   0.549  0.00  0.00    -0.153 OA
BRANCH  13  16
ATOM     16  N   UNL     1       3.132  -1.806   1.356  0.00  0.00    -0.187 NA
ATOM     17  H   UNL     1       3.692  -1.846   2.147  0.00  0.00    +0.148 HD
BRANCH  16  18
ATOM     18  C   UNL     1       1.971  -2.692   1.235  0.00  0.00    +0.079 C 
ATOM     19  C   UNL     1       0.767  -2.054   1.930  0.00  0.00    +0.020 C 
ATOM     20  C   UNL     1      -0.445  -2.979   1.804  0.00  0.00    +0.002 C 
ATOM     21  C   UNL     1      -0.130  -4.324   2.461  0.00  0.00    +0.000 C 
ATOM     22  C   UNL     1       1.074  -4.963   1.766  0.00  0.00    +0.005 C 
ATOM     23  C   UNL     1       2.286  -4.037   1.892  0.00  0.00    +0.005 C 
ATOM     24  C   UNL     1       3.490  -4.676   1.197  0.00  0.00    +0.009 C 
ENDBRANCH  16  18
ENDBRANCH  13  16
ENDBRANCH   7  13
TORSDOF 3
