REMARK  Name = ZINC57653918
REMARK  7 active torsions:
REMARK  status: ('A' for Active; 'I' for Inactive)
REMARK    1  A    between atoms: C_1  and  C_2
REMARK    2  A    between atoms: C_2  and  C_3
REMARK    3  A    between atoms: C_8  and  O_9
REMARK    4  A    between atoms: O_9  and  C_10
REMARK    5  A    between atoms: C_10  and  C_11
REMARK    6  A    between atoms: C_11  and  C_12
REMARK    7  A    between atoms: C_12  and  N_13
REMARK                            x       y       z     vdW  Elec       q    Type
REMARK                         _______ _______ _______ _____ _____    ______ ____
ROOT
ATOM      1  C   UNL     1      -4.056  -0.323   5.020  0.00  0.00    +0.120 C 
ENDROOT
BRANCH   1   2
ATOM      2  N   UNL     1      -5.469   0.052   4.917  0.00  0.00    -0.234 N 
ATOM      3  C   UNL     1      -5.945   1.291   5.132  0.00  0.00    +0.254 C 
ATOM      4  O   UNL     1      -5.283   2.262   5.438  0.00  0.00    -0.270 OA
ATOM      5  C   UNL     1      -7.410   1.274   4.933  0.00  0.00    +0.049 A 
ATOM      6  C   UNL     1      -8.409   2.230   5.015  0.00  0.00    +0.014 A 
ATOM      7  C   UNL     1      -9.724   1.874   4.760  0.00  0.00    +0.001 A 
ATOM      8  C   UNL     1     -10.045   0.572   4.425  0.00  0.00    +0.001 A 
ATOM      9  C   UNL     1      -9.056  -0.396   4.340  0.00  0.00    +0.014 A 
ATOM     10  C   UNL     1      -7.737  -0.054   4.592  0.00  0.00    +0.049 A 
ATOM     11  C   UNL     1      -6.460  -0.797   4.590  0.00  0.00    +0.254 C 
ATOM     12  O   UNL     1      -6.327  -1.978   4.337  0.00  0.00    -0.270 OA
ENDBRANCH   1   2
BRANCH   1  13
ATOM     13  C   UNL     1      -3.378  -0.133   3.662  0.00  0.00    +0.060 C 
BRANCH  13  14
ATOM     14  C   UNL     1      -1.903  -0.524   3.770  0.00  0.00    +0.230 C 
BRANCH  14  15
ATOM     15  O   UNL     1      -1.269  -0.347   2.501  0.00  0.00    -0.492 OA
BRANCH  15  21
ATOM     16  C   UNL     1       0.731  -0.503   1.223  0.00  0.00    -0.006 A 
ATOM     17  C   UNL     1       2.076  -0.808   1.148  0.00  0.00    +0.007 A 
ATOM     18  C   UNL     1       2.746  -1.266   2.268  0.00  0.00    +0.000 A 
ATOM     19  C   UNL     1       2.071  -1.421   3.465  0.00  0.00    +0.004 A 
ATOM     20  C   UNL     1       0.726  -1.117   3.545  0.00  0.00    +0.046 A 
ATOM     21  C   UNL     1       0.053  -0.652   2.424  0.00  0.00    +0.124 A 
BRANCH  16  23
ATOM     22  C   UNL     1      -0.019   1.526   0.010  0.00  0.00    +0.009 C 
ATOM     23  C   UNL     1       0.002  -0.004   0.002  0.00  0.00    +0.035 C 
ENDBRANCH  16  23
ENDBRANCH  15  21
ENDBRANCH  14  15
ENDBRANCH  13  14
ENDBRANCH   1  13
TORSDOF 6
