REMARK  Name = ZINC06811922
REMARK  8 active torsions:
REMARK  status: ('A' for Active; 'I' for Inactive)
REMARK    1  A    between atoms: C_1  and  C_2
REMARK    2  A    between atoms: C_2  and  C_3
REMARK    3  A    between atoms: C_9  and  C_25
REMARK    4  A    between atoms: C_11  and  C_14
REMARK    5  A    between atoms: N_16  and  C_17
REMARK    6  A    between atoms: C_22  and  O_23
REMARK    7  A    between atoms: O_23  and  C_24
REMARK    8  A    between atoms: C_28  and  C_31
REMARK                            x       y       z     vdW  Elec       q    Type
REMARK                         _______ _______ _______ _____ _____    ______ ____
ROOT
ATOM      1  C   UNL     1       3.452   1.105   1.223  0.00  0.00    +0.151 A 
ATOM      2  N   UNL     1       3.720   0.696   2.433  0.00  0.00    -0.132 NA
ATOM      3  N   UNL     1       2.628   0.499   3.087  0.00  0.00    -0.121 NA
ATOM      4  C   UNL     1       1.608   0.771   2.321  0.00  0.00    +0.209 A 
ATOM      5  N   UNL     1       2.093   1.175   1.110  0.00  0.00    -0.225 N 
ATOM      6  N   UNL     1       1.371   1.568   0.029  0.00  0.00    -0.272 N 
ATOM      7  C   UNL     1      -0.006   1.071   0.030  0.00  0.00    +0.140 C 
ATOM      8  C   UNL     1      -0.754   1.565   1.276  0.00  0.00    +0.166 C 
ATOM      9  S   UNL     1      -0.109   0.653   2.710  0.00  0.00    -0.069 S 
ATOM     10  H   UNL     1       1.393   2.571  -0.076  0.00  0.00    +0.167 HD
ENDROOT
BRANCH   7  11
ATOM     11  C   UNL     1      -0.716   1.570  -1.202  0.00  0.00    -0.024 A 
ATOM     12  C   UNL     1      -0.516   2.866  -1.639  0.00  0.00    +0.006 A 
ATOM     13  C   UNL     1      -1.163   3.322  -2.772  0.00  0.00    +0.004 A 
ATOM     14  C   UNL     1      -2.019   2.485  -3.463  0.00  0.00    -0.050 A 
ATOM     15  C   UNL     1      -2.224   1.190  -3.023  0.00  0.00    +0.004 A 
ATOM     16  C   UNL     1      -1.572   0.733  -1.893  0.00  0.00    +0.006 A 
ATOM     17  C   UNL     1      -2.729   2.983  -4.695  0.00  0.00    +0.044 C 
ENDBRANCH   7  11
BRANCH   8  18
ATOM     18  C   UNL     1      -2.230   1.300   1.123  0.00  0.00    +0.233 C 
ATOM     19  O   UNL     1      -2.610   0.304   0.545  0.00  0.00    -0.274 OA
ATOM     20  N   UNL     1      -3.126   2.170   1.630  0.00  0.00    -0.282 N 
ATOM     21  H   UNL     1      -2.824   2.932   2.148  0.00  0.00    +0.155 HD
BRANCH  20  22
ATOM     22  C   UNL     1      -4.496   1.972   1.408  0.00  0.00    +0.076 A 
ATOM     23  C   UNL     1      -5.013   0.686   1.349  0.00  0.00    +0.027 A 
ATOM     24  C   UNL     1      -6.365   0.495   1.136  0.00  0.00    +0.002 A 
ATOM     25  C   UNL     1      -7.203   1.582   0.970  0.00  0.00    +0.004 A 
ATOM     26  C   UNL     1      -6.694   2.866   1.021  0.00  0.00    +0.047 A 
ATOM     27  C   UNL     1      -5.341   3.067   1.240  0.00  0.00    +0.141 A 
BRANCH  27  28
ATOM     28  O   UNL     1      -4.839   4.330   1.291  0.00  0.00    -0.493 OA
ATOM     29  C   UNL     1      -5.764   5.404   1.110  0.00  0.00    +0.277 C 
ENDBRANCH  27  28
ENDBRANCH  20  22
ENDBRANCH   8  18
BRANCH   1  31
ATOM     30  C   UNL     1       4.828   2.921   0.243  0.00  0.00    +0.012 C 
ATOM     31  C   UNL     1       4.456   1.440   0.150  0.00  0.00    +0.074 C 
ENDBRANCH   1  31
TORSDOF 5
