REMARK  Name = ZINC07010455
REMARK  6 active torsions:
REMARK  status: ('A' for Active; 'I' for Inactive)
REMARK    1  A    between atoms: C_1  and  C_2
REMARK    2  A    between atoms: C_2  and  C_28
REMARK    3  A    between atoms: C_7  and  C_11
REMARK    4  A    between atoms: N_13  and  C_14
REMARK    5  A    between atoms: C_17  and  N_20
REMARK    6  A    between atoms: N_21  and  C_22
REMARK                            x       y       z     vdW  Elec       q    Type
REMARK                         _______ _______ _______ _____ _____    ______ ____
ROOT
ATOM      1  C   UNL     1       3.164  -1.973   0.946  0.00  0.00    +0.231 C 
ATOM      2  O   UNL     1       4.247  -1.471   0.729  0.00  0.00    -0.274 OA
ATOM      3  N   UNL     1       3.051  -2.964   1.853  0.00  0.00    -0.285 N 
ATOM      4  H   UNL     1       2.202  -3.419   1.971  0.00  0.00    +0.155 HD
ENDROOT
BRANCH   1  10
ATOM      5  C   UNL     1      -0.015   1.432   0.469  0.00  0.00    +0.019 C 
ATOM      6  C   UNL     1      -0.006  -0.047   0.078  0.00  0.00    +0.027 C 
ATOM      7  C   UNL     1       0.688  -0.239  -1.305  0.00  0.00    +0.003 C 
ATOM      8  C   UNL     1       0.390  -1.722  -1.684  0.00  0.00    +0.006 C 
ATOM      9  C   UNL     1       1.222  -2.552  -0.679  0.00  0.00    +0.024 C 
ATOM     10  C   UNL     1       1.947  -1.489   0.202  0.00  0.00    +0.106 C 
ATOM     11  C   UNL     1       2.189  -0.329  -0.854  0.00  0.00    +0.028 C 
ATOM     12  C   UNL     1       0.842  -0.848   1.055  0.00  0.00    +0.154 C 
ATOM     13  O   UNL     1       0.669  -0.973   2.244  0.00  0.00    -0.296 OA
ATOM     14  C   UNL     1      -1.434  -0.595   0.040  0.00  0.00    +0.019 C 
ENDBRANCH   1  10
BRANCH   3  15
ATOM     15  C   UNL     1       4.154  -3.335   2.624  0.00  0.00    +0.034 A 
ATOM     16  C   UNL     1       5.085  -2.375   3.010  0.00  0.00    +0.025 A 
ATOM     17  C   UNL     1       6.174  -2.737   3.770  0.00  0.00    +0.031 A 
ATOM     18  C   UNL     1       6.345  -4.071   4.154  0.00  0.00    +0.086 A 
ATOM     19  C   UNL     1       5.407  -5.033   3.763  0.00  0.00    +0.031 A 
ATOM     20  C   UNL     1       4.317  -4.662   3.008  0.00  0.00    +0.025 A 
BRANCH  18  21
ATOM     21  N   UNL     1       7.424  -4.434   4.907  0.00  0.00    -0.149 NA
ATOM     22  N   UNL     1       7.580  -5.665   5.259  0.00  0.00    -0.149 NA
BRANCH  22  23
ATOM     23  C   UNL     1       8.661  -6.028   6.013  0.00  0.00    +0.086 A 
ATOM     24  C   UNL     1       9.596  -5.068   6.409  0.00  0.00    +0.029 A 
ATOM     25  C   UNL     1      10.684  -5.442   7.170  0.00  0.00    +0.002 A 
ATOM     26  C   UNL     1      10.851  -6.764   7.541  0.00  0.00    +0.000 A 
ATOM     27  C   UNL     1       9.929  -7.721   7.153  0.00  0.00    +0.002 A 
ATOM     28  C   UNL     1       8.833  -7.361   6.397  0.00  0.00    +0.029 A 
ENDBRANCH  22  23
ENDBRANCH  18  21
ENDBRANCH   3  15
TORSDOF 4
