REMARK  Name = ZINC59498433
REMARK  7 active torsions:
REMARK  status: ('A' for Active; 'I' for Inactive)
REMARK    1  A    between atoms: C_1  and  C_2
REMARK    2  A    between atoms: C_7  and  C_8
REMARK    3  A    between atoms: C_11  and  C_24
REMARK    4  A    between atoms: C_11  and  O_25
REMARK    5  A    between atoms: C_12  and  C_17
REMARK    6  A    between atoms: C_14  and  C_16
REMARK    7  A    between atoms: C_17  and  C_18
REMARK                            x       y       z     vdW  Elec       q    Type
REMARK                         _______ _______ _______ _____ _____    ______ ____
ROOT
ATOM      1  C   UNL     1      -0.645  -0.706   2.797  0.00  0.00    +0.269 C 
ATOM      2  O   UNL     1      -0.905   0.471   2.632  0.00  0.00    -0.268 OA
ATOM      3  N   UNL     1      -0.146  -1.126   3.977  0.00  0.00    -0.157 N 
ATOM      4  C   UNL     1       0.050  -0.290   5.173  0.00  0.00    +0.161 C 
ATOM      5  C   UNL     1       0.638  -1.277   6.201  0.00  0.00    +0.091 C 
ATOM      6  C   UNL     1       0.708  -2.586   5.447  0.00  0.00    +0.042 C 
ATOM      7  N   UNL     1       0.265  -2.425   4.267  0.00  0.00    -0.183 NA
ATOM      8  C   UNL     1       1.219  -3.886   6.011  0.00  0.00    +0.063 C 
ATOM      9  C   UNL     1      -1.287   0.269   5.665  0.00  0.00    +0.066 C 
ENDROOT
BRANCH   1  16
ATOM     10  C   UNL     1      -2.692  -0.172   0.823  0.00  0.00    +0.044 C 
ATOM     11  C   UNL     1      -1.862  -1.427   0.747  0.00  0.00    -0.038 A 
ATOM     12  C   UNL     1      -2.070  -2.333  -0.273  0.00  0.00    +0.004 A 
ATOM     13  C   UNL     1      -1.309  -3.486  -0.344  0.00  0.00    +0.000 A 
ATOM     14  C   UNL     1      -0.336  -3.740   0.607  0.00  0.00    +0.001 A 
ATOM     15  C   UNL     1      -0.118  -2.843   1.632  0.00  0.00    +0.013 A 
ATOM     16  C   UNL     1      -0.878  -1.674   1.706  0.00  0.00    +0.042 A 
ENDBRANCH   1  16
BRANCH   4  17
ATOM     17  O   UNL     1       0.972   0.767   4.904  0.00  0.00    -0.369 OA
ATOM     18  H   UNL     1       0.681   1.376   4.211  0.00  0.00    +0.212 HD
ENDBRANCH   4  17
BRANCH   5  19
ATOM     19  C   UNL     1       2.035  -0.830   6.637  0.00  0.00    +0.049 C 
BRANCH  19  20
ATOM     20  C   UNL     1       1.927   0.436   7.447  0.00  0.00    -0.047 A 
ATOM     21  C   UNL     1       2.198   1.658   6.859  0.00  0.00    +0.003 A 
ATOM     22  C   UNL     1       2.099   2.820   7.601  0.00  0.00    +0.000 A 
ATOM     23  C   UNL     1       1.729   2.760   8.932  0.00  0.00    +0.000 A 
ATOM     24  C   UNL     1       1.457   1.539   9.519  0.00  0.00    +0.000 A 
ATOM     25  C   UNL     1       1.551   0.377   8.775  0.00  0.00    +0.003 A 
ENDBRANCH  19  20
ENDBRANCH   5  19
TORSDOF 4
