REMARK  Name = ZINC05433911
REMARK  8 active torsions:
REMARK  status: ('A' for Active; 'I' for Inactive)
REMARK    1  A    between atoms: C_1  and  C_2
REMARK    2  A    between atoms: C_2  and  C_3
REMARK    3  A    between atoms: C_2  and  C_4
REMARK    4  A    between atoms: C_2  and  C_5
REMARK    5  A    between atoms: N_11  and  C_12
REMARK    6  A    between atoms: C_22  and  N_60
REMARK    7  A    between atoms: C_24  and  C_25
REMARK    8  A    between atoms: C_24  and  N_60
REMARK                            x       y       z     vdW  Elec       q    Type
REMARK                         _______ _______ _______ _____ _____    ______ ____
ROOT
ATOM      1  C   UNL     1      -0.519   1.477   5.992  0.00  0.00    +0.130 C 
ATOM      2  C   UNL     1      -0.670  -0.020   5.679  0.00  0.00    +0.185 C 
ATOM      3  O   UNL     1      -0.939  -0.158   4.284  0.00  0.00    -0.374 OA
ATOM      4  C   UNL     1      -0.980   1.117   3.639  0.00  0.00    +0.137 C 
ATOM      5  C   UNL     1      -0.319   2.131   4.611  0.00  0.00    +0.168 C 
ATOM      6  O   UNL     1       1.081   2.107   4.267  0.00  0.00    -0.374 OA
ATOM      7  C   UNL     1       1.114   2.067   2.824  0.00  0.00    +0.147 C 
ATOM      8  C   UNL     1      -0.016   1.091   2.429  0.00  0.00    -0.014 C 
ENDROOT
BRANCH   1  15
ATOM      9  C   UNL     1      -3.094   2.435   9.890  0.00  0.00    +0.052 A 
ATOM     10  C   UNL     1      -2.072   1.930  10.679  0.00  0.00    +0.043 A 
ATOM     11  C   UNL     1      -0.932   1.446  10.057  0.00  0.00    +0.116 A 
ATOM     12  N   UNL     1      -0.853   1.481   8.737  0.00  0.00    -0.223 NA
ATOM     13  C   UNL     1      -1.848   1.971   8.012  0.00  0.00    +0.216 A 
ATOM     14  N   UNL     1      -2.949   2.446   8.576  0.00  0.00    -0.219 NA
ATOM     15  N   UNL     1      -1.731   1.993   6.633  0.00  0.00    -0.306 N 
ATOM     16  H   UNL     1      -2.453   2.349   6.091  0.00  0.00    +0.149 HD
BRANCH   9  18
ATOM     17  C   UNL     1      -4.066   4.342  11.143  0.00  0.00    +0.017 C 
ATOM     18  C   UNL     1      -4.352   2.972  10.523  0.00  0.00    +0.005 C 
ATOM     19  C   UNL     1      -5.440   3.112   9.457  0.00  0.00    +0.017 C 
ATOM     20  C   UNL     1      -4.827   2.008  11.612  0.00  0.00    +0.017 C 
ENDBRANCH   9  18
ENDBRANCH   1  15
BRANCH   8  21
ATOM     21  N   UNL     1      -0.709   1.566   1.217  0.00  0.00    +0.384 N 
ATOM     22  H   UNL     1      -0.723   2.592   1.214  0.00  0.00    -0.085 HD
ATOM     23  H   UNL     1      -1.672   1.210   1.216  0.00  0.00    -0.085 HD
BRANCH  21  24
ATOM     24  C   UNL     1      -0.013   1.086   0.008  0.00  0.00    -0.079 C 
BRANCH  24  25
ATOM     25  C   UNL     1      -0.753   1.593  -1.232  0.00  0.00    -0.028 C 
ATOM     26  C   UNL     1      -2.147   0.964  -1.286  0.00  0.00    +0.002 C 
ATOM     27  C   UNL     1      -2.886   1.471  -2.526  0.00  0.00    +0.000 C 
ATOM     28  C   UNL     1      -2.103   1.083  -3.781  0.00  0.00    +0.000 C 
ATOM     29  C   UNL     1      -0.709   1.712  -3.727  0.00  0.00    +0.000 C 
ATOM     30  C   UNL     1       0.031   1.205  -2.487  0.00  0.00    +0.002 C 
ENDBRANCH  24  25
ENDBRANCH  21  24
ENDBRANCH   8  21
TORSDOF 5
