REMARK  Name = ZINC39659884
REMARK  5 active torsions:
REMARK  status: ('A' for Active; 'I' for Inactive)
REMARK    1  A    between atoms: C_1  and  O_2
REMARK    2  A    between atoms: O_2  and  C_3
REMARK    3  A    between atoms: C_4  and  C_9
REMARK    4  A    between atoms: C_13  and  C_22
REMARK    5  A    between atoms: N_24  and  C_25
REMARK                            x       y       z     vdW  Elec       q    Type
REMARK                         _______ _______ _______ _____ _____    ______ ____
ROOT
ATOM      1  C   UNL     1       2.875  -0.627  -0.164  0.00  0.00    +0.251 C 
ATOM      2  O   UNL     1       2.197  -0.817   0.828  0.00  0.00    -0.270 OA
ATOM      3  N   UNL     1       4.159  -1.036  -0.192  0.00  0.00    -0.296 N 
ATOM      4  C   UNL     1       4.888  -1.810   0.839  0.00  0.00    +0.121 C 
ATOM      5  C   UNL     1       5.767  -2.797   0.038  0.00  0.00    +0.100 C 
ATOM      6  C   UNL     1       5.943  -2.136  -1.339  0.00  0.00    -0.004 C 
ATOM      7  C   UNL     1       5.158  -0.818  -1.265  0.00  0.00    +0.115 C 
ATOM      8  C   UNL     1       5.362  -3.028  -2.432  0.00  0.00    -0.010 C 
ATOM      9  C   UNL     1       5.601  -2.377  -3.797  0.00  0.00    -0.082 C 
ATOM     10  N   UNL     1       7.041  -2.187  -4.006  0.00  0.00    +0.379 N 
ATOM     11  C   UNL     1       7.574  -1.254  -3.006  0.00  0.00    -0.082 C 
ATOM     12  C   UNL     1       7.419  -1.858  -1.607  0.00  0.00    -0.010 C 
ATOM     13  H   UNL     1       7.512  -3.075  -3.920  0.00  0.00    -0.086 HD
ATOM     14  H   UNL     1       7.199  -1.814  -4.930  0.00  0.00    -0.086 HD
ENDROOT
BRANCH   1  16
ATOM     15  C   UNL     1       0.911  -0.145  -1.709  0.00  0.00    +0.158 A 
ATOM     16  C   UNL     1       2.293   0.050  -1.333  0.00  0.00    +0.087 A 
ATOM     17  C   UNL     1       3.039   0.899  -2.121  0.00  0.00    +0.063 A 
ATOM     18  S   UNL     1       1.966   1.416  -3.303  0.00  0.00    -0.081 S 
ATOM     19  C   UNL     1       0.504   0.532  -2.807  0.00  0.00    +0.120 A 
ATOM     20 CL   UNL     1      -1.065   0.538  -3.550  0.00  0.00    -0.072 Cl
BRANCH  15  22
ATOM     21  C   UNL     1       0.021  -2.331  -1.408  0.00  0.00    +0.277 C 
ATOM     22  O   UNL     1       0.076  -0.960  -1.008  0.00  0.00    -0.492 OA
ENDBRANCH  15  22
ENDBRANCH   1  16
BRANCH   5  23
ATOM     23  C   UNL     1       5.071  -4.126  -0.100  0.00  0.00    +0.218 C 
ATOM     24  O   UNL     1       3.864  -4.170  -0.218  0.00  0.00    -0.275 OA
ATOM     25  N   UNL     1       5.789  -5.267  -0.093  0.00  0.00    -0.312 N 
ATOM     26  H   UNL     1       6.753  -5.232   0.001  0.00  0.00    +0.149 HD
BRANCH  25  27
ATOM     27  C   UNL     1       5.112  -6.559  -0.228  0.00  0.00    +0.073 C 
ATOM     28  C   UNL     1       4.901  -6.872  -1.711  0.00  0.00    +0.022 C 
ATOM     29  C   UNL     1       4.571  -8.357  -1.876  0.00  0.00    +0.002 C 
ATOM     30  C   UNL     1       3.122  -8.608  -1.452  0.00  0.00    +0.000 C 
ATOM     31  C   UNL     1       3.028  -8.591   0.075  0.00  0.00    +0.000 C 
ATOM     32  C   UNL     1       4.192  -9.388   0.667  0.00  0.00    +0.000 C 
ATOM     33  C   UNL     1       5.131  -8.440   1.416  0.00  0.00    +0.002 C 
ATOM     34  C   UNL     1       5.971  -7.653   0.408  0.00  0.00    +0.022 C 
ENDBRANCH  25  27
ENDBRANCH   5  23
TORSDOF 4
