REMARK  Name = ZINC67651700
REMARK  7 active torsions:
REMARK  status: ('A' for Active; 'I' for Inactive)
REMARK    1  A    between atoms: C_1  and  S_2
REMARK    2  A    between atoms: S_2  and  C_3
REMARK    3  A    between atoms: C_6  and  C_8
REMARK    4  A    between atoms: C_8  and  O_9
REMARK    5  A    between atoms: O_9  and  C_10
REMARK    6  A    between atoms: C_13  and  C_16
REMARK    7  A    between atoms: C_19  and  C_22
REMARK                            x       y       z     vdW  Elec       q    Type
REMARK                         _______ _______ _______ _____ _____    ______ ____
ROOT
ATOM      1  C   UNL     1      -7.029  -3.190  -1.466  0.00  0.00    +0.121 A 
ATOM      2  C   UNL     1      -7.748  -3.617  -0.357  0.00  0.00    +0.046 A 
ATOM      3  C   UNL     1      -8.924  -4.317  -0.525  0.00  0.00    +0.012 A 
ATOM      4  C   UNL     1      -9.391  -4.596  -1.809  0.00  0.00    -0.018 A 
ATOM      5  C   UNL     1      -8.666  -4.166  -2.920  0.00  0.00    +0.012 A 
ATOM      6  C   UNL     1      -7.493  -3.462  -2.746  0.00  0.00    +0.046 A 
ENDROOT
BRANCH   4   7
ATOM      7  C   UNL     1     -10.654  -5.349  -1.993  0.00  0.00    -0.018 A 
ATOM      8  C   UNL     1     -11.381  -5.774  -0.880  0.00  0.00    +0.010 A 
ATOM      9  C   UNL     1     -12.554  -6.474  -1.049  0.00  0.00    +0.019 A 
ATOM     10  C   UNL     1     -13.018  -6.758  -2.337  0.00  0.00    +0.052 A 
ATOM     11  C   UNL     1     -12.289  -6.331  -3.451  0.00  0.00    +0.019 A 
ATOM     12  C   UNL     1     -11.119  -5.628  -3.279  0.00  0.00    +0.010 A 
BRANCH  10  13
ATOM     13  C   UNL     1     -14.238  -7.486  -2.514  0.00  0.00    +0.099 C 
ATOM     14  N   UNL     1     -15.206  -8.064  -2.655  0.00  0.00    -0.191 NA
ENDBRANCH  10  13
ENDBRANCH   4   7
BRANCH   1  15
ATOM     15  O   UNL     1      -5.871  -2.500  -1.297  0.00  0.00    -0.485 OA
BRANCH  15  16
ATOM     16  C   UNL     1      -5.451  -2.256   0.047  0.00  0.00    +0.293 C 
BRANCH  16  20
ATOM     17  C   UNL     1      -1.702  -0.454   0.016  0.00  0.00    +0.158 A 
ATOM     18  N   UNL     1      -2.786   0.311   0.025  0.00  0.00    -0.135 NA
ATOM     19  N   UNL     1      -3.947  -0.183   0.034  0.00  0.00    -0.142 NA
ATOM     20  C   UNL     1      -4.157  -1.484   0.036  0.00  0.00    +0.140 A 
ATOM     21  S   UNL     1      -2.466  -2.073   0.015  0.00  0.00    -0.041 S 
BRANCH  17  23
ATOM     22  C   UNL     1      -0.022   1.810   0.012  0.00  0.00    +0.092 C 
ATOM     23  S   UNL     1       0.002  -0.004   0.002  0.00  0.00    -0.100 S 
ENDBRANCH  17  23
ENDBRANCH  16  20
ENDBRANCH  15  16
ENDBRANCH   1  15
TORSDOF 6
