REMARK  Name = ZINC16178009
REMARK  8 active torsions:
REMARK  status: ('A' for Active; 'I' for Inactive)
REMARK    1  A    between atoms: C_1  and  N_2
REMARK    2  A    between atoms: N_2  and  C_3
REMARK    3  A    between atoms: N_2  and  S_4
REMARK    4  A    between atoms: S_4  and  C_7
REMARK    5  A    between atoms: C_11  and  C_13
REMARK    6  A    between atoms: N_15  and  N_16
REMARK    7  A    between atoms: C_17  and  C_19
REMARK    8  A    between atoms: C_22  and  C_24
REMARK                            x       y       z     vdW  Elec       q    Type
REMARK                         _______ _______ _______ _____ _____    ______ ____
ROOT
ATOM      1  C   UNL     1      -2.392   0.960   0.019  0.00  0.00    +0.260 C 
ATOM      2  O   UNL     1      -2.375  -0.255   0.012  0.00  0.00    -0.269 OA
ATOM      3  N   UNL     1      -1.234   1.650   0.017  0.00  0.00    -0.230 N 
ATOM      4  H   UNL     1      -1.247   2.620   0.022  0.00  0.00    +0.173 HD
ENDROOT
BRANCH   1   9
ATOM      5  C   UNL     1      -6.083   1.650   0.040  0.00  0.00    +0.106 A 
ATOM      6  C   UNL     1      -6.099   3.034   0.049  0.00  0.00    +0.028 A 
ATOM      7  C   UNL     1      -4.912   3.745   0.048  0.00  0.00    +0.003 A 
ATOM      8  C   UNL     1      -3.704   3.077   0.042  0.00  0.00    +0.013 A 
ATOM      9  C   UNL     1      -3.682   1.682   0.029  0.00  0.00    +0.040 A 
ATOM     10  C   UNL     1      -4.883   0.971   0.030  0.00  0.00    +0.041 A 
BRANCH   5  11
ATOM     11  S   UNL     1      -7.601   0.754   0.043  0.00  0.00    +0.060 S 
ATOM     12  O   UNL     1      -8.586   1.623  -0.498  0.00  0.00    -0.153 OA
ATOM     13  O   UNL     1      -7.320  -0.521  -0.517  0.00  0.00    -0.153 OA
BRANCH  11  15
ATOM     14  C   UNL     1      -8.843   1.474   2.335  0.00  0.00    +0.131 C 
ATOM     15  N   UNL     1      -8.014   0.496   1.625  0.00  0.00    -0.183 NA
ATOM     16  C   UNL     1      -7.553  -0.711   2.316  0.00  0.00    +0.131 C 
ENDBRANCH  11  15
ENDBRANCH   5  11
ENDBRANCH   1   9
BRANCH   3  17
ATOM     17  N   UNL     1      -0.011   0.966   0.007  0.00  0.00    -0.230 N 
ATOM     18  C   UNL     1       1.147   1.655   0.000  0.00  0.00    +0.267 C 
ATOM     19  O   UNL     1       1.130   2.873   0.007  0.00  0.00    -0.268 OA
ATOM     20  H   UNL     1       0.002  -0.004   0.002  0.00  0.00    +0.173 HD
BRANCH  18  21
ATOM     21  C   UNL     1       2.425   0.941  -0.016  0.00  0.00    +0.076 A 
ATOM     22  C   UNL     1       3.713   1.457  -0.031  0.00  0.00    +0.021 A 
ATOM     23  C   UNL     1       4.768   0.588  -0.040  0.00  0.00    +0.017 A 
ATOM     24  C   UNL     1       4.511  -0.773  -0.045  0.00  0.00    +0.020 A 
ATOM     25  S   UNL     1       2.726  -0.819  -0.029  0.00  0.00    -0.084 S 
BRANCH  24  26
ATOM     26  C   UNL     1       5.468  -1.898  -0.060  0.00  0.00    -0.011 A 
ATOM     27  C   UNL     1       6.842  -1.650  -0.077  0.00  0.00    +0.010 A 
ATOM     28  C   UNL     1       7.731  -2.704  -0.087  0.00  0.00    +0.020 A 
ATOM     29  C   UNL     1       7.263  -4.008  -0.089  0.00  0.00    +0.041 A 
ATOM     30  C   UNL     1       5.901  -4.261  -0.078  0.00  0.00    +0.020 A 
ATOM     31  C   UNL     1       5.003  -3.215  -0.064  0.00  0.00    +0.010 A 
ATOM     32 CL   UNL     1       8.388  -5.330  -0.108  0.00  0.00    -0.084 Cl
ENDBRANCH  24  26
ENDBRANCH  18  21
ENDBRANCH   3  17
TORSDOF 6
