REMARK  Name = ZINC49036913
REMARK  9 active torsions:
REMARK  status: ('A' for Active; 'I' for Inactive)
REMARK    1  A    between atoms: C_1  and  C_2
REMARK    2  A    between atoms: C_2  and  O_3
REMARK    3  A    between atoms: O_3  and  C_4
REMARK    4  A    between atoms: C_4  and  C_6
REMARK    5  A    between atoms: N_8  and  C_31
REMARK    6  A    between atoms: C_11  and  N_17
REMARK    7  A    between atoms: C_12  and  N_16
REMARK    8  A    between atoms: N_24  and  O_25
REMARK    9  A    between atoms: C_26  and  C_30
REMARK                            x       y       z     vdW  Elec       q    Type
REMARK                         _______ _______ _______ _____ _____    ______ ____
ROOT
ATOM      1  C   UNL     1      -4.255  -0.466  -0.149  0.00  0.00    +0.055 C 
ATOM      2  C   UNL     1      -4.060  -1.796  -0.126  0.00  0.00    +0.086 C 
ATOM      3  N   UNL     1      -5.111  -2.665  -0.102  0.00  0.00    -0.303 N 
ATOM      4  C   UNL     1      -6.388  -2.228  -0.472  0.00  0.00    +0.039 A 
ATOM      5  C   UNL     1      -7.366  -3.157  -0.804  0.00  0.00    +0.048 A 
ATOM      6  C   UNL     1      -8.630  -2.729  -1.176  0.00  0.00    +0.053 A 
ATOM      7  C   UNL     1      -8.915  -1.364  -1.214  0.00  0.00    +0.046 A 
ATOM      8  C   UNL     1      -7.937  -0.442  -0.880  0.00  0.00    +0.030 A 
ATOM      9  C   UNL     1      -6.674  -0.871  -0.507  0.00  0.00    -0.020 A 
ATOM     10  C   UNL     1      -5.625   0.143  -0.132  0.00  0.00    +0.080 C 
ENDROOT
BRANCH   6  11
ATOM     11  N   UNL     1      -9.618  -3.663  -1.511  0.00  0.00    -0.324 N 
ATOM     12  C   UNL     1      -9.790  -4.138  -2.896  0.00  0.00    +0.110 C 
ATOM     13  C   UNL     1      -9.496  -5.635  -2.897  0.00  0.00    +0.061 C 
ATOM     14  C   UNL     1     -10.218  -6.338  -1.775  0.00  0.00    -0.007 C 
ATOM     15  C   UNL     1     -10.668  -5.711  -0.679  0.00  0.00    +0.004 C 
ATOM     16  C   UNL     1     -10.522  -4.216  -0.503  0.00  0.00    +0.143 C 
ATOM     17  C   UNL     1     -11.302  -6.383   0.392  0.00  0.00    +0.089 C 
ATOM     18  N   UNL     1     -11.647  -5.652   1.409  0.00  0.00    -0.091 NA
ATOM     19  C   UNL     1     -11.617  -7.835   0.481  0.00  0.00    +0.048 C 
ATOM     20  C   UNL     1     -10.542  -8.662  -0.232  0.00  0.00    +0.083 C 
ATOM     21  S   UNL     1     -10.464  -8.084  -1.954  0.00  0.00    -0.128 S 
ATOM     22  C   UNL     1     -11.674  -8.251   1.953  0.00  0.00    +0.015 C 
BRANCH  18  23
ATOM     23  O   UNL     1     -12.451  -6.204   2.436  0.00  0.00    -0.409 OA
ATOM     24  H   UNL     1     -12.656  -5.585   3.151  0.00  0.00    +0.328 HD
ENDBRANCH  18  23
ENDBRANCH   6  11
BRANCH   7  25
ATOM     25  N   UNL     1     -10.193  -0.925  -1.591  0.00  0.00    -0.357 N 
ATOM     26  H   UNL     1     -10.878  -1.570  -1.826  0.00  0.00    +0.142 HD
ATOM     27  H   UNL     1     -10.391   0.025  -1.618  0.00  0.00    +0.142 HD
ENDBRANCH   7  25
BRANCH   3  28
ATOM     28  C   UNL     1      -4.903  -4.054   0.312  0.00  0.00    +0.079 C 
ATOM     29  C   UNL     1      -3.537  -4.421   0.895  0.00  0.00    +0.024 C 
ATOM     30  C   UNL     1      -3.923  -4.896  -0.507  0.00  0.00    +0.024 C 
ENDBRANCH   3  28
BRANCH   1  31
ATOM     31  C   UNL     1      -3.131   0.386  -0.185  0.00  0.00    +0.337 C 
ATOM     32  O   UNL     1      -2.009  -0.086  -0.200  0.00  0.00    -0.245 OA
BRANCH  31  33
ATOM     33  O   UNL     1      -3.300   1.725  -0.204  0.00  0.00    -0.462 OA
BRANCH  33  35
ATOM     34  C   UNL     1      -2.506   4.008  -0.256  0.00  0.00    +0.048 C 
ATOM     35  C   UNL     1      -2.118   2.528  -0.240  0.00  0.00    +0.229 C 
ENDBRANCH  33  35
ENDBRANCH  31  33
ENDBRANCH   1  31
TORSDOF 7
