REMARK  Name = ZINC56375107
REMARK  3 active torsions:
REMARK  status: ('A' for Active; 'I' for Inactive)
REMARK    1  A    between atoms: C_1  and  N_2
REMARK    2  A    between atoms: N_5  and  N_6
REMARK    3  A    between atoms: C_7  and  C_9
REMARK                            x       y       z     vdW  Elec       q    Type
REMARK                         _______ _______ _______ _____ _____    ______ ____
ROOT
ATOM      1  N   UNL     1       0.085  -2.725  -0.013  0.00  0.00    -0.229 N 
ATOM      2  C   UNL     1       0.103  -4.073  -0.021  0.00  0.00    +0.267 C 
ATOM      3  O   UNL     1      -0.942  -4.696  -0.014  0.00  0.00    -0.268 OA
ATOM      4  H   UNL     1       0.918  -2.229  -0.019  0.00  0.00    +0.173 HD
ENDROOT
BRANCH   2   5
ATOM      5  C   UNL     1       1.386  -4.790  -0.037  0.00  0.00    +0.077 A 
ATOM      6  C   UNL     1       1.606  -6.132  -0.052  0.00  0.00    +0.032 A 
ATOM      7  C   UNL     1       2.922  -6.627  -0.066  0.00  0.00    +0.025 A 
ATOM      8  C   UNL     1       3.352  -7.981  -0.082  0.00  0.00    +0.132 A 
ATOM      9  C   UNL     1       4.686  -8.289  -0.093  0.00  0.00    +0.039 A 
ATOM     10  C   UNL     1       5.659  -7.297  -0.090  0.00  0.00    +0.004 A 
ATOM     11  C   UNL     1       5.279  -5.971  -0.075  0.00  0.00    +0.016 A 
ATOM     12  C   UNL     1       3.940  -5.644  -0.063  0.00  0.00    +0.023 A 
ATOM     13  S   UNL     1       3.037  -4.115  -0.050  0.00  0.00    -0.084 S 
ATOM     14  F   UNL     1       2.435  -8.974  -0.085  0.00  0.00    -0.205 F 
ENDBRANCH   2   5
BRANCH   1  19
ATOM     15  C   UNL     1      -0.018   1.461   0.010  0.00  0.00    +0.129 C 
ATOM     16  N   UNL     1       0.002  -0.004   0.002  0.00  0.00    -0.301 N 
ATOM     17  C   UNL     1      -1.156  -0.694   0.009  0.00  0.00    +0.316 C 
ATOM     18  O   UNL     1      -2.217  -0.100   0.023  0.00  0.00    -0.251 OA
ATOM     19  N   UNL     1      -1.137  -2.041   0.002  0.00  0.00    -0.218 N 
ATOM     20  H   UNL     1       0.849  -0.478  -0.009  0.00  0.00    +0.150 HD
ATOM     21  H   UNL     1      -1.971  -2.538   0.007  0.00  0.00    +0.174 HD
ENDBRANCH   1  19
TORSDOF 2
