REMARK  Name = ZINC66129289
REMARK  4 active torsions:
REMARK  status: ('A' for Active; 'I' for Inactive)
REMARK    1  A    between atoms: C_1  and  C_2
REMARK    2  A    between atoms: C_2  and  C_3
REMARK    3  A    between atoms: C_3  and  C_4
REMARK    4  A    between atoms: C_4  and  N_5
REMARK                            x       y       z     vdW  Elec       q    Type
REMARK                         _______ _______ _______ _____ _____    ______ ____
ROOT
ATOM      1  N   UNL     1       1.524  -2.493  -2.403  0.00  0.00    -0.276 N 
ATOM      2  C   UNL     1       0.881  -2.671  -3.584  0.00  0.00    +0.250 C 
ATOM      3  O   UNL     1      -0.208  -2.171  -3.767  0.00  0.00    -0.270 OA
ATOM      4  C   UNL     1       1.503  -3.518  -4.617  0.00  0.00    +0.058 A 
ATOM      5  C   UNL     1       0.957  -3.645  -5.892  0.00  0.00    +0.015 A 
ATOM      6  C   UNL     1       1.581  -4.452  -6.821  0.00  0.00    +0.001 A 
ATOM      7  C   UNL     1       2.744  -5.132  -6.495  0.00  0.00    +0.002 A 
ATOM      8  C   UNL     1       3.297  -5.016  -5.234  0.00  0.00    +0.024 A 
ATOM      9  C   UNL     1       2.681  -4.214  -4.290  0.00  0.00    +0.041 A 
ATOM     10  N   UNL     1       3.181  -4.071  -3.002  0.00  0.00    -0.323 N 
ATOM     11  C   UNL     1       2.956  -2.771  -2.318  0.00  0.00    +0.102 C 
ATOM     12  C   UNL     1       3.472  -2.912  -0.898  0.00  0.00    +0.046 C 
ATOM     13  C   UNL     1       3.631  -1.591  -0.159  0.00  0.00    +0.004 C 
ATOM     14  C   UNL     1       4.480  -0.621  -0.986  0.00  0.00    +0.000 C 
ATOM     15  C   UNL     1       3.791  -0.395  -2.333  0.00  0.00    +0.004 C 
ATOM     16  C   UNL     1       3.742  -1.716  -3.097  0.00  0.00    +0.046 C 
ATOM     17  H   UNL     1       3.659  -4.777  -2.556  0.00  0.00    +0.148 HD
ENDROOT
BRANCH   1  18
ATOM     18  C   UNL     1       0.739  -2.027  -1.265  0.00  0.00    +0.110 C 
BRANCH  18  19
ATOM     19  C   UNL     1       0.246  -3.230  -0.459  0.00  0.00    +0.019 C 
BRANCH  19  21
ATOM     20  C   UNL     1      -0.960  -3.944   1.610  0.00  0.00    +0.004 C 
ATOM     21  C   UNL     1      -0.467  -2.741   0.804  0.00  0.00    -0.002 C 
ENDBRANCH  19  21
ENDBRANCH  18  19
ENDBRANCH   1  18
TORSDOF 3
