REMARK  Name = ZINC43732317
REMARK  15 active torsions:
REMARK  status: ('A' for Active; 'I' for Inactive)
REMARK    1  A    between atoms: C_1  and  C_2
REMARK    2  A    between atoms: N_9  and  C_12
REMARK    3  A    between atoms: C_14  and  O_36
REMARK    4  A    between atoms: C_16  and  O_32
REMARK    5  A    between atoms: C_18  and  O_28
REMARK    6  A    between atoms: C_20  and  C_23
REMARK    7  A    between atoms: C_23  and  O_24
REMARK    8  A    between atoms: O_24  and  C_25
REMARK    9  A    between atoms: C_25  and  C_27
REMARK   10  A    between atoms: O_28  and  C_29
REMARK   11  A    between atoms: C_29  and  C_31
REMARK   12  A    between atoms: O_32  and  C_33
REMARK   13  A    between atoms: C_33  and  C_35
REMARK   14  A    between atoms: O_36  and  C_37
REMARK   15  A    between atoms: C_37  and  C_39
REMARK                            x       y       z     vdW  Elec       q    Type
REMARK                         _______ _______ _______ _____ _____    ______ ____
ROOT
ATOM      1  C   UNL     1       0.051  -2.820   2.397  0.00  0.00    +0.271 C 
ATOM      2  C   UNL     1      -1.294  -3.524   2.587  0.00  0.00    +0.270 C 
ATOM      3  C   UNL     1      -1.503  -4.527   1.448  0.00  0.00    +0.264 C 
ATOM      4  C   UNL     1      -0.329  -5.511   1.427  0.00  0.00    +0.253 C 
ATOM      5  C   UNL     1       0.979  -4.730   1.282  0.00  0.00    +0.203 C 
ATOM      6  O   UNL     1       1.096  -3.794   2.356  0.00  0.00    -0.342 OA
ENDROOT
BRANCH   1  15
ATOM      7  C   UNL     1      -2.377  -1.244  -1.604  0.00  0.00    +0.054 C 
ATOM      8  C   UNL     1      -1.124  -1.316  -0.769  0.00  0.00    +0.067 A 
ATOM      9  C   UNL     1       0.052  -0.659  -1.186  0.00  0.00    +0.260 A 
ATOM     10  O   UNL     1       0.066  -0.026  -2.227  0.00  0.00    -0.267 OA
ATOM     11  N   UNL     1       1.161  -0.736  -0.424  0.00  0.00    -0.275 N 
ATOM     12  H   UNL     1       1.973  -0.286  -0.706  0.00  0.00    +0.173 HD
ATOM     13  C   UNL     1       1.149  -1.434   0.727  0.00  0.00    +0.334 A 
ATOM     14  O   UNL     1       2.157  -1.494   1.403  0.00  0.00    -0.246 OA
ATOM     15  N   UNL     1       0.035  -2.067   1.140  0.00  0.00    -0.239 N 
ATOM     16  C   UNL     1      -1.114  -2.009   0.397  0.00  0.00    +0.208 A 
ATOM     17  F   UNL     1      -2.230  -2.642   0.821  0.00  0.00    -0.185 F 
ENDBRANCH   1  15
BRANCH   5  18
ATOM     18  C   UNL     1       2.161  -5.701   1.320  0.00  0.00    +0.267 C 
BRANCH  18  19
ATOM     19  O   UNL     1       3.373  -4.987   1.068  0.00  0.00    -0.462 OA
BRANCH  19  20
ATOM     20  C   UNL     1       4.511  -5.700   1.067  0.00  0.00    +0.304 C 
ATOM     21  O   UNL     1       4.478  -6.890   1.274  0.00  0.00    -0.251 OA
ATOM     22  C   UNL     1       5.828  -5.015   0.809  0.00  0.00    +0.136 C 
ENDBRANCH  19  20
ENDBRANCH  18  19
ENDBRANCH   5  18
BRANCH   4  23
ATOM     23  O   UNL     1      -0.477  -6.407   0.324  0.00  0.00    -0.455 OA
BRANCH  23  24
ATOM     24  C   UNL     1       0.031  -7.641   0.469  0.00  0.00    +0.304 C 
ATOM     25  O   UNL     1       0.582  -7.950   1.499  0.00  0.00    -0.251 OA
ATOM     26  C   UNL     1      -0.087  -8.642  -0.652  0.00  0.00    +0.136 C 
ENDBRANCH  23  24
ENDBRANCH   4  23
BRANCH   3  27
ATOM     27  O   UNL     1      -2.723  -5.240   1.656  0.00  0.00    -0.454 OA
BRANCH  27  28
ATOM     28  C   UNL     1      -3.376  -5.664   0.562  0.00  0.00    +0.304 C 
ATOM     29  O   UNL     1      -2.925  -5.438  -0.536  0.00  0.00    -0.251 OA
ATOM     30  C   UNL     1      -4.670  -6.423   0.703  0.00  0.00    +0.136 C 
ENDBRANCH  27  28
ENDBRANCH   3  27
BRANCH   2  31
ATOM     31  O   UNL     1      -2.346  -2.557   2.572  0.00  0.00    -0.453 OA
BRANCH  31  32
ATOM     32  C   UNL     1      -2.694  -2.017   3.750  0.00  0.00    +0.304 C 
ATOM     33  O   UNL     1      -2.124  -2.354   4.761  0.00  0.00    -0.251 OA
ATOM     34  C   UNL     1      -3.795  -0.990   3.813  0.00  0.00    +0.136 C 
ENDBRANCH  31  32
ENDBRANCH   2  31
TORSDOF 10
