REMARK  Name = ZINC35907978
REMARK  7 active torsions:
REMARK  status: ('A' for Active; 'I' for Inactive)
REMARK    1  A    between atoms: C_1  and  C_2
REMARK    2  A    between atoms: C_2  and  C_3
REMARK    3  A    between atoms: C_2  and  C_4
REMARK    4  A    between atoms: C_4  and  N_5
REMARK    5  A    between atoms: C_6  and  C_8
REMARK    6  A    between atoms: C_13  and  C_30
REMARK    7  A    between atoms: N_21  and  C_24
REMARK                            x       y       z     vdW  Elec       q    Type
REMARK                         _______ _______ _______ _____ _____    ______ ____
ROOT
ATOM      1  C   UNL     1      -0.315  -0.103   4.898  0.00  0.00    +0.098 C 
ATOM      2  C   UNL     1      -0.445   1.418   4.969  0.00  0.00    +0.051 C 
ATOM      3  C   UNL     1       0.919   2.029   5.160  0.00  0.00    -0.025 A 
ATOM      4  C   UNL     1       1.145   3.326   4.734  0.00  0.00    +0.017 A 
ATOM      5  C   UNL     1       2.390   3.903   4.896  0.00  0.00    +0.055 A 
ATOM      6  C   UNL     1       3.416   3.186   5.485  0.00  0.00    +0.014 A 
ATOM      7  C   UNL     1       3.196   1.893   5.915  0.00  0.00    +0.024 A 
ATOM      8  C   UNL     1       1.942   1.311   5.755  0.00  0.00    +0.033 A 
ATOM      9  N   UNL     1       1.746  -0.002   6.213  0.00  0.00    -0.329 N 
ATOM     10  C   UNL     1       0.426  -0.610   6.140  0.00  0.00    +0.069 C 
ATOM     11  C   UNL     1       0.461  -2.130   6.106  0.00  0.00    -0.055 C 
ATOM     12  N   UNL     1       1.497  -2.672   6.984  0.00  0.00    +0.384 N 
ATOM     13  C   UNL     1       2.810  -2.198   6.521  0.00  0.00    -0.059 C 
ATOM     14  C   UNL     1       2.902  -0.697   6.784  0.00  0.00    +0.087 C 
ATOM     15  H   UNL     1       1.338  -2.357   7.929  0.00  0.00    -0.081 HD
ENDROOT
BRANCH  12  16
ATOM     16  C   UNL     1       1.460  -4.140   6.941  0.00  0.00    -0.068 C 
ATOM     17  C   UNL     1       2.545  -4.705   7.860  0.00  0.00    -0.015 C 
ATOM     18  C   UNL     1       2.507  -6.234   7.814  0.00  0.00    -0.002 C 
ATOM     19  C   UNL     1       1.135  -6.724   8.282  0.00  0.00    -0.000 C 
ATOM     20  C   UNL     1       0.050  -6.159   7.363  0.00  0.00    -0.002 C 
ATOM     21  C   UNL     1       0.088  -4.630   7.409  0.00  0.00    -0.015 C 
ENDBRANCH  12  16
BRANCH   1  23
ATOM     22  N   UNL     1      -0.008  -0.140   2.444  0.00  0.00    -0.315 N 
ATOM     23  C   UNL     1       0.457  -0.484   3.661  0.00  0.00    +0.218 C 
ATOM     24  O   UNL     1       1.496  -1.101   3.761  0.00  0.00    -0.275 OA
ATOM     25  H   UNL     1      -0.840   0.353   2.364  0.00  0.00    +0.149 HD
BRANCH  22  26
ATOM     26  C   UNL     1       0.742  -0.511   1.242  0.00  0.00    +0.107 C 
BRANCH  26  28
ATOM     27  C   UNL     1      -0.019   1.526   0.010  0.00  0.00    +0.009 C 
ATOM     28  C   UNL     1       0.002  -0.004   0.002  0.00  0.00    -0.000 C 
ATOM     29  C   UNL     1       0.718  -0.497  -1.257  0.00  0.00    +0.009 C 
ENDBRANCH  26  28
ENDBRANCH  22  26
ENDBRANCH   1  23
BRANCH   5  30
ATOM     30  C   UNL     1       2.632   5.316   4.429  0.00  0.00    +0.417 C 
ATOM     31  F   UNL     1       2.343   6.206   5.468  0.00  0.00    -0.166 F 
ATOM     32  F   UNL     1       3.971   5.459   4.050  0.00  0.00    -0.166 F 
ATOM     33  F   UNL     1       1.806   5.593   3.334  0.00  0.00    -0.166 F 
ENDBRANCH   5  30
TORSDOF 5
