REMARK  Name = ZINC32485608
REMARK  11 active torsions:
REMARK  status: ('A' for Active; 'I' for Inactive)
REMARK    1  A    between atoms: C_1  and  O_2
REMARK    2  A    between atoms: O_2  and  C_3
REMARK    3  A    between atoms: C_6  and  C_9
REMARK    4  A    between atoms: C_9  and  C_11
REMARK    5  A    between atoms: C_9  and  N_28
REMARK    6  A    between atoms: C_11  and  N_12
REMARK    7  A    between atoms: C_13  and  C_15
REMARK    8  A    between atoms: C_15  and  C_16
REMARK    9  A    between atoms: C_16  and  C_17
REMARK   10  A    between atoms: C_17  and  C_18
REMARK   11  A    between atoms: C_20  and  C_23
REMARK                            x       y       z     vdW  Elec       q    Type
REMARK                         _______ _______ _______ _____ _____    ______ ____
ROOT
ATOM      1  C   UNL     1      -0.281  -0.577  -1.432  0.00  0.00    +0.093 C 
ENDROOT
BRANCH   1   2
ATOM      2  N   UNL     1      -0.364  -2.039  -1.396  0.00  0.00    -0.317 N 
ATOM      3  C   UNL     1      -0.701  -2.722  -2.508  0.00  0.00    +0.213 C 
ATOM      4  O   UNL     1      -0.934  -2.127  -3.538  0.00  0.00    -0.276 OA
ATOM      5  H   UNL     1      -0.152  -2.579  -0.461  0.00  0.00    +0.149 HD
BRANCH   3   6
ATOM      6  C   UNL     1      -0.786  -4.226  -2.470  0.00  0.00    +0.096 C 
BRANCH   6   7
ATOM      7  C   UNL     1      -1.183  -4.749  -3.853  0.00  0.00    +0.019 C 
BRANCH   7   8
ATOM      8  C   UNL     1      -1.270  -6.276  -3.815  0.00  0.00    +0.099 C 
BRANCH   8   9
ATOM      9  C   UNL     1      -1.661  -6.791  -5.176  0.00  0.00    +0.228 A 
ATOM     10  N   UNL     1      -0.845  -7.121  -6.146  0.00  0.00    -0.191 NA
ATOM     11  C   UNL     1      -1.638  -7.525  -7.166  0.00  0.00    +0.209 A 
ATOM     12  N   UNL     1      -2.878  -7.416  -6.757  0.00  0.00    -0.056 NA
ATOM     13  O   UNL     1      -2.905  -7.002  -5.617  0.00  0.00    -0.338 OA
BRANCH  11  14
ATOM     14  C   UNL     1      -1.190  -7.997  -8.492  0.00  0.00    +0.060 A 
ATOM     15  C   UNL     1      -1.941  -8.422  -9.556  0.00  0.00    +0.019 A 
ATOM     16  C   UNL     1      -1.296  -8.818 -10.706  0.00  0.00    +0.008 A 
ATOM     17  C   UNL     1       0.062  -8.786 -10.747  0.00  0.00    +0.046 A 
ATOM     18  S   UNL     1       0.472  -8.172  -9.121  0.00  0.00    -0.093 S 
ENDBRANCH  11  14
ENDBRANCH   8   9
ENDBRANCH   7   8
ENDBRANCH   6   7
ENDBRANCH   3   6
ENDBRANCH   1   2
BRANCH   1  19
ATOM     19  C   UNL     1      -0.050  -0.044  -0.017  0.00  0.00    -0.020 C 
BRANCH  19  20
ATOM     20  N   UNL     1      -1.188  -0.409   0.837  0.00  0.00    +0.385 N 
ATOM     21  C   UNL     1      -0.911  -1.641   1.585  0.00  0.00    -0.078 C 
ATOM     22  C   UNL     1      -2.054  -1.911   2.567  0.00  0.00    -0.019 C 
ATOM     23  C   UNL     1      -3.366  -2.047   1.791  0.00  0.00    -0.004 C 
ATOM     24  C   UNL     1      -3.607  -0.769   0.982  0.00  0.00    -0.019 C 
ATOM     25  C   UNL     1      -2.420  -0.533   0.046  0.00  0.00    -0.078 C 
ATOM     26  H   UNL     1      -1.339   0.401   1.566  0.00  0.00    -0.081 HD
ENDBRANCH  19  20
BRANCH  19  30
ATOM     27  C   UNL     1       0.331   4.211  -0.142  0.00  0.00    +0.120 A 
ATOM     28  C   UNL     1       1.457   3.417   0.021  0.00  0.00    +0.046 A 
ATOM     29  C   UNL     1       1.331   2.042   0.061  0.00  0.00    +0.005 A 
ATOM     30  C   UNL     1       0.085   1.457  -0.061  0.00  0.00    -0.059 A 
ATOM     31  C   UNL     1      -1.038   2.245  -0.228  0.00  0.00    +0.005 A 
ATOM     32  C   UNL     1      -0.919   3.621  -0.263  0.00  0.00    +0.046 A 
BRANCH  27  34
ATOM     33  C   UNL     1      -0.749   6.318  -0.352  0.00  0.00    +0.277 C 
ATOM     34  O   UNL     1       0.453   5.564  -0.182  0.00  0.00    -0.495 OA
ENDBRANCH  27  34
ENDBRANCH  19  30
ENDBRANCH   1  19
TORSDOF 10
