REMARK  Name = ZINC32878841
REMARK  3 active torsions:
REMARK  status: ('A' for Active; 'I' for Inactive)
REMARK    1  A    between atoms: N_13  and  C_17
REMARK    2  A    between atoms: C_17  and  C_18
REMARK    3  A    between atoms: C_31  and  C_33
REMARK                            x       y       z     vdW  Elec       q    Type
REMARK                         _______ _______ _______ _____ _____    ______ ____
ROOT
ATOM      1  C   UNL     1      -0.438   5.973  -0.969  0.00  0.00    +0.238 C 
ATOM      2  O   UNL     1      -0.441   7.185  -0.907  0.00  0.00    -0.273 OA
ATOM      3  N   UNL     1      -0.070   5.245   0.104  0.00  0.00    -0.256 N 
ATOM      4  C   UNL     1      -0.062   3.845   0.047  0.00  0.00    +0.058 A 
ATOM      5  C   UNL     1      -1.249   3.131   0.041  0.00  0.00    +0.025 A 
ATOM      6  C   UNL     1      -1.221   1.748   0.017  0.00  0.00    +0.002 A 
ATOM      7  C   UNL     1      -0.013   1.076   0.008  0.00  0.00    +0.002 A 
ATOM      8  C   UNL     1       1.177   1.781   0.000  0.00  0.00    +0.025 A 
ATOM      9  C   UNL     1       1.157   3.166   0.016  0.00  0.00    +0.055 A 
ATOM     10  N   UNL     1       2.346   3.902  -0.025  0.00  0.00    -0.284 N 
ATOM     11  C   UNL     1       2.556   4.915   0.844  0.00  0.00    +0.219 C 
ATOM     12  O   UNL     1       3.554   5.597   0.746  0.00  0.00    -0.275 OA
ATOM     13  C   UNL     1       1.558   5.205   1.934  0.00  0.00    +0.128 C 
ATOM     14  C   UNL     1       0.328   5.902   1.350  0.00  0.00    +0.194 C 
ATOM     15  H   UNL     1       3.120   3.658  -0.768  0.00  0.00    +0.155 HD
ENDROOT
BRANCH  14  16
ATOM     16  C   UNL     1      -0.824   5.826   2.354  0.00  0.00    +0.409 C 
ATOM     17  F   UNL     1      -0.448   6.460   3.543  0.00  0.00    -0.169 F 
ATOM     18  F   UNL     1      -1.949   6.464   1.821  0.00  0.00    -0.169 F 
ATOM     19  F   UNL     1      -1.127   4.486   2.616  0.00  0.00    -0.169 F 
ENDBRANCH  14  16
BRANCH   1  20
ATOM     20  C   UNL     1      -0.846   5.282  -2.244  0.00  0.00    +0.214 C 
BRANCH  20  33
ATOM     21  C   UNL     1      -3.577   5.881  -7.565  0.00  0.00    +0.001 A 
ATOM     22  C   UNL     1      -4.764   6.535  -7.842  0.00  0.00    +0.004 A 
ATOM     23  C   UNL     1      -5.164   7.598  -7.059  0.00  0.00    +0.046 A 
ATOM     24  C   UNL     1      -4.377   8.015  -5.990  0.00  0.00    +0.126 A 
ATOM     25  C   UNL     1      -3.192   7.356  -5.712  0.00  0.00    +0.027 A 
ATOM     26  C   UNL     1      -2.795   6.290  -6.503  0.00  0.00    +0.010 A 
ATOM     27  C   UNL     1      -2.322   7.775  -4.560  0.00  0.00    +0.144 C 
ATOM     28  C   UNL     1      -2.694   9.176  -4.085  0.00  0.00    +0.081 C 
ATOM     29  C   UNL     1      -4.221   9.250  -3.950  0.00  0.00    +0.232 C 
ATOM     30  O   UNL     1      -4.799   9.069  -5.244  0.00  0.00    -0.492 OA
ATOM     31  C   UNL     1      -2.440   6.781  -3.428  0.00  0.00    +0.252 C 
ATOM     32  O   UNL     1      -3.440   6.492  -2.807  0.00  0.00    -0.272 OA
ATOM     33  N   UNL     1      -1.198   6.286  -3.252  0.00  0.00    -0.215 N 
ATOM     34  C   UNL     1      -0.327   6.821  -4.117  0.00  0.00    +0.310 C 
ATOM     35  O   UNL     1       0.852   6.529  -4.157  0.00  0.00    -0.252 OA
ATOM     36  N   UNL     1      -0.904   7.719  -4.938  0.00  0.00    -0.281 N 
ATOM     37  H   UNL     1      -0.528   8.350  -5.757  0.00  0.00    +0.152 HD
ENDBRANCH  20  33
ENDBRANCH   1  20
TORSDOF 3
