REMARK  Name = ZINC13245169
REMARK  10 active torsions:
REMARK  status: ('A' for Active; 'I' for Inactive)
REMARK    1  A    between atoms: C_1  and  O_2
REMARK    2  A    between atoms: O_2  and  C_3
REMARK    3  A    between atoms: C_6  and  C_9
REMARK    4  A    between atoms: C_12  and  S_18
REMARK    5  A    between atoms: N_13  and  C_14
REMARK    6  A    between atoms: C_14  and  C_15
REMARK    7  A    between atoms: C_15  and  C_16
REMARK    8  A    between atoms: S_18  and  C_19
REMARK    9  A    between atoms: C_19  and  C_20
REMARK   10  A    between atoms: C_29  and  N_31
REMARK                            x       y       z     vdW  Elec       q    Type
REMARK                         _______ _______ _______ _____ _____    ______ ____
ROOT
ATOM      1  C   UNL     1      -2.529   2.832   8.107  0.00  0.00    +0.165 A 
ATOM      2  N   UNL     1      -3.288   3.296   7.141  0.00  0.00    -0.128 NA
ATOM      3  N   UNL     1      -2.806   2.950   6.000  0.00  0.00    -0.122 NA
ATOM      4  C   UNL     1      -1.715   2.238   6.168  0.00  0.00    +0.192 A 
ATOM      5  N   UNL     1      -1.498   2.140   7.514  0.00  0.00    -0.302 N 
ENDROOT
BRANCH   1   9
ATOM      6  C   UNL     1      -3.141   3.369  12.277  0.00  0.00    +0.120 A 
ATOM      7  C   UNL     1      -1.888   3.005  11.802  0.00  0.00    +0.046 A 
ATOM      8  C   UNL     1      -1.685   2.829  10.450  0.00  0.00    +0.015 A 
ATOM      9  C   UNL     1      -2.742   3.019   9.557  0.00  0.00    +0.020 A 
ATOM     10  C   UNL     1      -3.999   3.391  10.038  0.00  0.00    +0.015 A 
ATOM     11  C   UNL     1      -4.194   3.559  11.392  0.00  0.00    +0.046 A 
BRANCH   6  13
ATOM     12  C   UNL     1      -4.650   3.917  14.030  0.00  0.00    +0.277 C 
ATOM     13  O   UNL     1      -3.337   3.542  13.611  0.00  0.00    -0.495 OA
ENDBRANCH   6  13
ENDBRANCH   1   9
BRANCH   5  14
ATOM     14  C   UNL     1      -0.398   1.444   8.185  0.00  0.00    +0.137 C 
BRANCH  14  15
ATOM     15  C   UNL     1       0.806   2.381   8.297  0.00  0.00    +0.147 C 
BRANCH  15  16
ATOM     16  C   UNL     1       1.938   1.664   8.987  0.00  0.00    +0.358 C 
ATOM     17  O   UNL     1       1.796   0.522   9.353  0.00  0.00    -0.246 OA
ATOM     18  O   UNL     1       3.104   2.296   9.196  0.00  0.00    -0.246 OA
ENDBRANCH  15  16
ENDBRANCH  14  15
ENDBRANCH   5  14
BRANCH   4  19
ATOM     19  S   UNL     1      -0.714   1.544   4.896  0.00  0.00    -0.077 S 
BRANCH  19  20
ATOM     20  C   UNL     1      -1.633   2.095   3.437  0.00  0.00    +0.173 C 
BRANCH  20  21
ATOM     21  C   UNL     1      -0.941   1.603   2.192  0.00  0.00    +0.230 C 
ATOM     22  O   UNL     1       0.074   0.945   2.282  0.00  0.00    -0.274 OA
ATOM     23  N   UNL     1      -1.449   1.895   0.978  0.00  0.00    -0.270 N 
ATOM     24  C   UNL     1      -0.868   1.475  -0.299  0.00  0.00    +0.118 C 
ATOM     25  C   UNL     1      -1.801   2.049  -1.378  0.00  0.00    +0.056 C 
ATOM     26  C   UNL     1      -2.877   2.776  -0.603  0.00  0.00    -0.022 A 
ATOM     27  C   UNL     1      -2.611   2.644   0.751  0.00  0.00    +0.040 A 
ATOM     28  C   UNL     1      -3.475   3.236   1.673  0.00  0.00    +0.026 A 
ATOM     29  C   UNL     1      -4.578   3.941   1.238  0.00  0.00    +0.034 A 
ATOM     30  C   UNL     1      -4.835   4.067  -0.114  0.00  0.00    +0.127 A 
ATOM     31  C   UNL     1      -3.983   3.483  -1.033  0.00  0.00    +0.038 A 
BRANCH  30  32
ATOM     32  N   UNL     1      -6.019   4.824  -0.577  0.00  0.00    +0.056 N 
ATOM     33  O   UNL     1      -6.244   4.934  -1.769  0.00  0.00    -0.126 OA
ATOM     34  O   UNL     1      -6.769   5.338   0.234  0.00  0.00    -0.126 OA
ENDBRANCH  30  32
ENDBRANCH  20  21
ENDBRANCH  19  20
ENDBRANCH   4  19
TORSDOF 9
