REMARK  Name = ZINC09103569
REMARK  14 active torsions:
REMARK  status: ('A' for Active; 'I' for Inactive)
REMARK    1  A    between atoms: C_1  and  C_2
REMARK    2  A    between atoms: C_2  and  C_4
REMARK    3  A    between atoms: C_2  and  N_61
REMARK    4  A    between atoms: C_7  and  S_16
REMARK    5  A    between atoms: N_8  and  C_9
REMARK    6  A    between atoms: S_16  and  C_17
REMARK    7  A    between atoms: C_17  and  C_18
REMARK    8  A    between atoms: N_20  and  C_21
REMARK    9  A    between atoms: C_21  and  C_23
REMARK   10  A    between atoms: C_21  and  C_30
REMARK   11  A    between atoms: C_23  and  C_24
REMARK   12  A    between atoms: C_30  and  C_32
REMARK   13  A    between atoms: C_33  and  N_61
REMARK   14  A    between atoms: C_34  and  N_61
REMARK                            x       y       z     vdW  Elec       q    Type
REMARK                         _______ _______ _______ _____ _____    ______ ____
ROOT
ATOM      1  C   UNL     1      -4.078   6.597   7.677  0.00  0.00    +0.125 A 
ATOM      2  N   UNL     1      -4.268   6.870   6.417  0.00  0.00    -0.135 NA
ATOM      3  N   UNL     1      -4.034   5.831   5.699  0.00  0.00    -0.122 NA
ATOM      4  C   UNL     1      -3.678   4.827   6.467  0.00  0.00    +0.197 A 
ATOM      5  N   UNL     1      -3.700   5.283   7.756  0.00  0.00    -0.275 N 
ENDROOT
BRANCH   5   6
ATOM      6  C   UNL     1      -3.395   4.556   8.917  0.00  0.00    +0.050 A 
ATOM      7  C   UNL     1      -4.380   4.315   9.865  0.00  0.00    +0.028 A 
ATOM      8  C   UNL     1      -4.079   3.596  11.005  0.00  0.00    +0.022 A 
ATOM      9  C   UNL     1      -2.794   3.125  11.207  0.00  0.00    +0.041 A 
ATOM     10  C   UNL     1      -1.809   3.369  10.267  0.00  0.00    +0.022 A 
ATOM     11  C   UNL     1      -2.107   4.083   9.123  0.00  0.00    +0.028 A 
ATOM     12 CL   UNL     1      -2.417   2.226  12.644  0.00  0.00    -0.084 Cl
ENDBRANCH   5   6
BRANCH   1  14
ATOM     13  C   UNL     1      -5.738   7.759   9.106  0.00  0.00    -0.005 C 
ATOM     14  C   UNL     1      -4.248   7.548   8.833  0.00  0.00    -0.003 C 
BRANCH  14  17
ATOM     15  C   UNL     1      -4.333   9.497   7.399  0.00  0.00    -0.096 C 
ATOM     16  C   UNL     1      -3.558   9.708   9.683  0.00  0.00    -0.096 C 
ATOM     17  N   UNL     1      -3.597   8.832   8.494  0.00  0.00    +0.382 N 
ATOM     18  H   UNL     1      -2.635   8.646   8.185  0.00  0.00    -0.082 HD
ENDBRANCH  14  17
ENDBRANCH   1  14
BRANCH   4  19
ATOM     19  S   UNL     1      -3.260   3.199   5.937  0.00  0.00    -0.076 S 
BRANCH  19  20
ATOM     20  C   UNL     1      -3.472   3.386   4.149  0.00  0.00    +0.173 C 
BRANCH  20  21
ATOM     21  C   UNL     1      -3.159   2.080   3.467  0.00  0.00    +0.224 C 
ATOM     22  O   UNL     1      -2.825   1.117   4.125  0.00  0.00    -0.275 OA
ATOM     23  N   UNL     1      -3.249   1.981   2.126  0.00  0.00    -0.305 N 
ATOM     24  H   UNL     1      -3.517   2.751   1.600  0.00  0.00    +0.149 HD
BRANCH  23  25
ATOM     25  C   UNL     1      -2.945   0.711   1.462  0.00  0.00    +0.143 C 
BRANCH  25  26
ATOM     26  C   UNL     1      -4.172  -0.164   1.465  0.00  0.00    +0.151 C 
ATOM     27  O   UNL     1      -5.263   0.327   1.625  0.00  0.00    -0.296 OA
ATOM     28  C   UNL     1      -4.037  -1.652   1.268  0.00  0.00    +0.088 C 
ENDBRANCH  25  26
BRANCH  25  29
ATOM     29  C   UNL     1      -2.514   0.980   0.019  0.00  0.00    +0.065 C 
BRANCH  29  30
ATOM     30  C   UNL     1      -1.219   1.751   0.017  0.00  0.00    -0.045 A 
ATOM     31  C   UNL     1      -0.013   1.076   0.008  0.00  0.00    +0.004 A 
ATOM     32  C   UNL     1       1.175   1.783   0.000  0.00  0.00    +0.000 A 
ATOM     33  C   UNL     1       1.156   3.165   0.008  0.00  0.00    +0.000 A 
ATOM     34  C   UNL     1      -0.050   3.840   0.022  0.00  0.00    +0.000 A 
ATOM     35  C   UNL     1      -1.238   3.133   0.030  0.00  0.00    +0.004 A 
ENDBRANCH  29  30
ENDBRANCH  25  29
ENDBRANCH  23  25
ENDBRANCH  20  21
ENDBRANCH  19  20
ENDBRANCH   4  19
TORSDOF 10
