REMARK  Name = ZINC14069036
REMARK  11 active torsions:
REMARK  status: ('A' for Active; 'I' for Inactive)
REMARK    1  A    between atoms: C_1  and  C_2
REMARK    2  A    between atoms: C_2  and  O_3
REMARK    3  A    between atoms: O_3  and  C_4
REMARK    4  A    between atoms: C_4  and  C_6
REMARK    5  A    between atoms: C_10  and  N_11
REMARK    6  A    between atoms: C_12  and  C_14
REMARK    7  A    between atoms: C_14  and  S_15
REMARK    8  A    between atoms: S_15  and  C_16
REMARK    9  A    between atoms: C_19  and  C_24
REMARK   10  A    between atoms: N_20  and  C_21
REMARK   11  A    between atoms: C_21  and  C_22
REMARK                            x       y       z     vdW  Elec       q    Type
REMARK                         _______ _______ _______ _____ _____    ______ ____
ROOT
ATOM      1  N   UNL     1      -1.084  -3.180  -3.493  0.00  0.00    -0.279 N 
ATOM      2  C   UNL     1      -1.466  -3.099  -4.783  0.00  0.00    +0.228 C 
ATOM      3  O   UNL     1      -0.632  -3.116  -5.664  0.00  0.00    -0.275 OA
ATOM      4  H   UNL     1      -1.751  -3.167  -2.788  0.00  0.00    +0.155 HD
ENDROOT
BRANCH   1   9
ATOM      5  C   UNL     1       0.833  -3.376  -1.913  0.00  0.00    +0.091 A 
ATOM      6  C   UNL     1       2.280  -3.482  -1.848  0.00  0.00    -0.021 A 
ATOM      7  C   UNL     1       2.890  -3.469  -3.052  0.00  0.00    -0.004 A 
ATOM      8  S   UNL     1       1.571  -3.322  -4.222  0.00  0.00    -0.077 S 
ATOM      9  C   UNL     1       0.260  -3.283  -3.173  0.00  0.00    +0.086 A 
ATOM     10  C   UNL     1       4.361  -3.559  -3.317  0.00  0.00    +0.043 C 
ATOM     11  C   UNL     1       5.105  -3.289  -2.001  0.00  0.00    +0.005 C 
ATOM     12  C   UNL     1       4.473  -4.135  -0.891  0.00  0.00    +0.005 C 
ATOM     13  C   UNL     1       3.079  -3.599  -0.558  0.00  0.00    +0.037 C 
BRANCH   5  14
ATOM     14  C   UNL     1       0.012  -3.374  -0.700  0.00  0.00    +0.342 C 
ATOM     15  O   UNL     1      -0.399  -4.423  -0.242  0.00  0.00    -0.245 OA
BRANCH  14  16
ATOM     16  O   UNL     1      -0.288  -2.208  -0.091  0.00  0.00    -0.461 OA
BRANCH  16  18
ATOM     17  C   UNL     1      -1.326  -0.870   1.633  0.00  0.00    +0.048 C 
ATOM     18  C   UNL     1      -1.093  -2.281   1.088  0.00  0.00    +0.229 C 
ENDBRANCH  16  18
ENDBRANCH  14  16
ENDBRANCH   5  14
ENDBRANCH   1   9
BRANCH   2  19
ATOM     19  C   UNL     1      -2.928  -2.987  -5.131  0.00  0.00    +0.173 C 
BRANCH  19  20
ATOM     20  S   UNL     1      -3.115  -2.897  -6.933  0.00  0.00    -0.077 S 
BRANCH  20  21
ATOM     21  C   UNL     1      -4.856  -2.771  -7.174  0.00  0.00    +0.193 A 
ATOM     22  N   UNL     1      -5.774  -2.745  -6.234  0.00  0.00    -0.122 NA
ATOM     23  N   UNL     1      -6.942  -2.647  -6.760  0.00  0.00    -0.128 NA
ATOM     24  C   UNL     1      -6.843  -2.604  -8.068  0.00  0.00    +0.165 A 
ATOM     25  N   UNL     1      -5.503  -2.676  -8.373  0.00  0.00    -0.298 N 
BRANCH  24  26
ATOM     26  C   UNL     1      -7.958  -2.493  -9.031  0.00  0.00    +0.021 A 
ATOM     27  C   UNL     1      -7.873  -3.115 -10.278  0.00  0.00    +0.011 A 
ATOM     28  C   UNL     1      -8.918  -3.008 -11.173  0.00  0.00    +0.002 A 
ATOM     29  C   UNL     1     -10.049  -2.285 -10.837  0.00  0.00    +0.020 A 
ATOM     30  C   UNL     1     -10.140  -1.665  -9.603  0.00  0.00    +0.042 A 
ATOM     31  C   UNL     1      -9.104  -1.770  -8.696  0.00  0.00    +0.031 A 
ATOM     32 CL   UNL     1     -11.563  -0.759  -9.191  0.00  0.00    -0.084 Cl
ENDBRANCH  24  26
BRANCH  25  33
ATOM     33  C   UNL     1      -4.897  -2.658  -9.707  0.00  0.00    +0.152 C 
BRANCH  33  34
ATOM     34  C   UNL     1      -4.638  -4.072 -10.160  0.00  0.00    -0.013 C 
ATOM     35  C   UNL     1      -5.093  -4.482 -11.318  0.00  0.00    +0.005 C 
ENDBRANCH  33  34
ENDBRANCH  25  33
ENDBRANCH  20  21
ENDBRANCH  19  20
ENDBRANCH   2  19
TORSDOF 10
