REMARK  Name = ZINC40826998
REMARK  10 active torsions:
REMARK  status: ('A' for Active; 'I' for Inactive)
REMARK    1  A    between atoms: C_1  and  C_2
REMARK    2  A    between atoms: C_2  and  N_3
REMARK    3  A    between atoms: N_3  and  C_4
REMARK    4  A    between atoms: C_10  and  C_12
REMARK    5  A    between atoms: C_13  and  C_37
REMARK    6  A    between atoms: N_21  and  N_22
REMARK    7  A    between atoms: C_23  and  C_25
REMARK    8  A    between atoms: C_25  and  C_26
REMARK    9  A    between atoms: C_31  and  C_36
REMARK   10  A    between atoms: C_33  and  C_35
REMARK                            x       y       z     vdW  Elec       q    Type
REMARK                         _______ _______ _______ _____ _____    ______ ____
ROOT
ATOM      1  C   UNL     1       2.605  -0.521  -0.295  0.00  0.00    +0.193 A 
ATOM      2  C   UNL     1       3.928  -0.723  -0.574  0.00  0.00    +0.009 A 
ATOM      3  C   UNL     1       4.114  -0.320  -1.903  0.00  0.00    +0.042 A 
ATOM      4  C   UNL     1       2.898   0.111  -2.377  0.00  0.00    +0.115 A 
ATOM      5  O   UNL     1       2.004  -0.024  -1.400  0.00  0.00    -0.454 OA
ATOM      6  C   UNL     1       2.701   0.630  -3.779  0.00  0.00    +0.075 C 
ATOM      7  C   UNL     1       4.051   1.072  -4.351  0.00  0.00    +0.014 C 
ATOM      8  C   UNL     1       5.085  -0.051  -4.227  0.00  0.00    +0.058 C 
ATOM      9  C   UNL     1       5.329  -0.312  -2.747  0.00  0.00    +0.070 C 
ATOM     10  N   UNL     1       6.516  -0.513  -2.262  0.00  0.00    -0.184 NA
ATOM     11  C   UNL     1       4.977  -1.268   0.361  0.00  0.00    +0.048 C 
ENDROOT
BRANCH  10  12
ATOM     12  N   UNL     1       7.631  -0.494  -3.110  0.00  0.00    -0.206 N 
ATOM     13  C   UNL     1       8.864  -0.703  -2.606  0.00  0.00    +0.237 C 
ATOM     14  O   UNL     1       9.007  -0.907  -1.419  0.00  0.00    -0.274 OA
ATOM     15  H   UNL     1       7.516  -0.331  -4.059  0.00  0.00    +0.177 HD
BRANCH  13  16
ATOM     16  C   UNL     1      10.063  -0.683  -3.517  0.00  0.00    +0.136 C 
BRANCH  16  17
ATOM     17  C   UNL     1      11.311  -0.942  -2.712  0.00  0.00    +0.007 A 
ATOM     18  C   UNL     1      12.134  -0.024  -2.187  0.00  0.00    +0.200 A 
ATOM     19  O   UNL     1      13.142  -0.626  -1.532  0.00  0.00    -0.463 OA
ATOM     20  C   UNL     1      13.025  -1.968  -1.599  0.00  0.00    +0.136 A 
ATOM     21  C   UNL     1      11.864  -2.249  -2.338  0.00  0.00    +0.027 A 
ATOM     22  C   UNL     1      11.482  -3.570  -2.567  0.00  0.00    -0.039 A 
ATOM     23  C   UNL     1      12.248  -4.597  -2.061  0.00  0.00    +0.007 A 
ATOM     24  C   UNL     1      13.392  -4.320  -1.328  0.00  0.00    -0.047 A 
ATOM     25  C   UNL     1      13.785  -3.018  -1.101  0.00  0.00    +0.050 A 
ATOM     26  C   UNL     1      14.220  -5.455  -0.780  0.00  0.00    +0.044 C 
ATOM     27  C   UNL     1      10.239  -3.872  -3.363  0.00  0.00    +0.044 C 
ENDBRANCH  16  17
ENDBRANCH  13  16
ENDBRANCH  10  12
BRANCH   1  29
ATOM     28  N   UNL     1       0.610  -0.677   1.097  0.00  0.00    -0.265 N 
ATOM     29  C   UNL     1       1.947  -0.801   0.985  0.00  0.00    +0.286 C 
ATOM     30  O   UNL     1       2.609  -1.147   1.946  0.00  0.00    -0.266 OA
BRANCH  28  31
ATOM     31  C   UNL     1      -0.003  -0.813   2.347  0.00  0.00    +0.037 A 
ATOM     32  C   UNL     1      -1.388  -0.854   2.442  0.00  0.00    +0.023 A 
ATOM     33  C   UNL     1      -1.990  -0.988   3.678  0.00  0.00    +0.002 A 
ATOM     34  C   UNL     1      -1.215  -1.082   4.819  0.00  0.00    +0.000 A 
ATOM     35  C   UNL     1       0.164  -1.042   4.728  0.00  0.00    +0.002 A 
ATOM     36  C   UNL     1       0.772  -0.913   3.495  0.00  0.00    +0.023 A 
ENDBRANCH  28  31
BRANCH  28  38
ATOM     37  C   UNL     1      -0.300   1.113  -0.298  0.00  0.00    +0.025 C 
ATOM     38  C   UNL     1      -0.202  -0.399  -0.090  0.00  0.00    +0.111 C 
ENDBRANCH  28  38
ENDBRANCH   1  29
TORSDOF 6
