REMARK  Name = ZINC59169732
REMARK  10 active torsions:
REMARK  status: ('A' for Active; 'I' for Inactive)
REMARK    1  A    between atoms: C_1  and  C_2
REMARK    2  A    between atoms: C_5  and  C_7
REMARK    3  A    between atoms: C_7  and  N_8
REMARK    4  A    between atoms: N_8  and  C_9
REMARK    5  A    between atoms: N_8  and  C_15
REMARK    6  A    between atoms: C_15  and  N_17
REMARK    7  A    between atoms: N_17  and  C_18
REMARK    8  A    between atoms: C_23  and  C_24
REMARK    9  A    between atoms: C_24  and  C_25
REMARK   10  A    between atoms: C_24  and  C_26
REMARK                            x       y       z     vdW  Elec       q    Type
REMARK                         _______ _______ _______ _____ _____    ______ ____
ROOT
ATOM      1  N   UNL     1       1.965  -3.410  -1.428  0.00  0.00    -0.302 N 
ENDROOT
BRANCH   1   2
ATOM      2  C   UNL     1       3.218  -3.131  -2.134  0.00  0.00    +0.076 C 
ATOM      3  C   UNL     1       4.400  -3.401  -1.200  0.00  0.00    +0.022 C 
ATOM      4  C   UNL     1       5.709  -3.109  -1.936  0.00  0.00    +0.002 C 
ATOM      5  C   UNL     1       5.731  -1.644  -2.376  0.00  0.00    +0.000 C 
ATOM      6  C   UNL     1       4.549  -1.374  -3.310  0.00  0.00    +0.002 C 
ATOM      7  C   UNL     1       3.240  -1.666  -2.574  0.00  0.00    +0.022 C 
ENDBRANCH   1   2
BRANCH   1   8
ATOM      8  C   UNL     1       1.078  -4.281  -1.950  0.00  0.00    +0.138 C 
ATOM      9  S   UNL     1      -0.443  -4.508  -1.196  0.00  0.00    -0.018 S 
BRANCH   8  10
ATOM     10  N   UNL     1       1.388  -4.973  -3.064  0.00  0.00    -0.296 N 
ATOM     11  H   UNL     1       2.275  -4.898  -3.450  0.00  0.00    +0.154 HD
BRANCH  10  12
ATOM     12  C   UNL     1       0.432  -5.801  -3.662  0.00  0.00    +0.036 A 
ATOM     13  C   UNL     1      -0.312  -6.679  -2.885  0.00  0.00    +0.023 A 
ATOM     14  C   UNL     1      -1.256  -7.494  -3.478  0.00  0.00    +0.002 A 
ATOM     15  C   UNL     1      -1.459  -7.437  -4.845  0.00  0.00    +0.000 A 
ATOM     16  C   UNL     1      -0.720  -6.565  -5.622  0.00  0.00    +0.006 A 
ATOM     17  C   UNL     1       0.222  -5.742  -5.033  0.00  0.00    -0.024 A 
BRANCH  17  18
ATOM     18  C   UNL     1       1.023  -4.787  -5.879  0.00  0.00    +0.015 C 
ATOM     19  C   UNL     1       1.725  -5.562  -6.997  0.00  0.00    +0.012 C 
ATOM     20  C   UNL     1       0.090  -3.741  -6.492  0.00  0.00    +0.012 C 
ENDBRANCH  17  18
ENDBRANCH  10  12
ENDBRANCH   8  10
ENDBRANCH   1   8
BRANCH   1  21
ATOM     21  C   UNL     1       1.675  -2.743  -0.157  0.00  0.00    +0.181 C 
BRANCH  21  26
ATOM     22  C   UNL     1       0.794   2.136  -1.083  0.00  0.00    +0.086 C 
ATOM     23  C   UNL     1       0.561   0.670  -0.824  0.00  0.00    +0.102 A 
ATOM     24  C   UNL     1      -0.637   0.062  -0.760  0.00  0.00    +0.045 A 
ATOM     25  C   UNL     1      -0.390  -1.305  -0.500  0.00  0.00    +0.046 A 
ATOM     26  C   UNL     1       0.945  -1.452  -0.422  0.00  0.00    +0.122 A 
ATOM     27  O   UNL     1       1.516  -0.254  -0.624  0.00  0.00    -0.463 OA
ENDBRANCH  21  26
ENDBRANCH   1  21
TORSDOF 7
