REMARK  Name = ZINC21584781
REMARK  8 active torsions:
REMARK  status: ('A' for Active; 'I' for Inactive)
REMARK    1  A    between atoms: C_1  and  C_2
REMARK    2  A    between atoms: N_11  and  C_12
REMARK    3  A    between atoms: C_12  and  C_13
REMARK    4  A    between atoms: N_15  and  C_16
REMARK    5  A    between atoms: C_18  and  S_24
REMARK    6  A    between atoms: C_21  and  O_22
REMARK    7  A    between atoms: O_22  and  C_23
REMARK    8  A    between atoms: S_24  and  N_27
REMARK                            x       y       z     vdW  Elec       q    Type
REMARK                         _______ _______ _______ _____ _____    ______ ____
ROOT
ATOM      1  C   UNL     1      -1.443   3.417   2.465  0.00  0.00    +0.077 A 
ATOM      2  C   UNL     1      -1.549   4.790   2.632  0.00  0.00    +0.055 A 
ATOM      3  C   UNL     1      -1.030   5.644   1.678  0.00  0.00    +0.107 A 
ATOM      4  C   UNL     1      -0.399   5.134   0.558  0.00  0.00    +0.032 A 
ATOM      5  C   UNL     1      -0.284   3.767   0.388  0.00  0.00    +0.049 A 
ATOM      6  C   UNL     1      -0.802   2.904   1.340  0.00  0.00    +0.141 A 
ENDROOT
BRANCH   1   9
ATOM      7  C   UNL     1      -1.946   2.891   4.732  0.00  0.00    +0.201 C 
ATOM      8  O   UNL     1      -1.535   3.983   5.064  0.00  0.00    -0.278 OA
ATOM      9  N   UNL     1      -1.973   2.549   3.429  0.00  0.00    -0.284 N 
ATOM     10  H   UNL     1      -2.413   1.589   3.121  0.00  0.00    +0.155 HD
BRANCH   7  11
ATOM     11  C   UNL     1      -2.424   1.916   5.777  0.00  0.00    +0.020 C 
BRANCH  11  21
ATOM     12  C   UNL     1      -4.456   1.607   7.807  0.00  0.00    -0.008 C 
ATOM     13  C   UNL     1      -2.963   1.704   8.127  0.00  0.00    -0.039 C 
ATOM     14  C   UNL     1      -2.774   2.368   9.488  0.00  0.00    -0.051 A 
ATOM     15  C   UNL     1      -3.561   2.093  10.603  0.00  0.00    +0.010 A 
ATOM     16  C   UNL     1      -3.325   2.731  11.773  0.00  0.00    +0.045 A 
ATOM     17  S   UNL     1      -1.941   3.780  11.348  0.00  0.00    -0.101 S 
ATOM     18  C   UNL     1      -1.785   3.291   9.654  0.00  0.00    -0.010 A 
ATOM     19  C   UNL     1      -0.813   3.753   8.618  0.00  0.00    +0.024 C 
ATOM     20  C   UNL     1      -0.882   2.768   7.439  0.00  0.00    -0.072 C 
ATOM     21  N   UNL     1      -2.293   2.522   7.109  0.00  0.00    +0.390 N 
ATOM     22  H   UNL     1      -2.798   3.499   7.095  0.00  0.00    -0.080 HD
ENDBRANCH  11  21
ENDBRANCH   7  11
ENDBRANCH   1   9
BRANCH   3  23
ATOM     23  S   UNL     1      -1.171   7.388   1.889  0.00  0.00    +0.061 S 
ATOM     24  O   UNL     1      -1.320   7.617   3.284  0.00  0.00    -0.153 OA
ATOM     25  O   UNL     1      -0.125   7.975   1.128  0.00  0.00    -0.153 OA
BRANCH  23  26
ATOM     26  N   UNL     1      -2.592   7.853   1.178  0.00  0.00    -0.177 NA
ATOM     27  C   UNL     1      -2.577   8.236  -0.216  0.00  0.00    +0.109 C 
ATOM     28  C   UNL     1      -2.290   9.747  -0.343  0.00  0.00    +0.017 C 
ATOM     29  C   UNL     1      -3.451  10.527   0.111  0.00  0.00    +0.001 C 
ATOM     30  C   UNL     1      -3.805  10.330   1.582  0.00  0.00    +0.001 C 
ATOM     31  C   UNL     1      -4.684   9.113   1.726  0.00  0.00    +0.017 C 
ATOM     32  C   UNL     1      -3.821   7.866   1.995  0.00  0.00    +0.109 C 
ENDBRANCH  23  26
ENDBRANCH   3  23
BRANCH   6  33
ATOM     33  O   UNL     1      -0.691   1.559   1.173  0.00  0.00    -0.493 OA
ATOM     34  C   UNL     1      -0.028   1.104  -0.008  0.00  0.00    +0.277 C 
ENDBRANCH   6  33
TORSDOF 6
