REMARK  Name = ZINC40860303
REMARK  2 active torsions:
REMARK  status: ('A' for Active; 'I' for Inactive)
REMARK    1  A    between atoms: C_3  and  N_8
REMARK    2  A    between atoms: C_17  and  C_18
REMARK                            x       y       z     vdW  Elec       q    Type
REMARK                         _______ _______ _______ _____ _____    ______ ____
ROOT
ATOM      1  N   UNL     1       3.577   2.083  -0.046  0.00  0.00    -0.354 N 
ATOM      2  C   UNL     1       4.523   1.793   0.834  0.00  0.00    +0.065 A 
ATOM      3  C   UNL     1       4.388   0.630   1.748  0.00  0.00    +0.030 A 
ATOM      4  C   UNL     1       3.300  -0.325   1.849  0.00  0.00    +0.019 A 
ATOM      5  C   UNL     1       3.378  -1.314   2.754  0.00  0.00    +0.048 A 
ATOM      6  S   UNL     1       4.949  -1.019   3.543  0.00  0.00    -0.079 S 
ATOM      7  C   UNL     1       5.448   0.422   2.632  0.00  0.00    +0.087 A 
ATOM      8  N   UNL     1       6.548   1.222   2.673  0.00  0.00    -0.354 N 
ATOM      9  C   UNL     1       6.707   2.283   1.864  0.00  0.00    +0.100 A 
ATOM     10  C   UNL     1       5.744   2.611   0.931  0.00  0.00    +0.103 A 
ATOM     11  H   UNL     1       7.247   1.018   3.314  0.00  0.00    +0.166 HD
ATOM     12  H   UNL     1       3.732   2.765  -0.719  0.00  0.00    +0.166 HD
ENDROOT
BRANCH   1  15
ATOM     13  C   UNL     1       0.299   0.954   1.097  0.00  0.00    +0.005 A 
ATOM     14  C   UNL     1       1.505   1.624   1.063  0.00  0.00    +0.026 A 
ATOM     15  C   UNL     1       2.383   1.423  -0.006  0.00  0.00    +0.042 A 
ATOM     16  C   UNL     1       2.032   0.544  -1.035  0.00  0.00    +0.064 A 
ATOM     17  C   UNL     1       0.821  -0.120  -0.987  0.00  0.00    +0.125 A 
ATOM     18  C   UNL     1      -0.043   0.085   0.077  0.00  0.00    +0.038 A 
ATOM     19  F   UNL     1       0.479  -0.970  -1.980  0.00  0.00    -0.205 F 
ENDBRANCH   1  15
BRANCH  10  20
ATOM     20  C   UNL     1       5.932   3.766   0.050  0.00  0.00    +0.390 C 
ATOM     21  O   UNL     1       6.991   4.381   0.064  0.00  0.00    -0.240 OA
ATOM     22  O   UNL     1       5.031   4.117  -0.700  0.00  0.00    -0.240 OA
ENDBRANCH  10  20
TORSDOF 2
