REMARK  Name = ZINC09467903
REMARK  10 active torsions:
REMARK  status: ('A' for Active; 'I' for Inactive)
REMARK    1  A    between atoms: C_1  and  C_2
REMARK    2  A    between atoms: C_7  and  C_9
REMARK    3  A    between atoms: C_7  and  C_10
REMARK    4  A    between atoms: C_13  and  C_15
REMARK    5  A    between atoms: C_15  and  S_16
REMARK    6  A    between atoms: S_16  and  C_17
REMARK    7  A    between atoms: C_20  and  C_23
REMARK    8  A    between atoms: N_21  and  N_22
REMARK    9  A    between atoms: C_26  and  O_29
REMARK   10  A    between atoms: O_29  and  C_30
REMARK                            x       y       z     vdW  Elec       q    Type
REMARK                         _______ _______ _______ _____ _____    ______ ____
ROOT
ATOM      1  C   UNL     1      -6.359  -3.316  -0.496  0.00  0.00    +0.209 A 
ATOM      2  N   UNL     1      -6.627  -2.224   0.183  0.00  0.00    -0.121 NA
ATOM      3  N   UNL     1      -7.875  -2.189   0.489  0.00  0.00    -0.127 NA
ATOM      4  C   UNL     1      -8.481  -3.256   0.024  0.00  0.00    +0.182 A 
ATOM      5  N   UNL     1      -7.530  -4.009  -0.626  0.00  0.00    -0.224 N 
ENDROOT
BRANCH   4   6
ATOM      6  C   UNL     1      -9.915  -3.586   0.167  0.00  0.00    +0.021 A 
ATOM      7  C   UNL     1     -10.364  -4.882  -0.091  0.00  0.00    +0.015 A 
ATOM      8  C   UNL     1     -11.702  -5.185   0.044  0.00  0.00    +0.046 A 
ATOM      9  C   UNL     1     -12.602  -4.203   0.435  0.00  0.00    +0.127 A 
ATOM     10  C   UNL     1     -12.159  -2.912   0.692  0.00  0.00    +0.046 A 
ATOM     11  C   UNL     1     -10.822  -2.602   0.565  0.00  0.00    +0.015 A 
BRANCH   9  12
ATOM     12  O   UNL     1     -13.921  -4.505   0.566  0.00  0.00    -0.434 OA
BRANCH  12  13
ATOM     13  C   UNL     1     -14.792  -3.447   0.971  0.00  0.00    +0.541 C 
ATOM     14  F   UNL     1     -14.391  -2.966   2.222  0.00  0.00    -0.166 F 
ATOM     15  F   UNL     1     -14.735  -2.411   0.033  0.00  0.00    -0.166 F 
ENDBRANCH  12  13
ENDBRANCH   9  12
ENDBRANCH   4   6
BRANCH   5  16
ATOM     16  N   UNL     1      -7.716  -5.201  -1.266  0.00  0.00    -0.295 N 
ATOM     17  H   UNL     1      -7.584  -5.976  -0.633  0.00  0.00    +0.163 HD
ATOM     18  H   UNL     1      -8.626  -5.241  -1.700  0.00  0.00    +0.163 HD
ENDBRANCH   5  16
BRANCH   1  19
ATOM     19  S   UNL     1      -4.786  -3.795  -1.127  0.00  0.00    -0.075 S 
BRANCH  19  20
ATOM     20  C   UNL     1      -3.679  -2.453  -0.611  0.00  0.00    +0.173 C 
BRANCH  20  32
ATOM     21  C   UNL     1      -0.019   1.532   0.011  0.00  0.00    +0.013 C 
ATOM     22  C   UNL     1       0.002  -0.004   0.002  0.00  0.00    -0.014 C 
ATOM     23  C   UNL     1       0.685  -0.578  -1.269  0.00  0.00    +0.030 C 
ATOM     24  C   UNL     1       0.129  -2.024  -1.231  0.00  0.00    +0.077 C 
ATOM     25  C   UNL     1       0.888  -2.772  -0.139  0.00  0.00    +0.029 C 
ATOM     26  C   UNL     1       0.823  -2.105   1.223  0.00  0.00    -0.033 C 
ATOM     27  C   UNL     1       0.726  -0.591   1.212  0.00  0.00    +0.014 C 
ATOM     28  C   UNL     1       2.126  -2.474   1.975  0.00  0.00    +0.011 C 
ATOM     29  C   UNL     1      -0.332  -2.701   2.040  0.00  0.00    +0.011 C 
ATOM     30  N   UNL     1      -1.283  -1.875  -0.825  0.00  0.00    -0.297 N 
ATOM     31  C   UNL     1      -1.417  -0.610  -0.086  0.00  0.00    +0.114 C 
ATOM     32  C   UNL     1      -2.281  -2.741  -1.094  0.00  0.00    +0.226 C 
ATOM     33  O   UNL     1      -2.053  -3.752  -1.724  0.00  0.00    -0.275 OA
ENDBRANCH  20  32
ENDBRANCH  19  20
ENDBRANCH   1  19
TORSDOF 7
