REMARK  Name = ZINC35464201
REMARK  4 active torsions:
REMARK  status: ('A' for Active; 'I' for Inactive)
REMARK    1  A    between atoms: C_1  and  N_2
REMARK    2  A    between atoms: N_2  and  C_3
REMARK    3  A    between atoms: C_3  and  C_5
REMARK    4  A    between atoms: C_3  and  C_12
REMARK                            x       y       z     vdW  Elec       q    Type
REMARK                         _______ _______ _______ _____ _____    ______ ____
ROOT
ATOM      1  C   UNL     1       0.690  -0.478  -1.207  0.00  0.00    -0.010 C 
ENDROOT
BRANCH   1   2
ATOM      2  C   UNL     1       2.137  -0.060  -1.158  0.00  0.00    -0.057 A 
ATOM      3  C   UNL     1       2.836  -0.127   0.033  0.00  0.00    +0.004 A 
ATOM      4  C   UNL     1       4.163   0.256   0.078  0.00  0.00    +0.020 A 
ATOM      5  C   UNL     1       4.792   0.707  -1.068  0.00  0.00    +0.041 A 
ATOM      6  C   UNL     1       4.092   0.774  -2.260  0.00  0.00    +0.020 A 
ATOM      7  C   UNL     1       2.766   0.386  -2.305  0.00  0.00    +0.004 A 
ATOM      8 CL   UNL     1       6.458   1.190  -1.012  0.00  0.00    -0.084 Cl
ENDBRANCH   1   2
BRANCH   1   9
ATOM      9  C   UNL     1       0.603  -1.981  -1.277  0.00  0.00    -0.057 A 
ATOM     10  C   UNL     1       0.741  -2.736  -0.128  0.00  0.00    +0.003 A 
ATOM     11  C   UNL     1       0.662  -4.114  -0.192  0.00  0.00    +0.014 A 
ATOM     12  C   UNL     1       0.444  -4.738  -1.407  0.00  0.00    +0.013 A 
ATOM     13  C   UNL     1       0.306  -3.982  -2.557  0.00  0.00    +0.014 A 
ATOM     14  C   UNL     1       0.380  -2.604  -2.491  0.00  0.00    +0.003 A 
ATOM     15  I   UNL     1       0.325  -6.827  -1.506  0.00  0.00    -0.044 I 
ENDBRANCH   1   9
BRANCH   1  17
ATOM     16  C   UNL     1      -0.018   1.465   0.010  0.00  0.00    -0.099 C 
ATOM     17  N   UNL     1       0.002  -0.004   0.002  0.00  0.00    +0.384 N 
ATOM     18  H   UNL     1       0.490  -0.338   0.820  0.00  0.00    -0.085 HD
ATOM     19  H   UNL     1      -0.945  -0.353   0.009  0.00  0.00    -0.085 HD
ENDBRANCH   1  17
TORSDOF 3
