REMARK  Name = ZINC20037860
REMARK  17 active torsions:
REMARK  status: ('A' for Active; 'I' for Inactive)
REMARK    1  A    between atoms: C_1  and  C_2
REMARK    2  A    between atoms: C_2  and  C_3
REMARK    3  A    between atoms: C_3  and  N_4
REMARK    4  A    between atoms: N_4  and  C_5
REMARK    5  A    between atoms: N_4  and  C_8
REMARK    6  A    between atoms: C_5  and  C_6
REMARK    7  A    between atoms: C_6  and  C_7
REMARK    8  A    between atoms: C_8  and  C_9
REMARK    9  A    between atoms: C_10  and  C_20
REMARK   10  A    between atoms: N_22  and  N_23
REMARK   11  A    between atoms: C_24  and  C_25
REMARK   12  A    between atoms: C_28  and  N_32
REMARK   13  A    between atoms: C_30  and  O_31
REMARK   14  A    between atoms: N_32  and  C_33
REMARK   15  A    between atoms: N_32  and  C_35
REMARK   16  A    between atoms: C_33  and  C_34
REMARK   17  A    between atoms: C_35  and  C_36
REMARK                            x       y       z     vdW  Elec       q    Type
REMARK                         _______ _______ _______ _____ _____    ______ ____
ROOT
ATOM      1  C   UNL     1      -7.331   9.674  -0.229  0.00  0.00    +0.063 A 
ATOM      2  C   UNL     1      -7.069   8.385  -0.597  0.00  0.00    +0.170 A 
ATOM      3  N   UNL     1      -8.239   7.739  -0.749  0.00  0.00    -0.124 NA
ATOM      4  N   UNL     1      -9.212   8.542  -0.490  0.00  0.00    -0.058 NA
ATOM      5  N   UNL     1      -8.676   9.793  -0.156  0.00  0.00    -0.194 N 
ATOM      6  C   UNL     1      -9.394  10.944   0.187  0.00  0.00    +0.240 A 
ATOM      7  C   UNL     1     -10.854  11.055   0.260  0.00  0.00    +0.206 A 
ATOM      8  N   UNL     1     -11.156  12.274   0.611  0.00  0.00    -0.032 NA
ATOM      9  O   UNL     1      -9.945  12.991   0.777  0.00  0.00    -0.239 OA
ATOM     10  N   UNL     1      -8.879  12.099   0.501  0.00  0.00    -0.027 NA
ATOM     11  N   UNL     1     -11.761  10.034  -0.000  0.00  0.00    -0.337 N 
ATOM     12  H   UNL     1     -12.841  10.224   0.085  0.00  0.00    +0.144 HD
ATOM     13  H   UNL     1     -11.399   9.037  -0.291  0.00  0.00    +0.144 HD
ENDROOT
BRANCH   2  14
ATOM     14  C   UNL     1      -5.730   7.801  -0.799  0.00  0.00    +0.285 C 
ATOM     15  O   UNL     1      -4.738   8.485  -0.637  0.00  0.00    -0.267 OA
ATOM     16  N   UNL     1      -5.606   6.510  -1.164  0.00  0.00    -0.202 N 
ATOM     17  H   UNL     1      -6.503   5.891  -1.311  0.00  0.00    +0.178 HD
BRANCH  16  18
ATOM     18  N   UNL     1      -4.334   5.955  -1.356  0.00  0.00    -0.187 NA
ATOM     19  C   UNL     1      -4.214   4.711  -1.708  0.00  0.00    +0.142 C 
BRANCH  19  20
ATOM     20  C   UNL     1      -2.876   4.128  -1.910  0.00  0.00    +0.036 A 
ATOM     21  C   UNL     1      -2.745   2.789  -2.288  0.00  0.00    +0.015 A 
ATOM     22  C   UNL     1      -1.493   2.247  -2.476  0.00  0.00    +0.024 A 
ATOM     23  C   UNL     1      -0.356   3.029  -2.290  0.00  0.00    +0.033 A 
ATOM     24  C   UNL     1      -0.477   4.359  -1.909  0.00  0.00    +0.069 A 
ATOM     25  C   UNL     1      -1.730   4.915  -1.723  0.00  0.00    +0.127 A 
BRANCH  25  26
ATOM     26  O   UNL     1      -1.851   6.217  -1.355  0.00  0.00    -0.506 OA
ATOM     27  H   UNL     1      -0.951   6.832  -1.209  0.00  0.00    +0.292 HD
ENDBRANCH  25  26
BRANCH  23  28
ATOM     28  N   UNL     1       0.908   2.474  -2.482  0.00  0.00    -0.330 N 
BRANCH  28  29
ATOM     29  C   UNL     1       1.039   1.069  -2.879  0.00  0.00    +0.102 C 
ATOM     30  C   UNL     1       1.132   0.193  -1.629  0.00  0.00    +0.024 C 
ENDBRANCH  28  29
BRANCH  28  31
ATOM     31  C   UNL     1       2.106   3.296  -2.294  0.00  0.00    +0.102 C 
ATOM     32  C   UNL     1       2.475   3.970  -3.616  0.00  0.00    +0.024 C 
ENDBRANCH  28  31
ENDBRANCH  23  28
ENDBRANCH  19  20
ENDBRANCH  16  18
ENDBRANCH   2  14
BRANCH   1  33
ATOM     33  C   UNL     1      -6.317  10.754   0.044  0.00  0.00    -0.020 C 
BRANCH  33  34
ATOM     34  N   UNL     1      -6.291  11.051   1.482  0.00  0.00    +0.383 N 
ATOM     35  H   UNL     1      -7.329  11.041   1.848  0.00  0.00    -0.081 HD
BRANCH  34  36
ATOM     36  C   UNL     1      -5.544  10.023   2.218  0.00  0.00    -0.079 C 
BRANCH  36  38
ATOM     37  C   UNL     1      -5.702   7.774   3.297  0.00  0.00    +0.002 C 
ATOM     38  C   UNL     1      -6.428   8.789   2.411  0.00  0.00    -0.022 C 
ENDBRANCH  36  38
ENDBRANCH  34  36
BRANCH  34  39
ATOM     39  C   UNL     1      -5.736  12.387   1.734  0.00  0.00    -0.079 C 
BRANCH  39  40
ATOM     40  C   UNL     1      -6.077  12.820   3.162  0.00  0.00    -0.022 C 
ATOM     41  C   UNL     1      -5.610  14.260   3.383  0.00  0.00    +0.002 C 
ENDBRANCH  39  40
ENDBRANCH  34  39
ENDBRANCH  33  34
ENDBRANCH   1  33
TORSDOF 13
