REMARK  Name = ZINC28447241
REMARK  11 active torsions:
REMARK  status: ('A' for Active; 'I' for Inactive)
REMARK    1  A    between atoms: C_1  and  C_2
REMARK    2  A    between atoms: C_2  and  C_3
REMARK    3  A    between atoms: C_2  and  C_4
REMARK    4  A    between atoms: C_4  and  C_6
REMARK    5  A    between atoms: C_4  and  S_14
REMARK    6  A    between atoms: N_8  and  C_9
REMARK    7  A    between atoms: S_14  and  C_15
REMARK    8  A    between atoms: N_19  and  C_20
REMARK    9  A    between atoms: C_20  and  C_21
REMARK   10  A    between atoms: C_20  and  C_22
REMARK   11  A    between atoms: C_20  and  C_23
REMARK                            x       y       z     vdW  Elec       q    Type
REMARK                         _______ _______ _______ _____ _____    ______ ____
ROOT
ATOM      1  C   UNL     1       0.081   1.062   2.411  0.00  0.00    +0.142 C 
ENDROOT
BRANCH   1   2
ATOM      2  C   UNL     1      -0.593   1.444   3.703  0.00  0.00    +0.227 C 
ATOM      3  O   UNL     1      -1.242   0.622   4.315  0.00  0.00    -0.275 OA
ATOM      4  N   UNL     1      -0.476   2.700   4.178  0.00  0.00    -0.312 N 
ATOM      5  H   UNL     1       0.112   3.446   3.623  0.00  0.00    +0.149 HD
BRANCH   4   6
ATOM      6  C   UNL     1      -1.132   3.072   5.435  0.00  0.00    +0.073 C 
ATOM      7  C   UNL     1      -2.575   3.544   5.158  0.00  0.00    +0.022 C 
ATOM      8  C   UNL     1      -2.795   4.700   6.165  0.00  0.00    +0.002 C 
ATOM      9  C   UNL     1      -1.419   5.411   6.176  0.00  0.00    +0.002 C 
ATOM     10  C   UNL     1      -0.398   4.259   6.082  0.00  0.00    +0.022 C 
ENDBRANCH   4   6
ENDBRANCH   1   2
BRANCH   1  12
ATOM     11  C   UNL     1      -0.794   3.077   1.220  0.00  0.00    +0.009 C 
ATOM     12  C   UNL     1      -0.764   1.547   1.231  0.00  0.00    +0.005 C 
ATOM     13  C   UNL     1      -2.190   1.010   1.371  0.00  0.00    +0.009 C 
ENDBRANCH   1  12
BRANCH   1  14
ATOM     14  S   UNL     1       0.254  -0.738   2.329  0.00  0.00    -0.072 S 
BRANCH  14  15
ATOM     15  C   UNL     1       1.295  -0.882   0.915  0.00  0.00    +0.211 A 
ATOM     16  N   UNL     1       1.710   0.102   0.147  0.00  0.00    -0.101 NA
ATOM     17  N   UNL     1       2.455  -0.348  -0.797  0.00  0.00    -0.022 NA
ATOM     18  N   UNL     1       2.570  -1.629  -0.705  0.00  0.00    -0.043 NA
ATOM     19  N   UNL     1       1.823  -2.025   0.418  0.00  0.00    -0.215 N 
BRANCH  19  20
ATOM     20  C   UNL     1       1.651  -3.384   0.938  0.00  0.00    +0.060 C 
ATOM     21  C   UNL     1       0.165  -3.751   0.923  0.00  0.00    +0.036 C 
ATOM     22  C   UNL     1       2.428  -4.368   0.061  0.00  0.00    +0.036 C 
ATOM     23  C   UNL     1       2.178  -3.452   2.372  0.00  0.00    +0.036 C 
ENDBRANCH  19  20
ENDBRANCH  14  15
ENDBRANCH   1  14
TORSDOF 6
