REMARK  Name = ZINC19902859
REMARK  5 active torsions:
REMARK  status: ('A' for Active; 'I' for Inactive)
REMARK    1  A    between atoms: C_1  and  C_2
REMARK    2  A    between atoms: C_3  and  C_21
REMARK    3  A    between atoms: C_4  and  C_14
REMARK    4  A    between atoms: C_21  and  O_23
REMARK    5  A    between atoms: O_23  and  C_24
REMARK                            x       y       z     vdW  Elec       q    Type
REMARK                         _______ _______ _______ _____ _____    ______ ____
ROOT
ATOM      1  C   UNL     1       4.784  -2.483  -1.680  0.00  0.00    +0.061 C 
ATOM      2  C   UNL     1       3.395  -1.974  -1.394  0.00  0.00    +0.016 C 
ATOM      3  C   UNL     1       2.480  -2.798  -0.855  0.00  0.00    +0.065 C 
ATOM      4  C   UNL     1       1.085  -2.328  -0.564  0.00  0.00    +0.092 C 
ATOM      5  C   UNL     1       1.017  -0.821  -0.536  0.00  0.00    +0.024 C 
ATOM      6  C   UNL     1       1.993  -0.077  -1.097  0.00  0.00    +0.015 C 
ATOM      7  N   UNL     1       3.074  -0.677  -1.685  0.00  0.00    -0.321 N 
ATOM      8  C   UNL     1       1.920   1.430  -1.094  0.00  0.00    +0.051 C 
ATOM      9  C   UNL     1       1.177   1.905   0.157  0.00  0.00    +0.014 C 
ATOM     10  C   UNL     1      -0.222   1.280   0.158  0.00  0.00    +0.080 C 
ATOM     11  C   UNL     1      -0.090  -0.217   0.085  0.00  0.00    +0.162 C 
ATOM     12  O   UNL     1      -0.957  -0.916   0.571  0.00  0.00    -0.292 OA
ATOM     13  H   UNL     1       3.687  -0.105  -2.397  0.00  0.00    +0.152 HD
ENDROOT
BRANCH   4  14
ATOM     14  C   UNL     1       0.155  -2.845  -1.631  0.00  0.00    -0.035 A 
ATOM     15  C   UNL     1       0.338  -2.469  -2.949  0.00  0.00    +0.007 A 
ATOM     16  C   UNL     1      -0.511  -2.947  -3.929  0.00  0.00    +0.038 A 
ATOM     17  C   UNL     1      -1.552  -3.795  -3.589  0.00  0.00    +0.123 A 
ATOM     18  C   UNL     1      -1.738  -4.167  -2.268  0.00  0.00    +0.038 A 
ATOM     19  C   UNL     1      -0.884  -3.692  -1.290  0.00  0.00    +0.007 A 
ATOM     20  F   UNL     1      -2.386  -4.258  -4.545  0.00  0.00    -0.205 F 
ENDBRANCH   4  14
BRANCH   3  21
ATOM     21  C   UNL     1       2.838  -4.133  -0.557  0.00  0.00    +0.337 C 
ATOM     22  O   UNL     1       3.931  -4.558  -0.885  0.00  0.00    -0.245 OA
BRANCH  21  23
ATOM     23  O   UNL     1       1.969  -4.937   0.091  0.00  0.00    -0.465 OA
ATOM     24  C   UNL     1       2.397  -6.273   0.359  0.00  0.00    +0.280 C 
ENDBRANCH  21  23
ENDBRANCH   3  21
TORSDOF 3
