REMARK  Name = ZINC21979273
REMARK  6 active torsions:
REMARK  status: ('A' for Active; 'I' for Inactive)
REMARK    1  A    between atoms: C_1  and  C_2
REMARK    2  A    between atoms: C_2  and  C_4
REMARK    3  A    between atoms: C_2  and  O_23
REMARK    4  A    between atoms: N_6  and  C_7
REMARK    5  A    between atoms: O_23  and  C_24
REMARK    6  A    between atoms: C_24  and  C_26
REMARK                            x       y       z     vdW  Elec       q    Type
REMARK                         _______ _______ _______ _____ _____    ______ ____
ROOT
ATOM      1  C   UNL     1      -6.010  -0.972  -0.734  0.00  0.00    +0.258 C 
ATOM      2  O   UNL     1      -5.764  -2.106  -1.086  0.00  0.00    -0.271 OA
ATOM      3  N   UNL     1      -7.189  -0.406  -1.058  0.00  0.00    -0.282 N 
ATOM      4  H   UNL     1      -7.382   0.647  -0.805  0.00  0.00    +0.155 HD
ENDROOT
BRANCH   3   5
ATOM      5  C   UNL     1      -8.163  -1.153  -1.712  0.00  0.00    +0.045 A 
ATOM      6  C   UNL     1      -7.793  -2.169  -2.594  0.00  0.00    +0.024 A 
ATOM      7  C   UNL     1      -8.755  -2.916  -3.240  0.00  0.00    +0.003 A 
ATOM      8  C   UNL     1     -10.103  -2.663  -3.033  0.00  0.00    +0.012 A 
ATOM      9  C   UNL     1     -10.494  -1.652  -2.163  0.00  0.00    +0.035 A 
ATOM     10  C   UNL     1      -9.518  -0.887  -1.495  0.00  0.00    +0.054 A 
ATOM     11  C   UNL     1      -9.935   0.185  -0.573  0.00  0.00    +0.196 C 
ATOM     12  O   UNL     1      -9.133   0.684   0.194  0.00  0.00    -0.287 OA
ATOM     13  C   UNL     1     -11.340   0.649  -0.590  0.00  0.00    +0.033 A 
ATOM     14  C   UNL     1     -11.704   1.831   0.045  0.00  0.00    +0.012 A 
ATOM     15  C   UNL     1     -13.023   2.249   0.018  0.00  0.00    +0.001 A 
ATOM     16  C   UNL     1     -13.983   1.499  -0.638  0.00  0.00    +0.001 A 
ATOM     17  C   UNL     1     -13.638   0.320  -1.275  0.00  0.00    +0.012 A 
ATOM     18  C   UNL     1     -12.316  -0.114  -1.257  0.00  0.00    +0.033 A 
ATOM     19  C   UNL     1     -11.928  -1.371  -1.933  0.00  0.00    +0.195 C 
ATOM     20  O   UNL     1     -12.776  -2.163  -2.295  0.00  0.00    -0.287 OA
ENDBRANCH   3   5
BRANCH   1  22
ATOM     21  C   UNL     1      -5.556   0.088   1.462  0.00  0.00    +0.062 C 
ATOM     22  C   UNL     1      -4.996  -0.195   0.066  0.00  0.00    +0.259 C 
BRANCH  22  23
ATOM     23  O   UNL     1      -3.774  -0.971   0.183  0.00  0.00    -0.449 OA
BRANCH  23  24
ATOM     24  C   UNL     1      -2.620  -0.283   0.283  0.00  0.00    +0.341 C 
ATOM     25  O   UNL     1      -2.634   0.932   0.273  0.00  0.00    -0.245 OA
BRANCH  24  26
ATOM     26  C   UNL     1      -1.337  -1.006   0.405  0.00  0.00    +0.073 A 
ATOM     27  C   UNL     1      -1.296  -2.388   0.532  0.00  0.00    +0.085 A 
ATOM     28  C   UNL     1      -0.058  -3.032   0.644  0.00  0.00    +0.250 A 
ATOM     29  N   UNL     1       1.079  -2.376   0.635  0.00  0.00    -0.322 N 
ATOM     30  C   UNL     1       1.136  -1.047   0.517  0.00  0.00    +0.050 A 
ATOM     31  C   UNL     1      -0.058  -0.295   0.397  0.00  0.00    +0.012 A 
ATOM     32  C   UNL     1       0.004   1.098   0.275  0.00  0.00    +0.011 A 
ATOM     33  C   UNL     1       1.218   1.719   0.273  0.00  0.00    +0.001 A 
ATOM     34  C   UNL     1       2.396   0.985   0.390  0.00  0.00    +0.002 A 
ATOM     35  C   UNL     1       2.370  -0.370   0.510  0.00  0.00    +0.026 A 
ATOM     36  O   UNL     1      -0.033  -4.382   0.768  0.00  0.00    -0.268 OA
ATOM     37  H   UNL     1       2.030  -2.922   0.726  0.00  0.00    +0.169 HD
ENDBRANCH  24  26
ENDBRANCH  23  24
ENDBRANCH  22  23
ENDBRANCH   1  22
TORSDOF 5
