REMARK  Name = ZINC49069663
REMARK  3 active torsions:
REMARK  status: ('A' for Active; 'I' for Inactive)
REMARK    1  A    between atoms: C_3  and  C_7
REMARK    2  A    between atoms: N_15  and  C_16
REMARK    3  A    between atoms: C_16  and  C_17
REMARK                            x       y       z     vdW  Elec       q    Type
REMARK                         _______ _______ _______ _____ _____    ______ ____
ROOT
ATOM      1  C   UNL     1       3.614   0.681  -0.029  0.00  0.00    +0.124 C 
ATOM      2  C   UNL     1       4.123   0.065  -1.349  0.00  0.00    +0.030 C 
ATOM      3  C   UNL     1       5.356  -0.760  -0.895  0.00  0.00    +0.021 C 
ATOM      4  C   UNL     1       4.895  -1.272   0.492  0.00  0.00    +0.110 C 
ATOM      5  N   UNL     1       4.121  -0.154   1.070  0.00  0.00    -0.277 N 
ATOM      6  C   UNL     1       3.914   0.066   2.383  0.00  0.00    +0.303 C 
ATOM      7  O   UNL     1       3.257   1.024   2.743  0.00  0.00    -0.253 OA
ATOM      8  N   UNL     1       4.434  -0.776   3.298  0.00  0.00    -0.299 N 
ATOM      9  H   UNL     1       4.958  -1.540   3.011  0.00  0.00    +0.150 HD
ENDROOT
BRANCH   1  12
ATOM     10  C   UNL     1      -0.016   1.344   0.009  0.00  0.00    +0.019 A 
ATOM     11  C   UNL     1       1.322   1.784  -0.001  0.00  0.00    +0.024 A 
ATOM     12  C   UNL     1       2.107   0.688  -0.014  0.00  0.00    +0.037 A 
ATOM     13  N   UNL     1       1.303  -0.413  -0.013  0.00  0.00    -0.363 N 
ATOM     14  H   UNL     1       1.606  -1.334  -0.021  0.00  0.00    +0.165 HD
ATOM     15  C   UNL     1       0.002  -0.004   0.002  0.00  0.00    +0.083 A 
ENDBRANCH   1  12
BRANCH   8  16
ATOM     16  C   UNL     1       4.209  -0.537   4.726  0.00  0.00    +0.109 C 
BRANCH  16  17
ATOM     17  C   UNL     1       4.901  -1.630   5.541  0.00  0.00    +0.006 C 
ATOM     18  C   UNL     1       4.202  -2.986   5.310  0.00  0.00    +0.005 C 
ATOM     19  C   UNL     1       4.250  -3.679   6.694  0.00  0.00    +0.000 C 
ATOM     20  C   UNL     1       4.010  -2.504   7.673  0.00  0.00    +0.000 C 
ATOM     21  C   UNL     1       4.779  -1.324   7.044  0.00  0.00    +0.005 C 
ENDBRANCH  16  17
ENDBRANCH   8  16
TORSDOF 3
