REMARK  Name = ZINC63350919
REMARK  9 active torsions:
REMARK  status: ('A' for Active; 'I' for Inactive)
REMARK    1  A    between atoms: C_1  and  O_2
REMARK    2  A    between atoms: O_2  and  C_3
REMARK    3  A    between atoms: C_6  and  O_40
REMARK    4  A    between atoms: C_7  and  N_9
REMARK    5  A    between atoms: C_25  and  C_30
REMARK    6  A    between atoms: C_33  and  C_36
REMARK    7  A    between atoms: C_36  and  O_38
REMARK    8  A    between atoms: O_38  and  C_39
REMARK    9  A    between atoms: O_40  and  C_41
REMARK                            x       y       z     vdW  Elec       q    Type
REMARK                         _______ _______ _______ _____ _____    ______ ____
ROOT
ATOM      1  N   UNL     1      -2.538  -4.071   0.015  0.00  0.00    -0.189 N 
ATOM      2  C   UNL     1      -2.572  -4.827  -1.102  0.00  0.00    +0.248 C 
ATOM      3  O   UNL     1      -2.589  -4.437  -2.250  0.00  0.00    -0.273 OA
ATOM      4  C   UNL     1      -2.584  -6.263  -0.624  0.00  0.00    +0.169 C 
ATOM      5  C   UNL     1      -3.851  -6.972  -1.133  0.00  0.00    +0.065 C 
ATOM      6  C   UNL     1      -4.117  -8.112  -0.179  0.00  0.00    -0.034 C 
ATOM      7  C   UNL     1      -5.151  -8.942  -0.086  0.00  0.00    -0.001 A 
ATOM      8  C   UNL     1      -6.349  -9.109  -0.924  0.00  0.00    +0.010 A 
ATOM      9  C   UNL     1      -7.231 -10.063  -0.525  0.00  0.00    +0.001 A 
ATOM     10  C   UNL     1      -7.043 -10.857   0.611  0.00  0.00    +0.002 A 
ATOM     11  C   UNL     1      -5.968 -10.776   1.435  0.00  0.00    +0.026 A 
ATOM     12  C   UNL     1      -4.967  -9.813   1.114  0.00  0.00    +0.043 A 
ATOM     13  N   UNL     1      -3.845  -9.537   1.708  0.00  0.00    -0.375 N 
ATOM     14  C   UNL     1      -3.154  -8.502   0.936  0.00  0.00    +0.131 C 
ATOM     15  C   UNL     1      -2.905  -7.243   1.778  0.00  0.00    +0.135 C 
ATOM     16  N   UNL     1      -2.669  -6.129   0.845  0.00  0.00    -0.264 N 
ATOM     17  C   UNL     1      -2.559  -4.824   1.123  0.00  0.00    +0.317 C 
ATOM     18  O   UNL     1      -2.490  -4.374   2.250  0.00  0.00    -0.252 OA
ATOM     19  H   UNL     1      -3.519  -9.947   2.525  0.00  0.00    +0.160 HD
ENDROOT
BRANCH   1  24
ATOM     20  C   UNL     1      -1.201  -0.638   0.010  0.00  0.00    +0.122 A 
ATOM     21  C   UNL     1      -2.374   0.102   0.019  0.00  0.00    +0.049 A 
ATOM     22  C   UNL     1      -3.599  -0.539   0.028  0.00  0.00    +0.051 A 
ATOM     23  C   UNL     1      -3.657  -1.923   0.026  0.00  0.00    +0.142 A 
ATOM     24  C   UNL     1      -2.481  -2.668   0.016  0.00  0.00    +0.090 A 
ATOM     25  C   UNL     1      -1.254  -2.023   0.003  0.00  0.00    +0.073 A 
BRANCH  20  27
ATOM     26  C   UNL     1      -0.017   1.425   0.010  0.00  0.00    +0.277 C 
ATOM     27  O   UNL     1       0.002  -0.004   0.002  0.00  0.00    -0.495 OA
ENDBRANCH  20  27
BRANCH  23  28
ATOM     28  O   UNL     1      -4.863  -2.553   0.035  0.00  0.00    -0.493 OA
ATOM     29  C   UNL     1      -6.028  -1.726   0.045  0.00  0.00    +0.277 C 
ENDBRANCH  23  28
ENDBRANCH   1  24
BRANCH  15  30
ATOM     30  C   UNL     1      -1.682  -7.434   2.637  0.00  0.00    -0.025 A 
ATOM     31  C   UNL     1      -0.423  -7.264   2.090  0.00  0.00    +0.006 A 
ATOM     32  C   UNL     1       0.701  -7.437   2.871  0.00  0.00    +0.015 A 
ATOM     33  C   UNL     1       0.565  -7.785   4.217  0.00  0.00    +0.059 A 
ATOM     34  C   UNL     1      -0.709  -7.956   4.762  0.00  0.00    +0.015 A 
ATOM     35  C   UNL     1      -1.824  -7.774   3.971  0.00  0.00    +0.006 A 
BRANCH  33  36
ATOM     36  C   UNL     1       1.764  -7.973   5.059  0.00  0.00    +0.339 C 
ATOM     37  O   UNL     1       2.871  -7.824   4.582  0.00  0.00    -0.245 OA
BRANCH  36  38
ATOM     38  O   UNL     1       1.630  -8.309   6.357  0.00  0.00    -0.464 OA
ATOM     39  C   UNL     1       2.832  -8.474   7.112  0.00  0.00    +0.280 C 
ENDBRANCH  36  38
ENDBRANCH  33  36
ENDBRANCH  15  30
TORSDOF 6
