REMARK  Name = ZINC15945423
REMARK  5 active torsions:
REMARK  status: ('A' for Active; 'I' for Inactive)
REMARK    1  A    between atoms: C_1  and  C_2
REMARK    2  A    between atoms: C_2  and  C_3
REMARK    3  A    between atoms: C_12  and  O_26
REMARK    4  A    between atoms: C_14  and  C_17
REMARK    5  A    between atoms: C_20  and  O_24
REMARK                            x       y       z     vdW  Elec       q    Type
REMARK                         _______ _______ _______ _____ _____    ______ ____
ROOT
ATOM      1  C   UNL     1       0.742  -0.511   1.242  0.00  0.00    -0.006 C 
ATOM      2  C   UNL     1       0.662  -2.039   1.298  0.00  0.00    +0.008 C 
ATOM      3  C   UNL     1       1.179  -2.538   2.648  0.00  0.00    +0.037 C 
ATOM      4  C   UNL     1       2.554  -1.935   2.899  0.00  0.00    -0.023 A 
ATOM      5  C   UNL     1       2.975  -0.847   2.215  0.00  0.00    -0.004 A 
ATOM      6  S   UNL     1       4.602  -0.523   2.838  0.00  0.00    -0.078 S 
ATOM      7  C   UNL     1       4.726  -1.757   3.937  0.00  0.00    +0.080 A 
ATOM      8  C   UNL     1       3.512  -2.451   3.860  0.00  0.00    +0.068 A 
ATOM      9  C   UNL     1       3.331  -3.619   4.760  0.00  0.00    +0.220 C 
ATOM     10  N   UNL     1       4.386  -4.076   5.378  0.00  0.00    -0.223 NA
ATOM     11  C   UNL     1       5.738  -3.562   5.196  0.00  0.00    +0.224 C 
ATOM     12  N   UNL     1       5.730  -2.143   4.796  0.00  0.00    -0.313 N 
ATOM     13  C   UNL     1       2.217  -0.091   1.168  0.00  0.00    +0.046 C 
ATOM     14  H   UNL     1       6.396  -1.516   5.119  0.00  0.00    +0.149 HD
ENDROOT
BRANCH  11  15
ATOM     15  C   UNL     1       6.432  -4.369   4.129  0.00  0.00    -0.003 A 
ATOM     16  C   UNL     1       7.406  -3.781   3.344  0.00  0.00    +0.026 A 
ATOM     17  C   UNL     1       8.044  -4.519   2.364  0.00  0.00    +0.061 A 
ATOM     18  C   UNL     1       7.707  -5.851   2.170  0.00  0.00    +0.145 A 
ATOM     19  C   UNL     1       6.729  -6.438   2.960  0.00  0.00    +0.061 A 
ATOM     20  C   UNL     1       6.098  -5.697   3.942  0.00  0.00    +0.026 A 
ATOM     21 BR   UNL     1       6.265  -8.253   2.699  0.00  0.00    -0.046 Br
ATOM     22 BR   UNL     1       9.376  -3.713   1.290  0.00  0.00    -0.046 Br
BRANCH  18  23
ATOM     23  O   UNL     1       8.332  -6.578   1.207  0.00  0.00    -0.505 OA
ATOM     24  H   UNL     1       9.130  -7.030   1.512  0.00  0.00    +0.292 HD
ENDBRANCH  18  23
ENDBRANCH  11  15
BRANCH   1  26
ATOM     25  C   UNL     1      -0.019   1.526   0.010  0.00  0.00    +0.004 C 
ATOM     26  C   UNL     1       0.002  -0.004   0.002  0.00  0.00    +0.000 C 
ENDBRANCH   1  26
BRANCH   9  27
ATOM     27  O   UNL     1       2.116  -4.188   4.934  0.00  0.00    -0.492 OA
ATOM     28  H   UNL     1       2.117  -4.940   5.541  0.00  0.00    +0.294 HD
ENDBRANCH   9  27
TORSDOF 4
