REMARK  Name = ZINC66698539
REMARK  5 active torsions:
REMARK  status: ('A' for Active; 'I' for Inactive)
REMARK    1  A    between atoms: C_3  and  C_6
REMARK    2  A    between atoms: C_8  and  C_12
REMARK    3  A    between atoms: C_12  and  N_13
REMARK    4  A    between atoms: N_16  and  C_17
REMARK    5  A    between atoms: C_22  and  C_25
REMARK                            x       y       z     vdW  Elec       q    Type
REMARK                         _______ _______ _______ _____ _____    ______ ____
ROOT
ATOM      1  N   UNL     1       7.773   1.057   1.298  0.00  0.00    -0.292 N 
ATOM      2  C   UNL     1       9.024   0.611   1.526  0.00  0.00    +0.300 C 
ATOM      3  O   UNL     1       9.788   0.443   0.595  0.00  0.00    -0.253 OA
ATOM      4  N   UNL     1       9.429   0.350   2.785  0.00  0.00    -0.297 N 
ATOM      5  H   UNL     1       7.164   1.191   2.041  0.00  0.00    +0.151 HD
ATOM      6  H   UNL     1       8.819   0.484   3.527  0.00  0.00    +0.151 HD
ENDROOT
BRANCH   4   7
ATOM      7  C   UNL     1      10.789  -0.135   3.032  0.00  0.00    +0.075 C 
ATOM      8  C   UNL     1      11.745   1.056   3.127  0.00  0.00    +0.022 C 
ATOM      9  C   UNL     1      11.312   1.968   4.277  0.00  0.00    +0.002 C 
ATOM     10  C   UNL     1      11.343   1.182   5.589  0.00  0.00    +0.012 C 
ATOM     11  C   UNL     1      10.387  -0.008   5.494  0.00  0.00    +0.095 C 
ATOM     12  C   UNL     1      10.820  -0.920   4.344  0.00  0.00    +0.034 C 
BRANCH  11  13
ATOM     13  C   UNL     1      10.418  -0.793   6.807  0.00  0.00    +0.393 C 
ATOM     14  F   UNL     1      10.022   0.040   7.859  0.00  0.00    -0.170 F 
ATOM     15  F   UNL     1       9.543  -1.882   6.720  0.00  0.00    -0.170 F 
ATOM     16  F   UNL     1      11.717  -1.256   7.043  0.00  0.00    -0.170 F 
ENDBRANCH  11  13
ENDBRANCH   4   7
BRANCH   1  17
ATOM     17  C   UNL     1       7.333   1.339  -0.070  0.00  0.00    +0.181 C 
BRANCH  17  20
ATOM     18  C   UNL     1       3.740   1.825  -0.024  0.00  0.00    +0.188 A 
ATOM     19  N   UNL     1       4.842   1.062  -0.044  0.00  0.00    -0.209 NA
ATOM     20  C   UNL     1       5.906   1.821  -0.050  0.00  0.00    +0.143 A 
ATOM     21  N   UNL     1       5.508   3.106  -0.033  0.00  0.00    -0.261 N 
ATOM     22  H   UNL     1       6.080   3.890  -0.033  0.00  0.00    +0.190 HD
ATOM     23  N   UNL     1       4.104   3.091  -0.022  0.00  0.00    -0.152 NA
BRANCH  18  26
ATOM     24  C   UNL     1      -0.016   1.353   0.009  0.00  0.00    +0.008 A 
ATOM     25  C   UNL     1       1.178   2.041   0.002  0.00  0.00    +0.019 A 
ATOM     26  C   UNL     1       2.347   1.329  -0.013  0.00  0.00    +0.058 A 
ATOM     27  S   UNL     1       1.752  -0.354  -0.017  0.00  0.00    -0.093 S 
ATOM     28  C   UNL     1       0.002  -0.004   0.002  0.00  0.00    +0.046 A 
ENDBRANCH  18  26
ENDBRANCH  17  20
ENDBRANCH   1  17
TORSDOF 5
