REMARK  Name = ZINC48196957
REMARK  4 active torsions:
REMARK  status: ('A' for Active; 'I' for Inactive)
REMARK    1  A    between atoms: C_8  and  C_11
REMARK    2  A    between atoms: C_11  and  N_12
REMARK    3  A    between atoms: N_15  and  C_16
REMARK    4  A    between atoms: C_16  and  C_17
REMARK                            x       y       z     vdW  Elec       q    Type
REMARK                         _______ _______ _______ _____ _____    ______ ____
ROOT
ATOM      1  N   UNL     1       4.174  -4.673   0.096  0.00  0.00    -0.299 N 
ATOM      2  C   UNL     1       4.345  -6.009   0.164  0.00  0.00    +0.300 C 
ATOM      3  O   UNL     1       3.473  -6.755  -0.237  0.00  0.00    -0.253 OA
ATOM      4  N   UNL     1       5.484  -6.517   0.676  0.00  0.00    -0.295 N 
ATOM      5  H   UNL     1       4.870  -4.079   0.417  0.00  0.00    +0.150 HD
ATOM      6  H   UNL     1       6.179  -5.922   0.997  0.00  0.00    +0.151 HD
ENDROOT
BRANCH   1   7
ATOM      7  C   UNL     1       2.937  -4.121  -0.461  0.00  0.00    +0.113 C 
BRANCH   7  15
ATOM      8  C   UNL     1       0.766   1.609  -1.432  0.00  0.00    +0.000 A 
ATOM      9  C   UNL     1       2.007   2.193  -1.602  0.00  0.00    +0.004 A 
ATOM     10  C   UNL     1       3.148   1.419  -1.535  0.00  0.00    +0.046 A 
ATOM     11  C   UNL     1       3.053   0.051  -1.299  0.00  0.00    +0.124 A 
ATOM     12  C   UNL     1       1.809  -0.531  -1.133  0.00  0.00    -0.005 A 
ATOM     13  C   UNL     1       0.668   0.252  -1.198  0.00  0.00    +0.007 A 
ATOM     14  C   UNL     1       1.661  -2.011  -0.886  0.00  0.00    +0.047 C 
ATOM     15  C   UNL     1       2.998  -2.593  -0.422  0.00  0.00    +0.048 C 
ATOM     16  C   UNL     1       4.096  -2.095  -1.370  0.00  0.00    +0.234 C 
ATOM     17  O   UNL     1       4.198  -0.676  -1.235  0.00  0.00    -0.491 OA
ENDBRANCH   7  15
ENDBRANCH   1   7
BRANCH   4  18
ATOM     18  C   UNL     1       5.670  -7.968   0.750  0.00  0.00    +0.142 C 
BRANCH  18  19
ATOM     19  C   UNL     1       7.015  -8.272   1.358  0.00  0.00    -0.014 A 
ATOM     20  C   UNL     1       8.137  -8.400   0.550  0.00  0.00    +0.010 A 
ATOM     21  C   UNL     1       9.352  -8.679   1.148  0.00  0.00    +0.042 A 
ATOM     22  C   UNL     1       9.409  -8.822   2.531  0.00  0.00    +0.099 A 
ATOM     23  N   UNL     1       8.316  -8.693   3.267  0.00  0.00    -0.349 N 
ATOM     24  C   UNL     1       7.145  -8.421   2.724  0.00  0.00    +0.089 A 
ATOM     25  N   UNL     1      10.624  -9.103   3.145  0.00  0.00    -0.317 N 
ATOM     26  C   UNL     1      11.826  -9.094   2.341  0.00  0.00    +0.106 C 
ATOM     27  C   UNL     1      12.065 -10.505   1.749  0.00  0.00    +0.019 C 
ATOM     28  C   UNL     1      12.483 -11.438   2.806  0.00  0.00    +0.002 C 
ATOM     29  C   UNL     1      11.441 -11.659   3.898  0.00  0.00    +0.002 C 
ATOM     30  C   UNL     1      11.568 -10.572   4.937  0.00  0.00    +0.019 C 
ATOM     31  C   UNL     1      10.635  -9.392   4.592  0.00  0.00    +0.106 C 
ATOM     32  H   UNL     1       8.379  -8.797   4.229  0.00  0.00    +0.167 HD
ENDBRANCH  18  19
ENDBRANCH   4  18
TORSDOF 4
