REMARK  Name = ZINC04113031
REMARK  13 active torsions:
REMARK  status: ('A' for Active; 'I' for Inactive)
REMARK    1  A    between atoms: C_1  and  C_2
REMARK    2  A    between atoms: C_5  and  C_8
REMARK    3  A    between atoms: C_8  and  O_10
REMARK    4  A    between atoms: O_10  and  C_11
REMARK    5  A    between atoms: C_12  and  O_33
REMARK    6  A    between atoms: C_14  and  C_18
REMARK    7  A    between atoms: N_19  and  N_20
REMARK    8  A    between atoms: C_21  and  C_23
REMARK    9  A    between atoms: C_25  and  C_29
REMARK   10  A    between atoms: C_29  and  C_30
REMARK   11  A    between atoms: C_29  and  C_31
REMARK   12  A    between atoms: C_29  and  C_32
REMARK   13  A    between atoms: O_33  and  C_34
REMARK                            x       y       z     vdW  Elec       q    Type
REMARK                         _______ _______ _______ _____ _____    ______ ____
ROOT
ATOM      1  C   UNL     1      -1.201  -0.638   0.010  0.00  0.00    +0.187 A 
ATOM      2  C   UNL     1      -1.801  -0.973   1.222  0.00  0.00    +0.164 A 
ATOM      3  C   UNL     1      -3.027  -1.612   1.232  0.00  0.00    +0.059 A 
ATOM      4  C   UNL     1      -3.656  -1.931   0.026  0.00  0.00    -0.001 A 
ATOM      5  C   UNL     1      -3.046  -1.597  -1.186  0.00  0.00    +0.028 A 
ATOM      6  C   UNL     1      -1.825  -0.954  -1.189  0.00  0.00    +0.064 A 
ATOM      7 BR   UNL     1      -1.000  -0.502  -2.829  0.00  0.00    -0.046 Br
ENDROOT
BRANCH   4   8
ATOM      8  C   UNL     1      -4.961  -2.617   0.031  0.00  0.00    +0.138 C 
ATOM      9  N   UNL     1      -5.544  -2.911  -1.091  0.00  0.00    -0.187 NA
BRANCH   9  10
ATOM     10  N   UNL     1      -6.784  -3.563  -1.085  0.00  0.00    -0.202 N 
ATOM     11  C   UNL     1      -7.389  -3.869  -2.250  0.00  0.00    +0.281 C 
ATOM     12  O   UNL     1      -6.859  -3.579  -3.306  0.00  0.00    -0.267 OA
ATOM     13  H   UNL     1      -7.207  -3.795  -0.243  0.00  0.00    +0.178 HD
BRANCH  11  14
ATOM     14  C   UNL     1      -8.691  -4.554  -2.244  0.00  0.00    +0.122 A 
ATOM     15  C   UNL     1      -9.435  -4.933  -3.349  0.00  0.00    +0.058 A 
ATOM     16  C   UNL     1     -10.581  -5.542  -2.831  0.00  0.00    +0.069 A 
ATOM     17  N   UNL     1     -10.496  -5.513  -1.526  0.00  0.00    -0.178 NA
ATOM     18  N   UNL     1      -9.406  -4.948  -1.149  0.00  0.00    -0.272 N 
ATOM     19  H   UNL     1      -9.123  -4.818  -0.199  0.00  0.00    +0.189 HD
BRANCH  16  20
ATOM     20  C   UNL     1     -11.713  -6.130  -3.634  0.00  0.00    +0.006 C 
ATOM     21  C   UNL     1     -11.272  -7.466  -4.235  0.00  0.00    +0.017 C 
ATOM     22  C   UNL     1     -12.921  -6.354  -2.723  0.00  0.00    +0.017 C 
ATOM     23  C   UNL     1     -12.095  -5.166  -4.759  0.00  0.00    +0.017 C 
ENDBRANCH  16  20
ENDBRANCH  11  14
ENDBRANCH   9  10
ENDBRANCH   4   8
BRANCH   2  24
ATOM     24  O   UNL     1      -1.185  -0.667   2.394  0.00  0.00    -0.491 OA
ATOM     25  C   UNL     1      -1.857  -1.040   3.598  0.00  0.00    +0.277 C 
ENDBRANCH   2  24
BRANCH   1  26
ATOM     26  O   UNL     1       0.002  -0.004   0.002  0.00  0.00    -0.417 OA
BRANCH  26  27
ATOM     27  C   UNL     1      -0.016   1.343   0.009  0.00  0.00    +0.345 C 
ATOM     28  O   UNL     1      -1.076   1.936   0.018  0.00  0.00    -0.245 OA
BRANCH  27  33
ATOM     29  C   UNL     1       4.927   4.287  -0.022  0.00  0.00    +0.044 C 
ATOM     30  C   UNL     1       3.632   3.516  -0.014  0.00  0.00    -0.050 A 
ATOM     31  C   UNL     1       2.426   4.194   0.001  0.00  0.00    +0.004 A 
ATOM     32  C   UNL     1       1.238   3.495   0.009  0.00  0.00    +0.015 A 
ATOM     33  C   UNL     1       1.253   2.099   0.001  0.00  0.00    +0.059 A 
ATOM     34  C   UNL     1       2.473   1.420  -0.008  0.00  0.00    +0.015 A 
ATOM     35  C   UNL     1       3.655   2.132  -0.022  0.00  0.00    +0.004 A 
ENDBRANCH  27  33
ENDBRANCH  26  27
ENDBRANCH   1  26
TORSDOF 8
